# generated using pymatgen
data_H11C14(N2O)2
_symmetry_space_group_name_H-M   'P 1'
_cell_length_a   15.20447500
_cell_length_b   15.20445000
_cell_length_c   45.61350000
_cell_angle_alpha   90.00000000
_cell_angle_beta   90.00000000
_cell_angle_gamma   119.99983683
_symmetry_Int_Tables_number   1
_chemical_formula_structural   H11C14(N2O)2
_chemical_formula_sum   'H66 C84 N24 O12'
_cell_volume   9132.02069582
_cell_formula_units_Z   6
loop_
 _symmetry_equiv_pos_site_id
 _symmetry_equiv_pos_as_xyz
  1  'x, y, z'
loop_
 _atom_site_type_symbol
 _atom_site_label
 _atom_site_symmetry_multiplicity
 _atom_site_fract_x
 _atom_site_fract_y
 _atom_site_fract_z
 _atom_site_occupancy
  C  1  1  0.06312650  0.03463050  0.01187300  1
  C  2  1  0.04872950  0.99416950  0.04069300  1
  C  3  1  0.10160350  0.05241350  0.06548900  1
  C  4  1  0.17697950  0.15458150  0.06004300  1
  C  5  1  0.19764500  0.20015500  0.03197900  1
  C  6  1  0.13946750  0.13788250  0.00838900  1
  C  10  1  0.00062900  0.97562700  0.98792800  1
  C  11  1  0.90073450  0.89392450  0.99289500  1
  C  12  1  0.83171850  0.83892050  0.97015700  1
  C  13  1  0.86294050  0.87403350  0.94125000  1
  C  14  1  0.96361850  0.94976450  0.93454100  1
  C  15  1  0.03103800  0.99819800  0.95816300  1
  C  27  1  0.97931850  0.94230250  0.34531400  1
  C  28  1  0.95287600  0.95657000  0.37409900  1
  C  29  1  0.95768450  0.90339850  0.39889700  1
  C  30  1  0.98447100  0.82799300  0.39349500  1
  C  31  1  0.00985200  0.80754500  0.36546800  1
  C  32  1  0.00618550  0.86592150  0.34186800  1
  C  36  1  0.98319100  0.00498400  0.32137800  1
  C  37  1  0.00148600  0.10490400  0.32636600  1
  C  38  1  0.01567650  0.17403250  0.30364200  1
  C  39  1  0.01963650  0.14286950  0.27473200  1
  C  40  1  0.99460750  0.04218250  0.26800100  1
  C  41  1  0.97551950  0.97468150  0.29160800  1
  C  53  1  0.97075500  0.02744400  0.67857500  1
  C  54  1  0.01146300  0.05386600  0.70736300  1
  C  55  1  0.95348550  0.04906650  0.73216200  1
  C  56  1  0.85133150  0.02241650  0.72675000  1
  C  57  1  0.80553500  0.99713900  0.69872100  1
  C  58  1  0.86753300  0.00067400  0.67512700  1
  C  62  1  0.02947200  0.02339600  0.65463500  1
  C  63  1  0.11099900  0.00494100  0.65961600  1
  C  64  1  0.16592550  0.99071950  0.63690100  1
  C  65  1  0.13077850  0.98671050  0.60799300  1
  C  66  1  0.05500450  0.01156250  0.60126000  1
  C  67  1  0.00675800  0.03090300  0.62486100  1
  C  79  1  0.07726400  0.08517300  0.77313300  1
  C  80  1  0.09182900  0.08965900  0.80394700  1
  C  82  1  0.16644950  0.04023550  0.84310400  1
  C  83  1  0.09807450  0.04444450  0.86349600  1
  C  84  1  0.08341250  0.01417250  0.89323500  1
  C  86  1  0.03685150  0.11066850  0.82533200  1
  C  87  1  0.23747200  0.00308600  0.84971300  1
  C  91  1  0.98419750  0.16945350  0.82106800  1
  C  97  1  0.01387300  0.92880600  0.10646800  1
  C  98  1  0.00424350  0.91401550  0.13727700  1
  C  100  1  0.88056950  0.83981550  0.17655200  1
  C  101  1  0.95362700  0.90787700  0.19690400  1
  C  102  1  0.93846700  0.92246100  0.22669300  1
  C  104  1  0.08055750  0.96874650  0.15859700  1
  C  105  1  0.77232400  0.76939200  0.18323500  1
  C  109  1  0.19191850  0.02107850  0.15419300  1
  C  115  1  0.92118800  0.99093800  0.43977500  1
  C  116  1  0.91622300  0.00086100  0.47058600  1
  C  118  1  0.96612500  0.12489200  0.50978300  1
  C  119  1  0.96114200  0.05194500  0.53017200  1
  C  120  1  0.99119550  0.06737250  0.55993000  1
  C  122  1  0.89447450  0.92468050  0.49196800  1
  C  123  1  0.00414900  0.23322400  0.51639100  1
  C  127  1  0.83556400  0.81329200  0.48761800  1
  C  133  1  0.70472850  0.69348750  0.99877400  1
  C  134  1  0.60397400  0.61174600  0.00213300  1
  C  136  1  0.43355050  0.52846150  0.98159500  1
  C  137  1  0.39905900  0.45230900  0.00364700  1
  C  138  1  0.30152000  0.36452100  0.00610900  1
  C  140  1  0.56880200  0.53697200  0.02461500  1
  C  141  1  0.37087400  0.53428100  0.95770200  1
  C  145  1  0.62944300  0.52968100  0.04891300  1
  C  151  1  0.99675150  0.30075350  0.33222800  1
  C  152  1  0.01572550  0.40148250  0.33562000  1
  C  154  1  0.10337800  0.57216600  0.31526800  1
  C  155  1  0.06113050  0.60637250  0.33722400  1
  C  156  1  0.07079050  0.70387050  0.33970200  1
  C  158  1  0.97553600  0.43636600  0.35801400  1
  C  159  1  0.17255100  0.63517200  0.29153800  1
  C  163  1  0.90683550  0.37537250  0.38213400  1
  C  169  1  0.31157050  0.00970350  0.66550000  1
  C  170  1  0.39341800  0.99087200  0.66889200  1
  C  172  1  0.47652500  0.90329300  0.64854200  1
  C  173  1  0.55300100  0.94561700  0.67049000  1
  C  174  1  0.64086850  0.93601450  0.67296700  1
  C  176  1  0.46851450  0.03113950  0.69127800  1
  C  177  1  0.47038250  0.83410950  0.62481700  1
  C  181  1  0.47618300  0.09982400  0.71540000  1
  H  7  1  0.00194900  0.91839300  0.04337700  1
  H  8  1  0.15304500  0.16916500  0.98810400  1
  H  9  1  0.21784800  0.19869000  0.07745000  1
  H  16  1  0.87207400  0.88166800  0.01361600  1
  H  17  1  0.81389050  0.83690650  0.92433800  1
  H  18  1  0.10268150  0.05460350  0.95328500  1
  H  20  1  0.93337750  0.95883750  0.89249600  1
  H  22  1  0.68933750  0.73751250  0.95865600  1
  H  24  1  0.12670450  0.07041650  0.10812300  1
  H  26  1  0.31961600  0.32532200  0.04629700  1
  H  33  1  0.92377550  0.00327950  0.37673000  1
  H  34  1  0.02416800  0.85246300  0.32160200  1
  H  35  1  0.98735650  0.78695250  0.41090900  1
  H  42  1  0.01776450  0.13346950  0.34710100  1
  H  43  1  0.03178400  0.19206800  0.25784200  1
  H  44  1  0.96015900  0.90300100  0.28672400  1
  H  46  1  0.03368600  0.07239900  0.22593000  1
  H  48  1  0.05684850  0.31652050  0.29218700  1
  H  50  1  0.94992700  0.87805900  0.44152900  1
  H  52  1  0.01261450  0.68533850  0.37978400  1
  H  59  1  0.08723950  0.08281150  0.71000000  1
  H  60  1  0.83607950  0.98269450  0.65486500  1
  H  61  1  0.80740200  0.01956500  0.74415900  1
  H  68  1  0.12341250  0.98896650  0.68037500  1
  H  69  1  0.16765800  0.97434600  0.59109700  1
  H  70  1  0.95045300  0.04627600  0.61997000  1
  H  72  1  0.04578350  0.97201750  0.55922500  1
  H  74  1  0.26729450  0.94962350  0.62545900  1
  H  76  1  0.93558950  0.05614850  0.77479000  1
  H  78  1  0.68054900  0.99431900  0.71303700  1
  H  88  1  0.27798200  0.00184700  0.83008800  1
  H  89  1  0.19585000  0.92601000  0.85846100  1
  H  90  1  0.29363600  0.05292200  0.86572800  1
  H  92  1  0.90223050  0.11892150  0.82254700  1
  H  93  1  0.00289800  0.20887900  0.80005700  1
  H  94  1  0.00742000  0.22740500  0.83810400  1
  H  106  1  0.73019500  0.72921600  0.16361800  1
  H  107  1  0.73748400  0.81144200  0.19209600  1
  H  108  1  0.76569500  0.71291600  0.19918000  1
  H  110  1  0.22365300  0.10307000  0.15575600  1
  H  111  1  0.21222400  0.00246300  0.13310300  1
  H  112  1  0.22671250  0.99749850  0.17111100  1
  H  124  1  0.00596950  0.27520250  0.49675400  1
  H  125  1  0.08112100  0.26805300  0.52519100  1
  H  126  1  0.95450700  0.24007700  0.53236400  1
  H  128  1  0.88589450  0.78164750  0.48921000  1
  H  129  1  0.79659950  0.79281550  0.46653500  1
  H  130  1  0.77723150  0.77856550  0.50455000  1
  H  142  1  0.41460650  0.60134350  0.94402600  1
  H  143  1  0.30695600  0.53869100  0.96691800  1
  H  144  1  0.34260050  0.46743250  0.94367500  1
  H  146  1  0.66133150  0.59839150  0.06225700  1
  H  147  1  0.69061050  0.51966850  0.04012600  1
  H  148  1  0.58322450  0.46512850  0.06322800  1
  H  160  1  0.19627600  0.59163200  0.27792200  1
  H  161  1  0.24060900  0.69896800  0.30091500  1
  H  162  1  0.13437000  0.66363200  0.27741500  1
  H  164  1  0.94325000  0.34332900  0.39559100  1
  H  165  1  0.83595550  0.31430450  0.37316300  1
  H  166  1  0.88800900  0.42137200  0.39638700  1
  H  178  1  0.40309150  0.81032050  0.61120700  1
  H  179  1  0.46618500  0.76608900  0.63420000  1
  H  180  1  0.53699900  0.87230800  0.61068700  1
  H  182  1  0.40772600  0.06338600  0.72885400  1
  H  183  1  0.48596350  0.17069150  0.70642900  1
  H  184  1  0.54101500  0.11867900  0.72965200  1
  N  19  1  0.98996500  0.97713700  0.90595800  1
  N  21  1  0.73679250  0.75724050  0.97501100  1
  N  23  1  0.08530850  0.01840050  0.09398900  1
  N  25  1  0.27549850  0.29851450  0.02920100  1
  N  45  1  0.99543300  0.01584300  0.23941100  1
  N  47  1  0.02896800  0.26897300  0.30851300  1
  N  49  1  0.93953650  0.91953550  0.42737100  1
  N  51  1  0.03031550  0.72965150  0.36272100  1
  N  71  1  0.02767750  0.01049750  0.57267000  1
  N  73  1  0.24762150  0.97752450  0.64178100  1
  N  75  1  0.98765400  0.06696800  0.76065000  1
  N  77  1  0.70715750  0.97660050  0.69597600  1
  N  81  1  0.15606750  0.05901550  0.81450400  1
  N  85  1  0.04089150  0.08368250  0.85337100  1
  N  99  1  0.90937150  0.85021750  0.14791800  1
  N  103  1  0.04996700  0.96474800  0.18668300  1
  N  117  1  0.94752200  0.09585300  0.48117100  1
  N  121  1  0.92143150  0.95549550  0.52002300  1
  N  135  1  0.53293800  0.60240700  0.98227750  1
  N  139  1  0.47005300  0.46283700  0.02358500  1
  N  153  1  0.07793100  0.47277000  0.31589700  1
  N  157  1  0.00013800  0.53511900  0.35703000  1
  N  171  1  0.40252650  0.92866750  0.64917400  1
  N  175  1  0.54270800  0.00660400  0.69029100  1
  O  95  1  0.15369550  0.99937750  0.90714700  1
  O  96  1  0.14625300  0.07487900  0.75692000  1
  O  113  1  0.85351500  0.85219800  0.24065000  1
  O  114  1  0.93418850  0.86019450  0.09030200  1
  O  131  1  0.00644250  0.15259450  0.57384700  1
  O  132  1  0.93274550  0.07087850  0.42364200  1
  O  149  1  0.23022650  0.34847650  0.98577000  1
  O  150  1  0.77557300  0.69998000  0.01802000  1
  O  167  1  0.12652200  0.77541500  0.31947700  1
  O  168  1  0.93223450  0.22971250  0.35140200  1
  O  185  1  0.65672000  0.88031200  0.65274100  1
  O  186  1  0.30517700  0.07438300  0.68464100  1
