# generated using pymatgen
data_H7(C3O)4
_symmetry_space_group_name_H-M   'P 1'
_cell_length_a   11.43676667
_cell_length_b   16.39329475
_cell_length_c   16.39329475
_cell_angle_alpha   83.01101348
_cell_angle_beta   69.58456505
_cell_angle_gamma   69.58456505
_symmetry_Int_Tables_number   1
_chemical_formula_structural   H7(C3O)4
_chemical_formula_sum   'H28 C48 O16'
_cell_volume   2699.53674808
_cell_formula_units_Z   4
loop_
 _symmetry_equiv_pos_site_id
 _symmetry_equiv_pos_as_xyz
  1  'x, y, z'
loop_
 _atom_site_type_symbol
 _atom_site_label
 _atom_site_symmetry_multiplicity
 _atom_site_fract_x
 _atom_site_fract_y
 _atom_site_fract_z
 _atom_site_occupancy
  C  1  1  0.89445225  0.24294500  0.19634950  1
  C  2  1  0.91474400  0.19599750  0.12282350  1
  C  3  1  0.96271025  0.10434250  0.12185750  1
  C  4  1  0.98634925  0.05896050  0.19629000  1
  C  5  1  0.96469025  0.10426400  0.27075150  1
  C  6  1  0.92108825  0.19592050  0.26984650  1
  C  10  1  0.84821800  0.33548850  0.19638850  1
  C  11  1  0.90104400  0.38249500  0.12277650  1
  C  12  1  0.85397425  0.47415200  0.12187850  1
  C  13  1  0.75624325  0.51947250  0.19645850  1
  C  14  1  0.70384125  0.47410900  0.27100450  1
  C  15  1  0.74840775  0.38245500  0.27003200  1
  C  73  1  0.14425750  0.78927200  0.65025650  1
  C  74  1  0.24739500  0.71677600  0.60368850  1
  C  75  1  0.29267350  0.71611850  0.51207450  1
  C  76  1  0.23677875  0.78923550  0.46646600  1
  C  77  1  0.13505550  0.86237350  0.51188450  1
  C  78  1  0.08810325  0.86174150  0.60349350  1
  C  82  1  0.09781075  0.78931050  0.74246450  1
  C  83  1  0.06720800  0.71682950  0.78909100  1
  C  84  1  0.02257675  0.71623700  0.88070650  1
  C  85  1  0.00531200  0.78940850  0.92625450  1
  C  86  1  0.03387025  0.86253050  0.88077850  1
  C  87  1  0.08147075  0.86182950  0.78916750  1
  C  145  1  0.01774100  0.93421150  0.92809350  1
  C  146  1  0.88905700  0.98886200  0.97372700  1
  C  147  1  0.87120975  0.05023500  0.03394950  1
  C  148  1  0.98195525  0.05663200  0.04942050  1
  C  149  1  0.11098125  0.00442250  0.00110950  1
  C  150  1  0.12894075  0.94361550  0.94019100  1
  C  159  1  0.39543925  0.64434250  0.46487300  1
  C  160  1  0.36688550  0.58957950  0.41946700  1
  C  161  1  0.47051250  0.52816450  0.35922650  1
  C  162  1  0.60315700  0.52183450  0.34351950  1
  C  163  1  0.63185350  0.57414500  0.39160100  1
  C  164  1  0.52819850  0.63501000  0.45252550  1
  C  173  1  0.99167675  0.64445350  0.92795800  1
  C  174  1  0.07512625  0.58977150  0.97332000  1
  C  175  1  0.03306950  0.52831800  0.03357950  1
  C  176  1  0.90677975  0.52192100  0.04934150  1
  C  177  1  0.82563025  0.57417400  0.00132700  1
  C  178  1  0.86826900  0.63506800  0.94037750  1
  C  187  1  0.07961375  0.93404100  0.46451400  1
  C  188  1  0.15370275  0.98867300  0.41891750  1
  C  189  1  0.11025175  0.05006350  0.35868250  1
  C  190  1  0.99313450  0.05648800  0.34317100  1
  C  191  1  0.91627000  0.00428450  0.39141650  1
  C  192  1  0.95904925  0.94345900  0.45234600  1
  H  7  1  0.89407400  0.22850300  0.06943000  1
  H  8  1  0.90932025  0.22836850  0.32325900  1
  H  9  1  0.01969425  0.99220550  0.19626850  1
  H  16  1  0.97487300  0.35003450  0.06926850  1
  H  17  1  0.72284750  0.58622750  0.19647300  1
  H  18  1  0.70702100  0.34996250  0.32350500  1
  H  79  1  0.29042425  0.66416950  0.63643600  1
  H  80  1  0.01211750  0.91434200  0.63609850  1
  H  81  1  0.27033100  0.78920050  0.39970950  1
  H  88  1  0.07681300  0.66418400  0.75638750  1
  H  89  1  0.97182450  0.78941000  0.99301100  1
  H  90  1  0.10485750  0.91441200  0.75652050  1
  H  152  1  0.71712075  0.14826350  0.04895900  1
  H  156  1  0.24760875  0.96225000  0.05125750  1
  H  157  1  0.76921150  0.00975650  0.91210400  1
  H  158  1  0.27242875  0.83934650  0.93297350  1
  H  166  1  0.42932425  0.43009600  0.34450600  1
  H  170  1  0.77635825  0.61636700  0.34113200  1
  H  171  1  0.20639675  0.56867400  0.48134650  1
  H  172  1  0.56032950  0.73930300  0.45943350  1
  H  180  1  0.17237875  0.43029850  0.04830200  1
  H  184  1  0.63891700  0.61629600  0.05189550  1
  H  185  1  0.25648400  0.56892650  0.91136750  1
  H  186  1  0.73172175  0.73929950  0.93350400  1
  H  194  1  0.16635925  0.14806400  0.34377650  1
  H  198  1  0.82182275  0.96214950  0.34122900  1
  H  199  1  0.25253425  0.00959200  0.48061900  1
  H  200  1  0.91979300  0.83920800  0.45953200  1
  O  151  1  0.74592150  0.09616200  0.08303850  1
  O  153  1  0.78005375  0.97897500  0.96569550  1
  O  154  1  0.21894325  0.01126750  0.01378700  1
  O  155  1  0.25388275  0.89170800  0.89697450  1
  O  165  1  0.44002975  0.48216550  0.31033050  1
  O  167  1  0.23989725  0.59943600  0.42770250  1
  O  168  1  0.75938325  0.56736350  0.37868350  1
  O  169  1  0.55814375  0.68701250  0.49554700  1
  O  179  1  0.10964100  0.48239900  0.08244200  1
  O  181  1  0.19223025  0.59971750  0.96499850  1
  O  182  1  0.70490575  0.56730850  0.01432850  1
  O  183  1  0.78623550  0.68701400  0.89738750  1
  O  193  1  0.18963950  0.09599750  0.30965000  1
  O  195  1  0.27253950  0.97877800  0.42703800  1
  O  196  1  0.80148075  0.01116750  0.37869450  1
  O  197  1  0.88596875  0.89156900  0.49553350  1
