# generated using pymatgen
data_Cu2SiH12(C9O4)2
_symmetry_space_group_name_H-M   'P 1'
_cell_length_a   18.62395961
_cell_length_b   18.62898000
_cell_length_c   19.54653000
_cell_angle_alpha   90.00000000
_cell_angle_beta   90.00000000
_cell_angle_gamma   119.99126323
_symmetry_Int_Tables_number   1
_chemical_formula_structural   Cu2SiH12(C9O4)2
_chemical_formula_sum   'Cu12 Si6 H72 C108 O48'
_cell_volume   5873.53589360
_cell_formula_units_Z   6
loop_
 _symmetry_equiv_pos_site_id
 _symmetry_equiv_pos_as_xyz
  1  'x, y, z'
loop_
 _atom_site_type_symbol
 _atom_site_label
 _atom_site_symmetry_multiplicity
 _atom_site_fract_x
 _atom_site_fract_y
 _atom_site_fract_z
 _atom_site_occupancy
  Cu  Cu1  1  0.47823000  0.95646000  0.05110000  1.0
  Cu  Cu2  1  0.04354000  0.52177000  0.05110000  1.0
  Cu  Cu3  1  0.47823000  0.52178000  0.05110000  1.0
  Cu  Cu4  1  0.52191000  0.04382000  0.55089000  1.0
  Cu  Cu5  1  0.95617000  0.47808000  0.55089000  1.0
  Cu  Cu6  1  0.52191000  0.47808000  0.55089000  1.0
  Cu  Cu7  1  0.95645000  0.47822000  0.94890000  1.0
  Cu  Cu8  1  0.52177000  0.04354000  0.94890000  1.0
  Cu  Cu9  1  0.52177000  0.47822000  0.94890000  1.0
  Cu  Cu10  1  0.04383000  0.52191000  0.44911000  1.0
  Cu  Cu11  1  0.47809000  0.95618000  0.44911000  1.0
  Cu  Cu12  1  0.47809000  0.52192000  0.44911000  1.0
  Si  Si1  1  0.26973000  0.13486000  0.25003000  1.0
  Si  Si2  1  0.86513000  0.13486000  0.25003000  1.0
  Si  Si3  1  0.86513000  0.73026000  0.25003000  1.0
  Si  Si4  1  0.73027000  0.86514000  0.74997000  1.0
  Si  Si5  1  0.13487000  0.86514000  0.74997000  1.0
  Si  Si6  1  0.13487000  0.26974000  0.74997000  1.0
  H  H1  1  0.34669000  0.05710000  0.16326000  1.0
  H  H2  1  0.16265000  0.16385000  0.20456000  1.0
  H  H3  1  0.94291000  0.28959000  0.16327000  1.0
  H  H4  1  0.83616000  0.99881000  0.20456000  1.0
  H  H5  1  0.71038000  0.65330000  0.16326000  1.0
  H  H6  1  0.00118000  0.83733000  0.20456000  1.0
  H  H7  1  0.65330000  0.94290000  0.66322000  1.0
  H  H8  1  0.83736000  0.83615000  0.70456000  1.0
  H  H9  1  0.05708000  0.71039000  0.66323000  1.0
  H  H10  1  0.16384000  0.00120000  0.70456000  1.0
  H  H11  1  0.28963000  0.34670000  0.66323000  1.0
  H  H12  1  0.99880000  0.16265000  0.70456000  1.0
  H  H13  1  0.05708000  0.34669000  0.83674000  1.0
  H  H14  1  0.16384000  0.16265000  0.79544000  1.0
  H  H15  1  0.28959000  0.94289000  0.83675000  1.0
  H  H16  1  0.99880000  0.83615000  0.79544000  1.0
  H  H17  1  0.65331000  0.71040000  0.83674000  1.0
  H  H18  1  0.83735000  0.00119000  0.79544000  1.0
  H  H19  1  0.94293000  0.65330000  0.33678000  1.0
  H  H20  1  0.83615000  0.83735000  0.29545000  1.0
  H  H21  1  0.71039000  0.05709000  0.33678000  1.0
  H  H22  1  0.00121000  0.16385000  0.29545000  1.0
  H  H23  1  0.34669000  0.28960000  0.33677000  1.0
  H  H24  1  0.16264000  0.99880000  0.29545000  1.0
  H  H25  1  0.65330000  0.94289000  0.83675000  1.0
  H  H26  1  0.83735000  0.83615000  0.79544000  1.0
  H  H27  1  0.05709000  0.71040000  0.83674000  1.0
  H  H28  1  0.16383000  0.00118000  0.79544000  1.0
  H  H29  1  0.28961000  0.34669000  0.83674000  1.0
  H  H30  1  0.99881000  0.16265000  0.79544000  1.0
  H  H31  1  0.34670000  0.05709000  0.33678000  1.0
  H  H32  1  0.16264000  0.16385000  0.29545000  1.0
  H  H33  1  0.94292000  0.28961000  0.33677000  1.0
  H  H34  1  0.83616000  0.99880000  0.29545000  1.0
  H  H35  1  0.71037000  0.65330000  0.33678000  1.0
  H  H36  1  0.00120000  0.83735000  0.29545000  1.0
  H  H37  1  0.94292000  0.65330000  0.16326000  1.0
  H  H38  1  0.83616000  0.83735000  0.20456000  1.0
  H  H39  1  0.71041000  0.05710000  0.16326000  1.0
  H  H40  1  0.00120000  0.16385000  0.20456000  1.0
  H  H41  1  0.34668000  0.28959000  0.16327000  1.0
  H  H42  1  0.16265000  0.99881000  0.20456000  1.0
  H  H43  1  0.05707000  0.34670000  0.66323000  1.0
  H  H44  1  0.16385000  0.16265000  0.70456000  1.0
  H  H45  1  0.28960000  0.94290000  0.66322000  1.0
  H  H46  1  0.99879000  0.83615000  0.70456000  1.0
  H  H47  1  0.65331000  0.71039000  0.66323000  1.0
  H  H48  1  0.83736000  0.00120000  0.70456000  1.0
  H  H49  1  0.48306000  0.24152000  0.01090000  1.0
  H  H50  1  0.75846000  0.24152000  0.01090000  1.0
  H  H51  1  0.75847000  0.51694000  0.01090000  1.0
  H  H52  1  0.51694000  0.75847000  0.51087000  1.0
  H  H53  1  0.24153000  0.75847000  0.51087000  1.0
  H  H54  1  0.24153000  0.48306000  0.51087000  1.0
  H  H55  1  0.24153000  0.48306000  0.98910000  1.0
  H  H56  1  0.24153000  0.75847000  0.98910000  1.0
  H  H57  1  0.51694000  0.75847000  0.98910000  1.0
  H  H58  1  0.75847000  0.51694000  0.48913000  1.0
  H  H59  1  0.75847000  0.24153000  0.48914000  1.0
  H  H60  1  0.48305000  0.24152000  0.48914000  1.0
  H  H61  1  0.23815000  0.25159000  0.25000000  1.0
  H  H62  1  0.74839000  0.98655000  0.25000000  1.0
  H  H63  1  0.01346000  0.76185000  0.25000000  1.0
  H  H64  1  0.76185000  0.74841000  0.75000000  1.0
  H  H65  1  0.25161000  0.01345000  0.75000000  1.0
  H  H66  1  0.98654000  0.23815000  0.75000000  1.0
  H  H67  1  0.25161000  0.23815000  0.75000000  1.0
  H  H68  1  0.98655000  0.74840000  0.75000000  1.0
  H  H69  1  0.76184000  0.01345000  0.75000000  1.0
  H  H70  1  0.74839000  0.76185000  0.25000000  1.0
  H  H71  1  0.01344000  0.25159000  0.25000000  1.0
  H  H72  1  0.23816000  0.98655000  0.25000000  1.0
  C  C1  1  0.36562000  0.11814000  0.14229000  1.0
  C  C2  1  0.41771000  0.14390000  0.08476000  1.0
  C  C3  1  0.44760000  0.08982000  0.05468000  1.0
  C  C4  1  0.88187000  0.24749000  0.14229000  1.0
  C  C5  1  0.85610000  0.27380000  0.08476000  1.0
  C  C6  1  0.91018000  0.35778000  0.05468000  1.0
  C  C7  1  0.75250000  0.63438000  0.14229000  1.0
  C  C8  1  0.72619000  0.58230000  0.08476000  1.0
  C  C9  1  0.64221000  0.55239000  0.05468000  1.0
  C  C10  1  0.63432000  0.88186000  0.64223000  1.0
  C  C11  1  0.58229000  0.85610000  0.58466000  1.0
  C  C12  1  0.55244000  0.91003000  0.55422000  1.0
  C  C13  1  0.11813000  0.75246000  0.64223000  1.0
  C  C14  1  0.14389000  0.72619000  0.58466000  1.0
  C  C15  1  0.08997000  0.64241000  0.55422000  1.0
  C  C16  1  0.24755000  0.36567000  0.64223000  1.0
  C  C17  1  0.27381000  0.41770000  0.58466000  1.0
  C  C18  1  0.35759000  0.44756000  0.55422000  1.0
  C  C19  1  0.11812000  0.36562000  0.85772000  1.0
  C  C20  1  0.14389000  0.41770000  0.91524000  1.0
  C  C21  1  0.08981000  0.44760000  0.94532000  1.0
  C  C22  1  0.24748000  0.88186000  0.85772000  1.0
  C  C23  1  0.27381000  0.85610000  0.91525000  1.0
  C  C24  1  0.35778000  0.91017000  0.94533000  1.0
  C  C25  1  0.63438000  0.75251000  0.85771000  1.0
  C  C26  1  0.58230000  0.72620000  0.91524000  1.0
  C  C27  1  0.55240000  0.64222000  0.94532000  1.0
  C  C28  1  0.88187000  0.63432000  0.35778000  1.0
  C  C29  1  0.85611000  0.58230000  0.41534000  1.0
  C  C30  1  0.91003000  0.55244000  0.44578000  1.0
  C  C31  1  0.75246000  0.11814000  0.35778000  1.0
  C  C32  1  0.72619000  0.14390000  0.41535000  1.0
  C  C33  1  0.64241000  0.08997000  0.44579000  1.0
  C  C34  1  0.36567000  0.24754000  0.35777000  1.0
  C  C35  1  0.41770000  0.27381000  0.41534000  1.0
  C  C36  1  0.44756000  0.35758000  0.44578000  1.0
  C  C37  1  0.63438000  0.88186000  0.85772000  1.0
  C  C38  1  0.58229000  0.85610000  0.91525000  1.0
  C  C39  1  0.55239000  0.91017000  0.94533000  1.0
  C  C40  1  0.11813000  0.75251000  0.85771000  1.0
  C  C41  1  0.14389000  0.72619000  0.91524000  1.0
  C  C42  1  0.08982000  0.64222000  0.94532000  1.0
  C  C43  1  0.24750000  0.36562000  0.85772000  1.0
  C  C44  1  0.27381000  0.41770000  0.91524000  1.0
  C  C45  1  0.35779000  0.44761000  0.94532000  1.0
  C  C46  1  0.36568000  0.11814000  0.35778000  1.0
  C  C47  1  0.41771000  0.14390000  0.41535000  1.0
  C  C48  1  0.44756000  0.08997000  0.44579000  1.0
  C  C49  1  0.88187000  0.24754000  0.35777000  1.0
  C  C50  1  0.85611000  0.27381000  0.41534000  1.0
  C  C51  1  0.91002000  0.35758000  0.44578000  1.0
  C  C52  1  0.75245000  0.63432000  0.35778000  1.0
  C  C53  1  0.72619000  0.58230000  0.41534000  1.0
  C  C54  1  0.64240000  0.55243000  0.44578000  1.0
  C  C55  1  0.88187000  0.63437000  0.14229000  1.0
  C  C56  1  0.85611000  0.58230000  0.08476000  1.0
  C  C57  1  0.91018000  0.55239000  0.05468000  1.0
  C  C58  1  0.75252000  0.11814000  0.14229000  1.0
  C  C59  1  0.72619000  0.14390000  0.08476000  1.0
  C  C60  1  0.64222000  0.08983000  0.05468000  1.0
  C  C61  1  0.36561000  0.24748000  0.14229000  1.0
  C  C62  1  0.41770000  0.27380000  0.08476000  1.0
  C  C63  1  0.44760000  0.35778000  0.05468000  1.0
  C  C64  1  0.11812000  0.36567000  0.64223000  1.0
  C  C65  1  0.14389000  0.41770000  0.58466000  1.0
  C  C66  1  0.08997000  0.44756000  0.55422000  1.0
  C  C67  1  0.24754000  0.88186000  0.64223000  1.0
  C  C68  1  0.27381000  0.85610000  0.58466000  1.0
  C  C69  1  0.35759000  0.91003000  0.55422000  1.0
  C  C70  1  0.63433000  0.75246000  0.64223000  1.0
  C  C71  1  0.58230000  0.72619000  0.58466000  1.0
  C  C72  1  0.55244000  0.64241000  0.55422000  1.0
  C  C73  1  0.33809000  0.16905000  0.17162000  1.0
  C  C74  1  0.44300000  0.22149000  0.05557000  1.0
  C  C75  1  0.83096000  0.16905000  0.17162000  1.0
  C  C76  1  0.77849000  0.22149000  0.05557000  1.0
  C  C77  1  0.83095000  0.66190000  0.17162000  1.0
  C  C78  1  0.77850000  0.55700000  0.05557000  1.0
  C  C79  1  0.66181000  0.83090000  0.67158000  1.0
  C  C80  1  0.55697000  0.77849000  0.55554000  1.0
  C  C81  1  0.16909000  0.83090000  0.67158000  1.0
  C  C82  1  0.22152000  0.77849000  0.55554000  1.0
  C  C83  1  0.16909000  0.33818000  0.67158000  1.0
  C  C84  1  0.22151000  0.44302000  0.55554000  1.0
  C  C85  1  0.16904000  0.33808000  0.82838000  1.0
  C  C86  1  0.22150000  0.44300000  0.94444000  1.0
  C  C87  1  0.16904000  0.83095000  0.82838000  1.0
  C  C88  1  0.22150000  0.77850000  0.94444000  1.0
  C  C89  1  0.66191000  0.83095000  0.82838000  1.0
  C  C90  1  0.55700000  0.77850000  0.94444000  1.0
  C  C91  1  0.83090000  0.66180000  0.32842000  1.0
  C  C92  1  0.77848000  0.55697000  0.44446000  1.0
  C  C93  1  0.83091000  0.16910000  0.32842000  1.0
  C  C94  1  0.77848000  0.22151000  0.44446000  1.0
  C  C95  1  0.33819000  0.16910000  0.32842000  1.0
  C  C96  1  0.44303000  0.22151000  0.44446000  1.0
  C  C97  1  0.20273000  0.18357000  0.25001000  1.0
  C  C98  1  0.81644000  0.01918000  0.25001000  1.0
  C  C99  1  0.98083000  0.79726000  0.25001000  1.0
  C  C100  1  0.79727000  0.81643000  0.74999000  1.0
  C  C101  1  0.18356000  0.98082000  0.74999000  1.0
  C  C102  1  0.01917000  0.20274000  0.74999000  1.0
  C  C103  1  0.18357000  0.20274000  0.74999000  1.0
  C  C104  1  0.01916000  0.81643000  0.74999000  1.0
  C  C105  1  0.79726000  0.98082000  0.74999000  1.0
  C  C106  1  0.81643000  0.79726000  0.25001000  1.0
  C  C107  1  0.98084000  0.18357000  0.25001000  1.0
  C  C108  1  0.20274000  0.01918000  0.25001000  1.0
  O  O1  1  0.43897000  0.02856000  0.09068000  1.0
  O  O2  1  0.48004000  0.10953000  0.99490000  1.0
  O  O3  1  0.97144000  0.41041000  0.09069000  1.0
  O  O4  1  0.89046000  0.37050000  0.99490000  1.0
  O  O5  1  0.58957000  0.56103000  0.09069000  1.0
  O  O6  1  0.62950000  0.51996000  0.99491000  1.0
  O  O7  1  0.56147000  0.97176000  0.58969000  1.0
  O  O8  1  0.51965000  0.88980000  0.49463000  1.0
  O  O9  1  0.02824000  0.58970000  0.58970000  1.0
  O  O10  1  0.11019000  0.62985000  0.49463000  1.0
  O  O11  1  0.41031000  0.43853000  0.58969000  1.0
  O  O12  1  0.37015000  0.48035000  0.49463000  1.0
  O  O13  1  0.02854000  0.43897000  0.90931000  1.0
  O  O14  1  0.10954000  0.48004000  0.00510000  1.0
  O  O15  1  0.41041000  0.97144000  0.90932000  1.0
  O  O16  1  0.37050000  0.89046000  0.00510000  1.0
  O  O17  1  0.56103000  0.58959000  0.90931000  1.0
  O  O18  1  0.51996000  0.62950000  0.00510000  1.0
  O  O19  1  0.97178000  0.56146000  0.41031000  1.0
  O  O20  1  0.88980000  0.51965000  0.50537000  1.0
  O  O21  1  0.58971000  0.02824000  0.41032000  1.0
  O  O22  1  0.62985000  0.11020000  0.50538000  1.0
  O  O23  1  0.43853000  0.41029000  0.41031000  1.0
  O  O24  1  0.48034000  0.37014000  0.50538000  1.0
  O  O25  1  0.56103000  0.97144000  0.90932000  1.0
  O  O26  1  0.51996000  0.89047000  0.00510000  1.0
  O  O27  1  0.02856000  0.58959000  0.90931000  1.0
  O  O28  1  0.10954000  0.62950000  0.00510000  1.0
  O  O29  1  0.41043000  0.43897000  0.90931000  1.0
  O  O30  1  0.37050000  0.48004000  0.00510000  1.0
  O  O31  1  0.43853000  0.02824000  0.41032000  1.0
  O  O32  1  0.48035000  0.11020000  0.50538000  1.0
  O  O33  1  0.97176000  0.41029000  0.41031000  1.0
  O  O34  1  0.88980000  0.37014000  0.50538000  1.0
  O  O35  1  0.58968000  0.56146000  0.41031000  1.0
  O  O36  1  0.62985000  0.51965000  0.50537000  1.0
  O  O37  1  0.97146000  0.56103000  0.09069000  1.0
  O  O38  1  0.89046000  0.51996000  0.99491000  1.0
  O  O39  1  0.58959000  0.02856000  0.09068000  1.0
  O  O40  1  0.62949000  0.10953000  0.99490000  1.0
  O  O41  1  0.43897000  0.41041000  0.09069000  1.0
  O  O42  1  0.48004000  0.37050000  0.99490000  1.0
  O  O43  1  0.02822000  0.43853000  0.58969000  1.0
  O  O44  1  0.11020000  0.48034000  0.49463000  1.0
  O  O45  1  0.41029000  0.97176000  0.58969000  1.0
  O  O46  1  0.37015000  0.88980000  0.49463000  1.0
  O  O47  1  0.56147000  0.58971000  0.58970000  1.0
  O  O48  1  0.51966000  0.62986000  0.49463000  1.0
