# generated using pymatgen
data_H6C11N2
_symmetry_space_group_name_H-M   'P 1'
_cell_length_a   19.18450000
_cell_length_b   26.07200000
_cell_length_c   26.07200000
_cell_angle_alpha   90.00000000
_cell_angle_beta   90.00000000
_cell_angle_gamma   90.00000000
_symmetry_Int_Tables_number   1
_chemical_formula_structural   H6C11N2
_chemical_formula_sum   'H72 C132 N24'
_cell_volume   13040.64822045
_cell_formula_units_Z   12
loop_
 _symmetry_equiv_pos_site_id
 _symmetry_equiv_pos_as_xyz
  1  'x, y, z'
loop_
 _atom_site_type_symbol
 _atom_site_label
 _atom_site_symmetry_multiplicity
 _atom_site_fract_x
 _atom_site_fract_y
 _atom_site_fract_z
 _atom_site_occupancy
  C  1  1  0.08405100  0.01396600  0.36383000  1
  C  2  1  0.11705700  0.05775100  0.34430700  1
  C  3  1  0.07586800  0.08063800  0.30746500  1
  C  4  1  0.01454300  0.05230600  0.30134700  1
  C  5  1  0.96424200  0.06976400  0.26532400  1
  C  6  1  0.97618400  0.11571100  0.23709600  1
  C  7  1  0.03971900  0.14248300  0.24407500  1
  C  8  1  0.08983300  0.12513800  0.27893200  1
  C  9  1  0.18289700  0.07396500  0.36087800  1
  C  10  1  0.21728400  0.04526000  0.39830800  1
  C  11  1  0.18747400  0.00034900  0.42007500  1
  C  12  1  0.11963900  0.98537100  0.40248500  1
  C  13  1  0.95095400  0.99864200  0.36662400  1
  C  14  1  0.91926800  0.95226700  0.35246300  1
  C  15  1  0.95803800  0.92817600  0.31493200  1
  C  16  1  0.01659600  0.95800500  0.30360900  1
  C  17  1  0.94340700  0.88216100  0.28904300  1
  C  18  1  0.98961600  0.86528100  0.25108200  1
  C  19  1  0.04998100  0.89392800  0.23857700  1
  C  20  1  0.06321100  0.94072200  0.26496700  1
  C  21  1  0.91594800  0.03009700  0.40323300  1
  C  22  1  0.84988400  0.01510000  0.42379900  1
  C  23  1  0.82226200  0.96676500  0.40919800  1
  C  24  1  0.85599800  0.93549400  0.37348600  1
  C  37  1  0.01638400  0.00592600  0.33538100  1
  C  38  1  0.58402800  0.99868400  0.64881500  1
  C  39  1  0.61716000  0.95503200  0.66852200  1
  C  40  1  0.57588200  0.93209900  0.70528100  1
  C  41  1  0.51445100  0.96034100  0.71123800  1
  C  42  1  0.46403000  0.94284700  0.74714600  1
  C  43  1  0.47596200  0.89692800  0.77541400  1
  C  44  1  0.53959600  0.87024000  0.76862900  1
  C  45  1  0.58981000  0.88761500  0.73385600  1
  C  46  1  0.68319200  0.93900000  0.65218600  1
  C  47  1  0.71767200  0.96778100  0.61485500  1
  C  48  1  0.68775800  0.01258400  0.59294600  1
  C  49  1  0.61973400  0.02737800  0.61029500  1
  C  50  1  0.45094200  0.01397300  0.64590400  1
  C  51  1  0.41923300  0.06036400  0.65999200  1
  C  52  1  0.45796700  0.08449200  0.69753000  1
  C  53  1  0.51645900  0.05463400  0.70895200  1
  C  54  1  0.44335600  0.13054000  0.72337400  1
  C  55  1  0.48949300  0.14740100  0.76140300  1
  C  56  1  0.54972400  0.11866400  0.77404100  1
  C  57  1  0.56299600  0.07188300  0.74765600  1
  C  58  1  0.41593500  0.98241400  0.60938900  1
  C  59  1  0.34992800  0.99741500  0.58873500  1
  C  60  1  0.32223800  0.04574600  0.60326000  1
  C  61  1  0.35598300  0.07710200  0.63890000  1
  C  74  1  0.51631700  0.00670700  0.67719800  1
  C  75  1  0.33416100  0.64879900  0.01371500  1
  C  76  1  0.36736400  0.66844100  0.05736500  1
  C  77  1  0.32617800  0.70521600  0.08035100  1
  C  78  1  0.26467600  0.71121900  0.05220300  1
  C  79  1  0.21435700  0.74716500  0.06981100  1
  C  80  1  0.22635000  0.77527200  0.11583000  1
  C  81  1  0.29012400  0.76847600  0.14234600  1
  C  82  1  0.34028000  0.73374500  0.12482600  1
  C  83  1  0.43339000  0.65205600  0.07335700  1
  C  84  1  0.46774800  0.61467100  0.04457700  1
  C  85  1  0.43772800  0.59275100  0.99982000  1
  C  86  1  0.36971300  0.61016400  0.98506400  1
  C  87  1  0.20096500  0.64585800  0.99873000  1
  C  88  1  0.16928100  0.65973500  0.95226700  1
  C  89  1  0.20790200  0.69726900  0.92805700  1
  C  90  1  0.26637000  0.70886800  0.95787000  1
  C  91  1  0.19316600  0.72296700  0.88195800  1
  C  92  1  0.23918800  0.76100000  0.86496600  1
  C  93  1  0.29952800  0.77375300  0.89354500  1
  C  94  1  0.31286100  0.74752200  0.94042300  1
  C  95  1  0.16605500  0.60932400  0.03033300  1
  C  96  1  0.10010500  0.58853600  0.01535400  1
  C  97  1  0.07238200  0.60296500  0.96700700  1
  C  98  1  0.10606000  0.63856200  0.93557800  1
  C  111  1  0.26638600  0.67715900  0.00583400  1
  C  112  1  0.83400600  0.36380400  0.99889500  1
  C  113  1  0.86718200  0.34437200  0.95514300  1
  C  114  1  0.82607800  0.30759900  0.93208000  1
  C  115  1  0.76464300  0.30138200  0.96026000  1
  C  116  1  0.71443000  0.26539500  0.94255900  1
  C  117  1  0.72648200  0.23739500  0.89647100  1
  C  118  1  0.79019500  0.24445500  0.86992900  1
  C  119  1  0.84023300  0.27923600  0.88751100  1
  C  120  1  0.93310800  0.36093900  0.93911100  1
  C  121  1  0.96741600  0.39828200  0.96796900  1
  C  122  1  0.93743800  0.41997200  0.01285500  1
  C  123  1  0.86951400  0.40239300  0.02764400  1
  C  124  1  0.70083400  0.36658900  0.01384700  1
  C  125  1  0.66894600  0.35241700  0.06014200  1
  C  126  1  0.70766400  0.31494200  0.08435600  1
  C  127  1  0.76628500  0.30353800  0.05462500  1
  C  128  1  0.69277200  0.28903800  0.13031300  1
  C  129  1  0.73887200  0.25106300  0.14730800  1
  C  130  1  0.79936900  0.23850800  0.11882400  1
  C  131  1  0.81278000  0.26486500  0.07202800  1
  C  132  1  0.66588100  0.40314500  0.98229100  1
  C  133  1  0.59976000  0.42371100  0.99715800  1
  C  134  1  0.57202400  0.40917800  0.04547800  1
  C  135  1  0.60566600  0.37349300  0.07682600  1
  C  148  1  0.76629300  0.33533700  0.00671300  1
  C  149  1  0.92575800  0.13999300  0.20571300  1
  C  150  1  0.90241000  0.12116300  0.15794400  1
  C  151  1  0.86159600  0.15279400  0.12517600  1
  C  152  1  0.84649600  0.20354900  0.14195600  1
  C  159  1  0.42541000  0.87267200  0.80670100  1
  C  160  1  0.40220000  0.89131600  0.85457600  1
  C  161  1  0.36151900  0.85957700  0.88732300  1
  C  162  1  0.34662200  0.80880600  0.87050100  1
  C  169  1  0.17600500  0.80671600  0.14016200  1
  C  170  1  0.15142800  0.85396200  0.12086300  1
  C  171  1  0.11078700  0.88689400  0.15244400  1
  C  172  1  0.09732800  0.87095700  0.20371100  1
  C  179  1  0.67628800  0.20586500  0.87203500  1
  C  180  1  0.65068200  0.15911000  0.89179600  1
  C  181  1  0.60989800  0.12615200  0.86034100  1
  C  182  1  0.59713200  0.14164400  0.80884100  1
  C  189  1  0.72640900  0.03561000  0.55155300  1
  C  190  1  0.69620200  0.04692900  0.50350600  1
  C  191  1  0.73827000  0.04973200  0.45869100  1
  C  192  1  0.81171200  0.04133400  0.46306800  1
  C  199  1  0.22608900  0.97716300  0.46141800  1
  C  200  1  0.19596000  0.96527700  0.50934300  1
  C  201  1  0.23810400  0.96240400  0.55411500  1
  C  202  1  0.31149600  0.97084600  0.54984300  1
  C  209  1  0.97603800  0.46124200  0.03615400  1
  C  210  1  0.94598800  0.50930900  0.04754100  1
  C  211  1  0.98820100  0.55405400  0.05034600  1
  C  212  1  0.06164800  0.54974300  0.04201100  1
  C  219  1  0.47637900  0.55136200  0.97674100  1
  C  220  1  0.44608900  0.50338700  0.96530400  1
  C  221  1  0.48819000  0.45858800  0.96244200  1
  C  222  1  0.56164600  0.46296800  0.97085400  1
  H  25  1  0.77665200  0.95334500  0.42465900  1
  H  26  1  0.83403800  0.90133100  0.36307600  1
  H  27  1  0.90020000  0.86084700  0.29745400  1
  H  28  1  0.97899000  0.83128600  0.23295400  1
  H  29  1  0.10693500  0.96164500  0.25688800  1
  H  30  1  0.93769400  0.06428200  0.41380400  1
  H  31  1  0.91837600  0.05020700  0.26126000  1
  H  32  1  0.04981500  0.17568600  0.22437500  1
  H  33  1  0.13481700  0.14553900  0.28383000  1
  H  34  1  0.09643200  0.95330200  0.41718300  1
  H  35  1  0.20594200  0.10623600  0.34645900  1
  H  36  1  0.26433800  0.05917200  0.41055200  1
  H  62  1  0.27656200  0.05907300  0.58782200  1
  H  63  1  0.33399400  0.11126800  0.64927100  1
  H  64  1  0.40022900  0.15190300  0.71486600  1
  H  65  1  0.47893800  0.18144200  0.77946100  1
  H  66  1  0.60669200  0.05094600  0.75578000  1
  H  67  1  0.43761300  0.94815900  0.59897200  1
  H  68  1  0.41810700  0.96235000  0.75109300  1
  H  69  1  0.54968800  0.83707400  0.78839400  1
  H  70  1  0.63490800  0.86731000  0.72912300  1
  H  71  1  0.59644400  0.05936200  0.59548200  1
  H  72  1  0.70631400  0.90680400  0.66666667  1
  H  73  1  0.76483300  0.95395400  0.60273100  1
  H  99  1  0.02674000  0.58745800  0.95369400  1
  H  100  1  0.08405700  0.64882600  0.90138500  1
  H  101  1  0.14998700  0.71439500  0.86067400  1
  H  102  1  0.22840300  0.77902700  0.83094900  1
  H  103  1  0.35656300  0.75574600  0.96131500  1
  H  104  1  0.18776700  0.59897600  0.06459700  1
  H  105  1  0.16836000  0.75111200  0.05040200  1
  H  106  1  0.30039300  0.78821700  0.17549300  1
  H  107  1  0.38544000  0.72898100  0.14505000  1
  H  108  1  0.34634700  0.59535100  0.95311100  1
  H  109  1  0.45660100  0.66658100  0.10551700  1
  H  110  1  0.51495100  0.60255800  0.05833800  1
  H  136  1  0.52639400  0.42466600  0.05883300  1
  H  137  1  0.58361600  0.36312700  0.11097200  1
  H  138  1  0.64946600  0.29745400  0.15151800  1
  H  139  1  0.72802500  0.23292800  0.18125900  1
  H  140  1  0.85659800  0.25678400  0.05121600  1
  H  141  1  0.68776600  0.41373900  0.94816300  1
  H  142  1  0.66850300  0.26125000  0.96201700  1
  H  143  1  0.80052100  0.22484700  0.83671000  1
  H  144  1  0.88531400  0.28418400  0.86724100  1
  H  145  1  0.84619400  0.41704900  0.05968700  1
  H  146  1  0.95628200  0.34657800  0.90686200  1
  H  147  1  0.01454200  0.41052500  0.95418800  1
  H  156  1  0.84818400  0.09889000  0.06934300  1
  H  157  1  0.80904800  0.15431800  0.05705200  1
  H  158  1  0.91655800  0.08505600  0.14656800  1
  H  166  1  0.34803700  0.91337800  0.94324900  1
  H  167  1  0.30911400  0.85786300  0.95550400  1
  H  168  1  0.41633500  0.92740500  0.86602900  1
  H  176  1  0.09514400  0.94168800  0.09780600  1
  H  177  1  0.05735800  0.95464900  0.15359600  1
  H  178  1  0.16449600  0.86483600  0.08438500  1
  H  186  1  0.59303000  0.07200900  0.91543400  1
  H  187  1  0.55566200  0.05873900  0.85956200  1
  H  188  1  0.66320200  0.14855000  0.92847100  1
  H  196  1  0.65719700  0.06194800  0.40945800  1
  H  197  1  0.73462400  0.05969100  0.38108500  1
  H  198  1  0.64307100  0.04719700  0.50000400  1
  H  206  1  0.15710000  0.95033400  0.60347100  1
  H  207  1  0.23458100  0.95263900  0.63177700  1
  H  208  1  0.14283300  0.96500100  0.51283400  1
  H  216  1  0.90726800  0.60345200  0.06240100  1
  H  217  1  0.98479400  0.63168900  0.06012200  1
  H  218  1  0.89286600  0.51289900  0.04776100  1
  H  226  1  0.40715500  0.40933900  0.95017600  1
  H  227  1  0.48460500  0.38099300  0.95240100  1
  H  228  1  0.39295800  0.49988900  0.96506200  1
  N  153  1  0.87099400  0.21822800  0.18856500  1
  N  154  1  0.90875400  0.18899200  0.21791800  1
  N  155  1  0.83767900  0.13384300  0.07996000  1
  N  163  1  0.37103400  0.79426600  0.82382200  1
  N  164  1  0.40861000  0.82363100  0.79447700  1
  N  165  1  0.33761100  0.87842500  0.93258700  1
  N  173  1  0.12276600  0.82477000  0.21883100  1
  N  174  1  0.16029500  0.79526300  0.18959300  1
  N  175  1  0.08564600  0.93155900  0.13305900  1
  N  183  1  0.62327400  0.18749100  0.79336100  1
  N  184  1  0.66100800  0.21699900  0.82245700  1
  N  185  1  0.58396600  0.08186900  0.88004400  1
  N  193  1  0.83693000  0.03383600  0.51106900  1
  N  194  1  0.79734600  0.03169300  0.55180300  1
  N  195  1  0.70716700  0.05635400  0.41230400  1
  N  203  1  0.33659300  0.97902000  0.50187600  1
  N  204  1  0.29699500  0.98140900  0.46116100  1
  N  205  1  0.20713600  0.95556100  0.60051000  1
  N  213  1  0.08659600  0.50164900  0.03433800  1
  N  214  1  0.04696900  0.46094300  0.03215200  1
  N  215  1  0.95724600  0.60050200  0.05688000  1
  N  223  1  0.58687400  0.51097000  0.97836000  1
  N  224  1  0.54730900  0.55171400  0.98056900  1
  N  225  1  0.45712400  0.41219700  0.95577200  1
