# generated using pymatgen
data_CdH36C32Br2(N3O)4
_symmetry_space_group_name_H-M   'P 1'
_cell_length_a   10.01415000
_cell_length_b   16.36576000
_cell_length_c   17.06404829
_cell_angle_alpha   80.99018685
_cell_angle_beta   72.93076882
_cell_angle_gamma   90.14286000
_symmetry_Int_Tables_number   1
_chemical_formula_structural   CdH36C32Br2(N3O)4
_chemical_formula_sum   'Cd2 H72 C64 Br4 N24 O8'
_cell_volume   2636.95787102
_cell_formula_units_Z   2
loop_
 _symmetry_equiv_pos_site_id
 _symmetry_equiv_pos_as_xyz
  1  'x, y, z'
loop_
 _atom_site_type_symbol
 _atom_site_label
 _atom_site_symmetry_multiplicity
 _atom_site_fract_x
 _atom_site_fract_y
 _atom_site_fract_z
 _atom_site_occupancy
  Cd  Cd0  1  0.00000000  0.00000000  0.00000000  1
  Cd  Cd1  1  0.00000000  0.50000000  0.00000000  1
  H  H2  1  0.82868000  0.15805000  0.97751000  1
  H  H3  1  0.23726000  0.12347000  0.84596000  1
  H  H4  1  0.25112000  0.25578000  0.74675000  1
  H  H5  1  0.82710000  0.29269000  0.88628000  1
  H  H6  1  0.95268000  0.55626000  0.62698000  1
  H  H7  1  0.89844000  0.49189000  0.72367000  1
  H  H8  1  0.91695000  0.41276000  0.57067000  1
  H  H9  1  0.79819000  0.38685000  0.66891000  1
  H  H10  1  0.09250000  0.43338000  0.49400000  1
  H  H11  1  0.26470000  0.40525000  0.49049000  1
  H  H12  1  0.29734000  0.50370000  0.57069000  1
  H  H13  1  0.16535000  0.56747000  0.54889000  1
  H  H14  1  0.33403000  0.51502000  0.69681000  1
  H  H15  1  0.52293000  0.40220000  0.88176000  1
  H  H16  1  0.29260000  0.40573000  0.98844000  1
  H  H17  1  0.11032000  0.51198000  0.81090000  1
  H  H18  1  0.95556000  0.39624000  0.78530000  1
  H  H19  1  0.65639000  0.44130000  0.74545000  1
  H  H20  1  0.80566000  0.34142000  0.02226000  1
  H  H21  1  0.08373000  0.37695000  0.15321000  1
  H  H22  1  0.99883000  0.24474000  0.25246000  1
  H  H23  1  0.71333000  0.20637000  0.11377000  1
  H  H24  1  0.57863000  0.94389000  0.37340000  1
  H  H25  1  0.62135000  0.00795000  0.27658000  1
  H  H26  1  0.48811000  0.08758000  0.42955000  1
  H  H27  1  0.46769000  0.11326000  0.33144000  1
  H  H28  1  0.58697000  0.06705000  0.50589000  1
  H  H29  1  0.75564000  0.09508000  0.50954000  1
  H  H30  1  0.86850000  0.99750000  0.42870000  1
  H  H31  1  0.71502000  0.93294000  0.45071000  1
  H  H32  1  0.03073000  0.98442000  0.30341000  1
  H  H33  1  0.40540000  0.09802000  0.11837000  1
  H  H34  1  0.28142000  0.09473000  0.01196000  1
  H  H35  1  0.92128000  0.98787000  0.18949000  1
  H  H36  1  0.74220000  0.10340000  0.21330000  1
  H  H37  1  0.40215000  0.05888000  0.25458000  1
  H  H38  1  0.17131000  0.84195000  0.02249000  1
  H  H39  1  0.76273000  0.87653000  0.15404000  1
  H  H40  1  0.74887000  0.74422000  0.25325000  1
  H  H41  1  0.17289000  0.70732000  0.11372000  1
  H  H42  1  0.04732000  0.44375000  0.37301000  1
  H  H43  1  0.10156000  0.50812000  0.27632000  1
  H  H44  1  0.08304000  0.58724000  0.42933000  1
  H  H45  1  0.20180000  0.61315000  0.33109000  1
  H  H46  1  0.90749000  0.56662000  0.50600000  1
  H  H47  1  0.73529000  0.59475000  0.50951000  1
  H  H48  1  0.70266000  0.49630000  0.42930000  1
  H  H49  1  0.83465000  0.43253000  0.45110000  1
  H  H50  1  0.66596000  0.48498000  0.30319000  1
  H  H51  1  0.47706000  0.59780000  0.11824000  1
  H  H52  1  0.70739000  0.59427000  0.01156000  1
  H  H53  1  0.88967000  0.48802000  0.18910000  1
  H  H54  1  0.04443000  0.60376000  0.21470000  1
  H  H55  1  0.34361000  0.55871000  0.25454000  1
  H  H56  1  0.19433000  0.65858000  0.97774000  1
  H  H57  1  0.91627000  0.62305000  0.84678000  1
  H  H58  1  0.00117000  0.75526000  0.74753000  1
  H  H59  1  0.28667000  0.79363000  0.88622000  1
  H  H60  1  0.42136000  0.05611000  0.62660000  1
  H  H61  1  0.37865000  0.99205000  0.72341000  1
  H  H62  1  0.51188000  0.91242000  0.57045000  1
  H  H63  1  0.53231000  0.88674000  0.66855000  1
  H  H64  1  0.41303000  0.93296000  0.49410000  1
  H  H65  1  0.24436000  0.90492000  0.49045000  1
  H  H66  1  0.13150000  0.00250000  0.57129000  1
  H  H67  1  0.28498000  0.06707000  0.54928000  1
  H  H68  1  0.96926000  0.01559000  0.69659000  1
  H  H69  1  0.59459000  0.90198000  0.88163000  1
  H  H70  1  0.71858000  0.90527000  0.98803000  1
  H  H71  1  0.07871000  0.01214000  0.81051000  1
  H  H72  1  0.25779000  0.89660000  0.78670000  1
  H  H73  1  0.59785000  0.94112000  0.74541000  1
  C  C74  1  0.92067000  0.18212000  0.92614000  1
  C  C75  1  0.14829000  0.16289000  0.85243000  1
  C  C76  1  0.15638000  0.23607000  0.79706000  1
  C  C77  1  0.91944000  0.25623000  0.87467000  1
  C  C78  1  0.03855000  0.28466000  0.80730000  1
  C  C79  1  0.12764000  0.39170000  0.68062000  1
  C  C80  1  0.94666000  0.49140000  0.65689000  1
  C  C81  1  0.85159000  0.44014000  0.62267000  1
  C  C82  1  0.19742000  0.45764000  0.48864000  1
  C  C83  1  0.19289000  0.50301000  0.56223000  1
  C  C84  1  0.61373000  0.49887000  0.63821000  1
  C  C85  1  0.32769000  0.48929000  0.76021000  1
  C  C86  1  0.44699000  0.45868000  0.77990000  1
  C  C87  1  0.43319000  0.42584000  0.86340000  1
  C  C88  1  0.30521000  0.42777000  0.92297000  1
  C  C89  1  0.20437000  0.48805000  0.82383000  1
  C  C90  1  0.84650000  0.31758000  0.07352000  1
  C  C91  1  0.00095000  0.33738000  0.14691000  1
  C  C92  1  0.95394000  0.26417000  0.20235000  1
  C  C93  1  0.79406000  0.24340000  0.12504000  1
  C  C94  1  0.84622000  0.21533000  0.19216000  1
  C  C95  1  0.80769000  0.10909000  0.31893000  1
  C  C96  1  0.60324000  0.00867000  0.34326000  1
  C  C97  1  0.47450000  0.06000000  0.37766000  1
  C  C98  1  0.68636000  0.04266000  0.51109000  1
  C  C99  1  0.75556000  0.99760000  0.43725000  1
  C  C100  1  0.25209000  0.00105000  0.36204000  1
  C  C101  1  0.08799000  0.01048000  0.24007000  1
  C  C102  1  0.22715000  0.04119000  0.22036000  1
  C  C103  1  0.29713000  0.07426000  0.13689000  1
  C  C104  1  0.22859000  0.07251000  0.07739000  1
  C  C105  1  0.02833000  0.01195000  0.17645000  1
  C  C106  1  0.07932000  0.81788000  0.07386000  1
  C  C107  1  0.85170000  0.83711000  0.14757000  1
  C  C108  1  0.84362000  0.76393000  0.20293000  1
  C  C109  1  0.08055000  0.74378000  0.12533000  1
  C  C110  1  0.96145000  0.71534000  0.19269000  1
  C  C111  1  0.87235000  0.60831000  0.31938000  1
  C  C112  1  0.05333000  0.50860000  0.34311000  1
  C  C113  1  0.14841000  0.55986000  0.37732000  1
  C  C114  1  0.80257000  0.54236000  0.51136000  1
  C  C115  1  0.80711000  0.49699000  0.43776000  1
  C  C116  1  0.38626000  0.50113000  0.36179000  1
  C  C117  1  0.67230000  0.51071000  0.23979000  1
  C  C118  1  0.55300000  0.54132000  0.22010000  1
  C  C119  1  0.56680000  0.57416000  0.13660000  1
  C  C120  1  0.69478000  0.57223000  0.07703000  1
  C  C121  1  0.79563000  0.51195000  0.17616000  1
  C  C122  1  0.15349000  0.68242000  0.92648000  1
  C  C123  1  0.99905000  0.66262000  0.85308000  1
  C  C124  1  0.04605000  0.73583000  0.79765000  1
  C  C125  1  0.20593000  0.75660000  0.87496000  1
  C  C126  1  0.15377000  0.78468000  0.80784000  1
  C  C127  1  0.19230000  0.89092000  0.68107000  1
  C  C128  1  0.39675000  0.99133000  0.65674000  1
  C  C129  1  0.52549000  0.94000000  0.62234000  1
  C  C130  1  0.31363000  0.95734000  0.48891000  1
  C  C131  1  0.24444000  0.00240000  0.56274000  1
  C  C132  1  0.74790000  0.99895000  0.63796000  1
  C  C133  1  0.91201000  0.98952000  0.75992000  1
  C  C134  1  0.77284000  0.95881000  0.77964000  1
  C  C135  1  0.70286000  0.92575000  0.86311000  1
  C  C136  1  0.77141000  0.92749000  0.92260000  1
  C  C137  1  0.97166000  0.98806000  0.82355000  1
  Br  Br138  1  0.70794000  0.03308000  0.10639000  1
  Br  Br139  1  0.81317000  0.46615000  0.89350000  1
  Br  Br140  1  0.29205000  0.96692000  0.89361000  1
  Br  Br141  1  0.18683000  0.53385000  0.10649000  1
  N  N142  1  0.03296000  0.13477000  0.91600000  1
  N  N143  1  0.09061000  0.46511000  0.64084000  1
  N  N144  1  0.03009000  0.35858000  0.75629000  1
  N  N145  1  0.19156000  0.45896000  0.90426000  1
  N  N146  1  0.75021000  0.48963000  0.59265000  1
  N  N147  1  0.57753000  0.45954000  0.72143000  1
  N  N148  1  0.94882000  0.36523000  0.08354000  1
  N  N149  1  0.73211000  0.03494000  0.35852000  1
  N  N150  1  0.78707000  0.14113000  0.24279000  1
  N  N151  1  0.09604000  0.04126000  0.09605000  1
  N  N152  1  0.34274000  0.01048000  0.40776000  1
  N  N153  1  0.29939000  0.04009000  0.27873000  1
  N  N154  1  0.96704000  0.86523000  0.08399000  1
  N  N155  1  0.90938000  0.53489000  0.35916000  1
  N  N156  1  0.96990000  0.64142000  0.24371000  1
  N  N157  1  0.80843000  0.54104000  0.09574000  1
  N  N158  1  0.24978000  0.51038000  0.40735000  1
  N  N159  1  0.42246000  0.54046000  0.27857000  1
  N  N160  1  0.05118000  0.63477000  0.91645000  1
  N  N161  1  0.26788000  0.96506000  0.64148000  1
  N  N162  1  0.21292000  0.85888000  0.75721000  1
  N  N163  1  0.90395000  0.95874000  0.90395000  1
  N  N164  1  0.65725000  0.98952000  0.59224000  1
  N  N165  1  0.70060000  0.95991000  0.72127000  1
  O  O166  1  0.23856000  0.35971000  0.65048000  1
  O  O167  1  0.53235000  0.53935000  0.60757000  1
  O  O168  1  0.88675000  0.14263000  0.34930000  1
  O  O169  1  0.13948000  0.96080000  0.39288000  1
  O  O170  1  0.76144000  0.64029000  0.34951000  1
  O  O171  1  0.46764000  0.46065000  0.39243000  1
  O  O172  1  0.11325000  0.85737000  0.65069000  1
  O  O173  1  0.86051000  0.03920000  0.60712000  1
