# generated using pymatgen
data_H26C39N10
_symmetry_space_group_name_H-M   'P 1'
_cell_length_a   17.50645000
_cell_length_b   17.50645000
_cell_length_c   70.02600000
_cell_angle_alpha   89.99890000
_cell_angle_beta   89.99840000
_cell_angle_gamma   90.00000000
_symmetry_Int_Tables_number   1
_chemical_formula_structural   H26C39N10
_chemical_formula_sum   'H208 C312 N80'
_cell_volume   21461.27377043
_cell_formula_units_Z   8
loop_
 _symmetry_equiv_pos_site_id
 _symmetry_equiv_pos_as_xyz
  1  'x, y, z'
loop_
 _atom_site_type_symbol
 _atom_site_label
 _atom_site_symmetry_multiplicity
 _atom_site_fract_x
 _atom_site_fract_y
 _atom_site_fract_z
 _atom_site_occupancy
  C  1  1  0.05803800  0.01230400  0.15373400  1
  C  2  1  0.13908800  0.00891400  0.15383000  1
  C  3  1  0.14390200  0.01204400  0.11781500  1
  C  4  1  0.06297200  0.01274400  0.11652200  1
  C  5  1  0.03022700  0.01409900  0.09772600  1
  C  6  1  0.07546800  0.01435200  0.08082900  1
  C  7  1  0.15557700  0.01742800  0.08312300  1
  C  8  1  0.18922400  0.01482500  0.10118800  1
  C  9  1  0.17982500  0.00666700  0.17120800  1
  C  10  1  0.14146600  0.00817200  0.18869600  1
  C  11  1  0.06105000  0.01095100  0.18950800  1
  C  12  1  0.02037000  0.01424200  0.17193200  1
  C  13  1  0.97037100  0.08842200  0.13430600  1
  C  14  1  0.88937300  0.08693300  0.13343400  1
  C  15  1  0.88757600  0.94252900  0.13389500  1
  C  16  1  0.96861200  0.93911900  0.13439600  1
  C  17  1  0.84364700  0.87491900  0.13382700  1
  C  18  1  0.87866800  0.80319400  0.13421900  1
  C  19  1  0.95867000  0.79624800  0.13456300  1
  C  20  1  0.00292800  0.86453500  0.13466100  1
  C  21  1  0.00640900  0.16216000  0.13438600  1
  C  22  1  0.96445300  0.23190700  0.13381800  1
  C  23  1  0.88420900  0.22632100  0.13227300  1
  C  24  1  0.84730800  0.15553400  0.13237800  1
  C  37  1  0.01494900  0.01322000  0.13474700  1
  C  38  1  0.84478300  0.01525600  0.13331200  1
  C  41  1  0.18523900  0.00914900  0.13618300  1
  C  48  1  0.02699300  0.04583900  0.65261200  1
  C  49  1  0.03453500  0.12656700  0.65195600  1
  C  50  1  0.03454800  0.12584100  0.61584800  1
  C  51  1  0.02718500  0.04509100  0.61541400  1
  C  52  1  0.02227000  0.00942900  0.59700900  1
  C  53  1  0.02565900  0.05158300  0.57966700  1
  C  54  1  0.03215900  0.13170500  0.58096800  1
  C  55  1  0.03724100  0.16813400  0.59869700  1
  C  56  1  0.03770300  0.16957500  0.66898600  1
  C  57  1  0.03333100  0.13386100  0.68681000  1
  C  58  1  0.02691400  0.05380400  0.68832700  1
  C  59  1  0.02267300  0.01088800  0.67111500  1
  C  60  1  0.95004300  0.95579300  0.63405100  1
  C  61  1  0.95120300  0.87470300  0.63393700  1
  C  62  1  0.09563300  0.87217300  0.63442100  1
  C  63  1  0.09941400  0.95318900  0.63419100  1
  C  64  1  0.16306100  0.82797300  0.63477400  1
  C  65  1  0.23496900  0.86270300  0.63488100  1
  C  66  1  0.24230000  0.94267000  0.63452400  1
  C  67  1  0.17419300  0.98715300  0.63419400  1
  C  68  1  0.87649000  0.99218100  0.63379600  1
  C  69  1  0.80655300  0.95043300  0.63364400  1
  C  70  1  0.81181900  0.86998800  0.63283500  1
  C  71  1  0.88243100  0.83282000  0.63326900  1
  C  84  1  0.02553900  0.99993400  0.63407100  1
  C  85  1  0.02267000  0.82974300  0.63421300  1
  C  88  1  0.03928800  0.16974700  0.63384600  1
  C  95  1  0.97500700  0.00735700  0.86613800  1
  C  96  1  0.89398600  0.00501200  0.86674300  1
  C  97  1  0.89398800  0.00749400  0.90280900  1
  C  98  1  0.97504100  0.00826800  0.90333600  1
  C  99  1  0.01048500  0.00821800  0.92179600  1
  C  100  1  0.96784800  0.00871700  0.93909500  1
  C  101  1  0.88748900  0.00647100  0.93767100  1
  C  102  1  0.85120400  0.00661100  0.91988900  1
  C  103  1  0.85114700  0.00037500  0.84972300  1
  C  104  1  0.88730700  0.99821700  0.83194100  1
  C  105  1  0.96758300  0.00312100  0.83035300  1
  C  106  1  0.01028300  0.00630400  0.84764200  1
  C  107  1  0.06529000  0.08384600  0.88474800  1
  C  108  1  0.14636800  0.08238900  0.88500700  1
  C  109  1  0.14819700  0.93801500  0.88465100  1
  C  110  1  0.06713500  0.93454500  0.88477400  1
  C  111  1  0.19217600  0.87044900  0.88443000  1
  C  112  1  0.15718100  0.79870100  0.88433400  1
  C  113  1  0.07717800  0.79171800  0.88458400  1
  C  114  1  0.03286300  0.85995000  0.88480200  1
  C  115  1  0.02930500  0.15761500  0.88494400  1
  C  116  1  0.07134100  0.22736500  0.88521500  1
  C  117  1  0.15173900  0.22176500  0.88612200  1
  C  118  1  0.18857200  0.15097500  0.88572500  1
  C  131  1  0.02066900  0.00861800  0.88473400  1
  C  132  1  0.19099700  0.01075200  0.88485000  1
  C  135  1  0.85019700  0.00566500  0.88478400  1
  C  142  1  0.01017600  0.05628300  0.36718500  1
  C  143  1  0.00615500  0.13723900  0.36771200  1
  C  144  1  0.00891200  0.13786400  0.40376800  1
  C  145  1  0.01168600  0.05681400  0.40444500  1
  C  146  1  0.01372000  0.02187500  0.42299400  1
  C  147  1  0.01283500  0.06561900  0.44013300  1
  C  148  1  0.00972000  0.14561800  0.43860300  1
  C  149  1  0.00802300  0.18123900  0.42075500  1
  C  150  1  0.00055300  0.17981100  0.35066800  1
  C  151  1  0.99907000  0.14342700  0.33291800  1
  C  152  1  0.00574200  0.06326800  0.33137400  1
  C  153  1  0.00965900  0.02080600  0.34870200  1
  C  154  1  0.08727000  0.96651400  0.38581900  1
  C  155  1  0.08589400  0.88543900  0.38612800  1
  C  156  1  0.94150500  0.88341700  0.38591200  1
  C  157  1  0.93796700  0.96446700  0.38600100  1
  C  158  1  0.87396400  0.83938700  0.38572200  1
  C  159  1  0.80218300  0.87432900  0.38558500  1
  C  160  1  0.79511700  0.95432700  0.38577400  1
  C  161  1  0.86332800  0.99867400  0.38598800  1
  C  162  1  0.16098500  0.00260700  0.38592800  1
  C  163  1  0.23080400  0.96066600  0.38613900  1
  C  164  1  0.22528700  0.88026900  0.38710700  1
  C  165  1  0.15454100  0.84333500  0.38680800  1
  C  178  1  0.01198200  0.01099000  0.38585700  1
  C  179  1  0.01430250  0.84071600  0.38607200  1
  C  182  1  0.00575900  0.18127200  0.38569900  1
  C  189  1  0.01918100  0.98842600  0.24006100  1
  C  190  1  0.00796100  0.93079000  0.25396600  1
  C  191  1  0.00853000  0.94770200  0.27385400  1
  C  192  1  0.02130500  0.02486700  0.27950500  1
  C  199  1  0.03656900  0.97096900  0.22109300  1
  C  201  1  0.03093000  0.05453600  0.29796600  1
  C  203  1  0.04606200  0.01530700  0.73923800  1
  C  204  1  0.10317100  0.00558900  0.75335000  1
  C  205  1  0.08522600  0.00635300  0.77317700  1
  C  206  1  0.00747700  0.01737100  0.77854800  1
  C  213  1  0.06424500  0.03181600  0.72026100  1
  C  215  1  0.97690600  0.02743300  0.79689100  1
  C  217  1  0.05112900  0.99457200  0.02910600  1
  C  218  1  0.10483500  0.98121800  0.01433600  1
  C  219  1  0.08704900  0.99504600  0.99485600  1
  C  220  1  0.01204600  0.02110600  0.99044500  1
  C  227  1  0.07076600  0.98096100  0.04813700  1
  C  229  1  0.98120200  0.03594700  0.97236100  1
  C  231  1  0.03756300  0.00873100  0.52881900  1
  C  232  1  0.97126800  0.03690900  0.51972400  1
  C  233  1  0.96083700  0.02870100  0.49968700  1
  C  234  1  0.01933100  0.99150900  0.48896200  1
  C  241  1  0.05783900  0.02944000  0.54733100  1
  C  243  1  0.02049200  0.98257600  0.46912400  1
  C  245  1  0.02995400  0.59839300  0.13518200  1
  C  246  1  0.09035900  0.54502400  0.13340300  1
  C  247  1  0.07736300  0.46484900  0.13500500  1
  C  248  1  0.00130200  0.43905700  0.13831900  1
  C  255  1  0.04005900  0.67792300  0.13420500  1
  C  257  1  0.97479700  0.36429700  0.14126500  1
  C  259  1  0.43996800  0.01473200  0.63458700  1
  C  260  1  0.49289100  0.07538400  0.63250300  1
  C  261  1  0.57315000  0.06314800  0.63421000  1
  C  262  1  0.59950000  0.98758700  0.63791800  1
  C  269  1  0.36035300  0.02412000  0.63353400  1
  C  271  1  0.67439200  0.96207100  0.64115400  1
  C  273  1  0.00587100  0.59393100  0.88445400  1
  C  274  1  0.94557700  0.54059100  0.88649300  1
  C  275  1  0.95839800  0.46043200  0.88478100  1
  C  276  1  0.03417800  0.43462000  0.88110200  1
  C  283  1  0.99586700  0.67344800  0.88549800  1
  C  285  1  0.06029500  0.35988700  0.87792200  1
  C  287  1  0.59735500  0.02584900  0.38538500  1
  C  288  1  0.54412400  0.08635800  0.38720200  1
  C  289  1  0.46395500  0.07363600  0.38546700  1
  C  290  1  0.43801600  0.99774400  0.38200500  1
  C  297  1  0.67689400  0.03572500  0.38645300  1
  C  299  1  0.36327600  0.97169300  0.37880900  1
  C  1201  1  0.51501200  0.46927800  0.21085600  1
  C  1202  1  0.59606200  0.46588800  0.21095200  1
  C  1203  1  0.60087600  0.46901800  0.17493700  1
  C  1204  1  0.51994600  0.46971800  0.17364400  1
  C  1205  1  0.48720100  0.47107300  0.15484800  1
  C  1206  1  0.53244200  0.47132600  0.13795100  1
  C  1207  1  0.61255100  0.47440200  0.14024500  1
  C  1208  1  0.64619800  0.47179900  0.15831000  1
  C  1209  1  0.63679900  0.46364100  0.22833000  1
  C  1210  1  0.59844000  0.46514600  0.24581800  1
  C  1211  1  0.51802400  0.46792500  0.24663000  1
  C  1212  1  0.47734400  0.47121600  0.22905400  1
  C  1213  1  0.42734500  0.54539600  0.19142800  1
  C  1214  1  0.34634700  0.54390700  0.19055600  1
  C  1215  1  0.34455000  0.39950300  0.19101700  1
  C  1216  1  0.42558600  0.39609300  0.19151800  1
  C  1217  1  0.30062100  0.33189300  0.19094900  1
  C  1218  1  0.33564200  0.26016800  0.19134100  1
  C  1219  1  0.41564400  0.25322200  0.19168500  1
  C  1220  1  0.45990200  0.32150900  0.19178300  1
  C  1221  1  0.46338300  0.61913400  0.19150800  1
  C  1222  1  0.42142700  0.68888100  0.19094000  1
  C  1223  1  0.34118300  0.68329500  0.18939500  1
  C  1224  1  0.30428200  0.61250800  0.18950000  1
  C  1237  1  0.47192300  0.47019400  0.19186900  1
  C  1238  1  0.30175700  0.47223000  0.19043400  1
  C  1241  1  0.64221300  0.46612300  0.19330500  1
  C  1248  1  0.48396700  0.50281300  0.70973400  1
  C  1249  1  0.49150900  0.58354100  0.70907800  1
  C  1250  1  0.49152200  0.58281500  0.67297000  1
  C  1251  1  0.48415900  0.50206500  0.67253600  1
  C  1252  1  0.47924400  0.46640300  0.65413100  1
  C  1253  1  0.48263300  0.50855700  0.63678900  1
  C  1254  1  0.48913300  0.58867900  0.63809000  1
  C  1255  1  0.49421500  0.62510800  0.65581900  1
  C  1256  1  0.49467700  0.62654900  0.72610800  1
  C  1257  1  0.49030500  0.59083500  0.74393200  1
  C  1258  1  0.48388800  0.51077800  0.74544900  1
  C  1259  1  0.47964700  0.46786200  0.72823700  1
  C  1260  1  0.40701700  0.41276700  0.69117300  1
  C  1261  1  0.40817700  0.33167700  0.69105900  1
  C  1262  1  0.55260700  0.32914700  0.69154300  1
  C  1263  1  0.55638800  0.41016300  0.69131300  1
  C  1264  1  0.62003500  0.28494700  0.69189600  1
  C  1265  1  0.69194300  0.31967700  0.69200300  1
  C  1266  1  0.69927400  0.39964400  0.69164600  1
  C  1267  1  0.63116700  0.44412700  0.69131600  1
  C  1268  1  0.33339767  0.44915500  0.69091800  1
  C  1269  1  0.26352700  0.40740700  0.69076600  1
  C  1270  1  0.26879300  0.32696200  0.68995700  1
  C  1271  1  0.33940500  0.28979400  0.69039100  1
  C  1284  1  0.48251300  0.45690800  0.69119300  1
  C  1285  1  0.47964400  0.28671700  0.69133500  1
  C  1288  1  0.49626200  0.62672100  0.69096800  1
  C  1295  1  0.43198100  0.46433100  0.92326000  1
  C  1296  1  0.35096000  0.46198600  0.92386500  1
  C  1297  1  0.35096200  0.46446800  0.95993100  1
  C  1298  1  0.43201500  0.46524200  0.96045800  1
  C  1299  1  0.46745900  0.46519200  0.97891800  1
  C  1300  1  0.42482200  0.46569100  0.99621700  1
  C  1301  1  0.34446300  0.46344500  0.99479300  1
  C  1302  1  0.30817800  0.46358500  0.97701100  1
  C  1303  1  0.30812100  0.45734900  0.90684500  1
  C  1304  1  0.34428100  0.45519100  0.88906300  1
  C  1305  1  0.42455700  0.46009500  0.88747500  1
  C  1306  1  0.46725700  0.46327800  0.90476400  1
  C  1307  1  0.52226400  0.54082000  0.94187000  1
  C  1308  1  0.60334200  0.53936300  0.94212900  1
  C  1309  1  0.60517100  0.39498900  0.94177300  1
  C  1310  1  0.52410900  0.39151900  0.94189600  1
  C  1311  1  0.64915000  0.32742300  0.94155200  1
  C  1312  1  0.61415500  0.25567500  0.94145600  1
  C  1313  1  0.53415200  0.24869200  0.94170600  1
  C  1314  1  0.48983700  0.31692400  0.94192400  1
  C  1315  1  0.48627900  0.61458900  0.94206600  1
  C  1316  1  0.52831500  0.68433900  0.94233700  1
  C  1317  1  0.60871300  0.67873900  0.94324400  1
  C  1318  1  0.64554600  0.60794900  0.94284700  1
  C  1331  1  0.47764300  0.46559200  0.94185600  1
  C  1332  1  0.64797100  0.46772600  0.94197200  1
  C  1335  1  0.30717100  0.46263900  0.94190600  1
  C  1342  1  0.46715000  0.51325700  0.42430700  1
  C  1343  1  0.46312900  0.59421300  0.42483400  1
  C  1344  1  0.46588600  0.59483800  0.46089000  1
  C  1345  1  0.46866000  0.51378800  0.46156700  1
  C  1346  1  0.47069400  0.47884900  0.48011600  1
  C  1347  1  0.46980900  0.52259300  0.49725500  1
  C  1348  1  0.46669400  0.60259200  0.49572500  1
  C  1349  1  0.46499700  0.63821300  0.47787700  1
  C  1350  1  0.45752700  0.63678500  0.40779000  1
  C  1351  1  0.45604400  0.60040100  0.39004000  1
  C  1352  1  0.46271600  0.52024200  0.38849600  1
  C  1353  1  0.46663300  0.47778000  0.40582400  1
  C  1354  1  0.54424400  0.42348800  0.44294100  1
  C  1355  1  0.54286800  0.34241300  0.44325000  1
  C  1356  1  0.39847900  0.34039100  0.44303400  1
  C  1357  1  0.39494100  0.42144100  0.44312300  1
  C  1358  1  0.33093800  0.29636100  0.44284400  1
  C  1359  1  0.25915700  0.33130300  0.44270700  1
  C  1360  1  0.25209100  0.41130100  0.44289600  1
  C  1361  1  0.32030200  0.45564800  0.44311000  1
  C  1362  1  0.61795900  0.45958100  0.44305000  1
  C  1363  1  0.68777800  0.41764000  0.44326100  1
  C  1364  1  0.68226100  0.33724300  0.44422900  1
  C  1365  1  0.61151500  0.30030900  0.44393000  1
  C  1378  1  0.46895600  0.46796400  0.44297900  1
  C  1379  1  0.47127650  0.29769000  0.44319400  1
  C  1382  1  0.46273300  0.63824600  0.44282100  1
  C  1389  1  0.47615500  0.44540000  0.29718300  1
  C  1390  1  0.46493500  0.38776400  0.31108800  1
  C  1391  1  0.46550400  0.40467600  0.33097600  1
  C  1392  1  0.47827900  0.48184100  0.33662700  1
  C  1399  1  0.49354300  0.42794300  0.27821500  1
  C  1401  1  0.48790400  0.51151000  0.35508800  1
  C  1403  1  0.50303600  0.47228100  0.79636000  1
  C  1404  1  0.56014500  0.46256300  0.81047200  1
  C  1405  1  0.54220000  0.46332700  0.83029900  1
  C  1406  1  0.46445100  0.47434500  0.83567000  1
  C  1413  1  0.52121900  0.48879000  0.77738300  1
  C  1415  1  0.43388000  0.48440700  0.85401300  1
  C  1417  1  0.50810300  0.45154600  0.08622760  1
  C  1418  1  0.56180900  0.43819200  0.07145760  1
  C  1419  1  0.54402300  0.45202000  0.05197760  1
  C  1420  1  0.46902000  0.47808000  0.04756660  1
  C  1427  1  0.52774000  0.43793500  0.10525900  1
  C  1429  1  0.43817600  0.49292100  0.02948260  1
  C  1431  1  0.49453700  0.46570500  0.58594100  1
  C  1432  1  0.42824200  0.49388300  0.57684600  1
  C  1433  1  0.41781100  0.48567500  0.55680900  1
  C  1434  1  0.47630500  0.44848300  0.54608400  1
  C  1441  1  0.51481300  0.48641400  0.60445300  1
  C  1443  1  0.47746600  0.43955000  0.52624600  1
  C  1445  1  0.48692800  0.05536720  0.19230400  1
  C  1446  1  0.54733300  0.00199821  0.19052500  1
  C  1447  1  0.53433700  0.92182300  0.19212700  1
  C  1448  1  0.45827600  0.89603100  0.19544100  1
  C  1455  1  0.49703300  0.13489720  0.19132700  1
  C  1457  1  0.43177100  0.82127100  0.19838700  1
  C  1459  1  0.89694200  0.47170600  0.69170900  1
  C  1460  1  0.94986500  0.53235800  0.68962500  1
  C  1461  1  0.03012420  0.52012200  0.69133200  1
  C  1462  1  0.05647420  0.44456100  0.69504000  1
  C  1469  1  0.81732700  0.48109400  0.69065600  1
  C  1471  1  0.13136620  0.41904500  0.69827600  1
  C  1473  1  0.46284500  0.05090520  0.94157600  1
  C  1474  1  0.40255100  0.99756500  0.94361500  1
  C  1475  1  0.41537200  0.91740600  0.94190300  1
  C  1476  1  0.49115200  0.89159400  0.93822400  1
  C  1483  1  0.45284100  0.13042220  0.94262000  1
  C  1485  1  0.51726900  0.81686100  0.93504400  1
  C  1487  1  0.05432920  0.48282300  0.44250700  1
  C  1488  1  0.00109822  0.54333200  0.44432400  1
  C  1489  1  0.92092900  0.53061000  0.44258900  1
  C  1490  1  0.89499000  0.45471800  0.43912700  1
  C  1497  1  0.13386820  0.49269900  0.44357500  1
  C  1499  1  0.82025000  0.42866700  0.43593100  1
  H  25  1  0.85129000  0.27435400  0.13089000  1
  H  26  1  0.78886700  0.15449900  0.13137200  1
  H  27  1  0.78512500  0.87735600  0.13348500  1
  H  28  1  0.84449700  0.75556900  0.13415400  1
  H  29  1  0.06112000  0.85980500  0.13502200  1
  H  30  1  0.06473000  0.16515400  0.13487300  1
  H  31  1  0.97207500  0.01470500  0.09630100  1
  H  32  1  0.19084900  0.02145100  0.07149600  1
  H  33  1  0.24768900  0.01593300  0.10210200  1
  H  34  1  0.96209000  0.01786900  0.17241000  1
  H  35  1  0.23838700  0.00509400  0.17128300  1
  H  36  1  0.17326100  0.00845900  0.20098700  1
  H  39  1  0.80645300  0.01649200  0.14566300  1
  H  40  1  0.80983700  0.01490000  0.12034200  1
  H  42  1  0.22047800  0.95747700  0.13616700  1
  H  43  1  0.22323600  0.05878700  0.13680500  1
  H  72  1  0.76365500  0.83707500  0.63175900  1
  H  73  1  0.88320200  0.77426400  0.63280000  1
  H  74  1  0.16035300  0.76945700  0.63495700  1
  H  75  1  0.28244300  0.82834300  0.63514400  1
  H  76  1  0.17925300  0.04532500  0.63404000  1
  H  77  1  0.87380300  0.05055200  0.63373100  1
  H  78  1  0.01602600  0.95142100  0.59620000  1
  H  79  1  0.03200200  0.16470900  0.56888300  1
  H  80  1  0.04171300  0.22653000  0.59898200  1
  H  81  1  0.01667400  0.95289800  0.67209300  1
  H  82  1  0.04245000  0.22793600  0.66854600  1
  H  83  1  0.03405400  0.16732500  0.69881700  1
  H  86  1  0.02123600  0.79320700  0.64689800  1
  H  87  1  0.02285500  0.79296300  0.62156500  1
  H  89  1  0.09349200  0.20092100  0.63380000  1
  H  90  1  0.99270700  0.21149100  0.63379900  1
  H  119  1  0.18484000  0.26977300  0.88726100  1
  H  120  1  0.24711400  0.14992500  0.88629200  1
  H  121  1  0.25071300  0.87292800  0.88432500  1
  H  122  1  0.19137500  0.75109600  0.88415700  1
  H  123  1  0.97465700  0.85517400  0.88487500  1
  H  124  1  0.97095500  0.16063500  0.88492400  1
  H  125  1  0.06882800  0.00782700  0.92267000  1
  H  126  1  0.85421500  0.00320600  0.94966700  1
  H  127  1  0.79267200  0.00471900  0.91951900  1
  H  128  1  0.06860700  0.00751300  0.84674100  1
  H  129  1  0.79267100  0.99713300  0.85014800  1
  H  130  1  0.85381200  0.99221100  0.82005600  1
  H  133  1  0.22781400  0.01184900  0.87221300  1
  H  134  1  0.22749800  0.01057100  0.89754900  1
  H  136  1  0.81439900  0.95437500  0.88503100  1
  H  137  1  0.81270000  0.05570100  0.88455300  1
  H  166  1  0.27334300  0.84722500  0.38822800  1
  H  167  1  0.15357700  0.78479600  0.38740200  1
  H  168  1  0.87649200  0.78085650  0.38563500  1
  H  169  1  0.75460500  0.84009650  0.38540700  1
  H  170  1  0.85849300  0.05687300  0.38599800  1
  H  171  1  0.16390400  0.06096700  0.38588500  1
  H  172  1  0.01540500  0.96364400  0.42405400  1
  H  173  1  0.00867100  0.17932400  0.45058800  1
  H  174  1  0.00569200  0.23974900  0.42027200  1
  H  175  1  0.01189200  0.96250800  0.34783800  1
  H  176  1  0.99597200  0.23820200  0.35105400  1
  H  177  1  0.99229700  0.17668300  0.32101300  1
  H  180  1  0.01526200  0.80377000  0.37345700  1
  H  181  1  0.01434500  0.80434200  0.39879500  1
  H  183  1  0.95356100  0.21573900  0.38594200  1
  H  184  1  0.05481900  0.22004100  0.38539200  1
  H  196  1  0.99251200  0.83699700  0.28211100  1
  H  197  1  0.00262700  0.89705000  0.30013800  1
  H  198  1  0.00274700  0.87520100  0.24958000  1
  H  200  1  0.06667500  0.92340300  0.21896900  1
  H  202  1  0.06153500  0.10245600  0.29864600  1
  H  210  1  0.19585300  0.99328900  0.78181900  1
  H  211  1  0.13463600  0.00243900  0.79963400  1
  H  212  1  0.15908700  0.00137600  0.74916000  1
  H  214  1  0.11282400  0.06022800  0.71808900  1
  H  216  1  0.92900900  0.05810100  0.79740200  1
  H  224  1  0.19387600  0.96818500  0.98525100  1
  H  225  1  0.13559800  0.99812900  0.96829900  1
  H  226  1  0.15854700  0.96255900  0.01783400  1
  H  228  1  0.11285100  0.94351100  0.05020400  1
  H  230  1  0.93606700  0.07057100  0.97205100  1
  H  238  1  0.85696100  0.08182500  0.49921700  1
  H  239  1  0.88531300  0.05038500  0.47806800  1
  H  240  1  0.93171600  0.06633200  0.52761500  1
  H  242  1  0.10550300  0.06007600  0.54858000  1
  H  244  1  0.03254500  0.93200500  0.46346500  1
  H  252  1  0.18942700  0.43541400  0.13184000  1
  H  253  1  0.13203600  0.36171000  0.13551800  1
  H  254  1  0.14468800  0.56480600  0.13119800  1
  H  256  1  0.09207900  0.69984700  0.13280800  1
  H  258  1  0.92921000  0.36005700  0.14972900  1
  H  266  1  0.60188600  0.17511800  0.63048700  1
  H  267  1  0.67594900  0.11847500  0.63446300  1
  H  268  1  0.47271300  0.12936900  0.63001000  1
  H  270  1  0.33808600  0.07581100  0.63176700  1
  H  272  1  0.67885500  0.91803500  0.65010800  1
  H  280  1  0.84657900  0.43101900  0.88845700  1
  H  281  1  0.90365500  0.35731700  0.88448000  1
  H  282  1  0.89143300  0.56039000  0.88896100  1
  H  284  1  0.94399900  0.69539100  0.88719300  1
  H  286  1  0.10498100  0.35575100  0.86916100  1
  H  294  1  0.43467700  0.18565900  0.38881500  1
  H  295  1  0.36091100  0.12850100  0.38497500  1
  H  296  1  0.56401400  0.14058400  0.38950400  1
  H  298  1  0.69891100  0.08761400  0.38804300  1
  H  300  1  0.35912600  0.92700700  0.37005200  1
  H  1225  1  0.30826400  0.73132800  0.18801200  1
  H  1226  1  0.24584100  0.61147300  0.18849400  1
  H  1227  1  0.24209900  0.33433000  0.19060700  1
  H  1228  1  0.30147100  0.21254300  0.19127600  1
  H  1229  1  0.51809400  0.31677900  0.19214400  1
  H  1230  1  0.52170400  0.62212800  0.19199500  1
  H  1231  1  0.42904900  0.47167900  0.15342300  1
  H  1232  1  0.64782300  0.47842500  0.12861800  1
  H  1233  1  0.70466300  0.47290700  0.15922400  1
  H  1234  1  0.41906400  0.47484300  0.22953200  1
  H  1235  1  0.69536100  0.46206800  0.22840500  1
  H  1236  1  0.63023500  0.46543300  0.25810900  1
  H  1239  1  0.26342700  0.47346600  0.20278500  1
  H  1240  1  0.26681100  0.47187400  0.17746400  1
  H  1242  1  0.67745200  0.41445100  0.19328900  1
  H  1243  1  0.68021000  0.51576100  0.19392700  1
  H  1272  1  0.22062900  0.29404900  0.68888100  1
  H  1273  1  0.34017600  0.23123800  0.68992200  1
  H  1274  1  0.61732700  0.22643100  0.69207900  1
  H  1275  1  0.73941700  0.28531700  0.69226600  1
  H  1276  1  0.63622700  0.50229900  0.69116200  1
  H  1277  1  0.33077700  0.50752600  0.69085300  1
  H  1278  1  0.47300000  0.40839500  0.65332200  1
  H  1279  1  0.48897600  0.62168300  0.62600500  1
  H  1280  1  0.49868700  0.68350400  0.65610400  1
  H  1281  1  0.47364800  0.40987200  0.72921500  1
  H  1282  1  0.49942400  0.68491000  0.72566800  1
  H  1283  1  0.49102800  0.62429900  0.75593900  1
  H  1286  1  0.47821000  0.25018100  0.70402000  1
  H  1287  1  0.47982900  0.24993700  0.67868700  1
  H  1289  1  0.55046600  0.65789500  0.69092200  1
  H  1290  1  0.44968100  0.66846500  0.69092100  1
  H  1319  1  0.64181400  0.72674700  0.94438300  1
  H  1320  1  0.70408800  0.60689900  0.94341400  1
  H  1321  1  0.70768700  0.32990200  0.94144700  1
  H  1322  1  0.64834900  0.20807000  0.94127900  1
  H  1323  1  0.43163100  0.31214800  0.94199700  1
  H  1324  1  0.42792900  0.61760900  0.94204600  1
  H  1325  1  0.52580200  0.46480100  0.97979200  1
  H  1326  1  0.31118900  0.46018000  0.00678864  1
  H  1327  1  0.24964600  0.46169300  0.97664100  1
  H  1328  1  0.52558100  0.46448700  0.90386300  1
  H  1329  1  0.24964500  0.45410700  0.90727000  1
  H  1330  1  0.31078600  0.44918500  0.87717800  1
  H  1333  1  0.68478800  0.46882300  0.92933500  1
  H  1334  1  0.68447200  0.46754500  0.95467100  1
  H  1336  1  0.27137300  0.41134900  0.94215300  1
  H  1337  1  0.26967400  0.51267500  0.94167500  1
  H  1366  1  0.73031700  0.30419900  0.44535000  1
  H  1367  1  0.61055100  0.24177000  0.44452400  1
  H  1368  1  0.33340067  0.23783050  0.44275700  1
  H  1369  1  0.21157900  0.29707050  0.44252900  1
  H  1370  1  0.31546700  0.51384700  0.44312000  1
  H  1371  1  0.62087800  0.51794100  0.44300700  1
  H  1372  1  0.47237900  0.42061800  0.48117600  1
  H  1373  1  0.46564500  0.63629800  0.50771000  1
  H  1374  1  0.46266600  0.69672300  0.47739400  1
  H  1375  1  0.46886600  0.41948200  0.40496000  1
  H  1376  1  0.45294600  0.69517600  0.40817600  1
  H  1377  1  0.44927100  0.63365700  0.37813500  1
  H  1380  1  0.47223600  0.26074400  0.43057900  1
  H  1381  1  0.47131900  0.26131600  0.45591700  1
  H  1383  1  0.41053500  0.67271300  0.44306400  1
  H  1384  1  0.51179300  0.67701500  0.44251400  1
  H  1396  1  0.44948600  0.29397100  0.33923300  1
  H  1397  1  0.45960100  0.35402400  0.35726000  1
  H  1398  1  0.45972100  0.33217500  0.30670200  1
  H  1400  1  0.52364900  0.38037700  0.27609100  1
  H  1402  1  0.51850900  0.55943000  0.35576800  1
  H  1410  1  0.65282700  0.45026300  0.83894100  1
  H  1411  1  0.59161000  0.45941300  0.85675600  1
  H  1412  1  0.61606100  0.45835000  0.80628200  1
  H  1414  1  0.56979800  0.51720200  0.77521100  1
  H  1416  1  0.38598300  0.51507500  0.85452400  1
  H  1424  1  0.65085000  0.42515900  0.04237260  1
  H  1425  1  0.59257200  0.45510300  0.02542060  1
  H  1426  1  0.61552100  0.41953300  0.07495560  1
  H  1428  1  0.56982500  0.40048500  0.10732600  1
  H  1430  1  0.39304100  0.52754500  0.02917260  1
  H  1438  1  0.31393500  0.53879900  0.55633900  1
  H  1439  1  0.34228700  0.50735900  0.53519000  1
  H  1440  1  0.38869000  0.52330600  0.58473700  1
  H  1442  1  0.56247700  0.51705000  0.60570200  1
  H  1444  1  0.48951900  0.38897900  0.52058700  1
  H  1452  1  0.64640100  0.89238800  0.18896200  1
  H  1453  1  0.58901000  0.81868400  0.19264000  1
  H  1454  1  0.60166200  0.02178020  0.18832000  1
  H  1456  1  0.54905300  0.15682120  0.18993000  1
  H  1458  1  0.38618400  0.81703100  0.20685100  1
  H  1466  1  0.05886020  0.63209200  0.68760900  1
  H  1467  1  0.13292320  0.57544900  0.69158500  1
  H  1468  1  0.92968700  0.58634300  0.68713200  1
  H  1470  1  0.79506000  0.53278500  0.68888900  1
  H  1472  1  0.13582920  0.37500900  0.70723000  1
  H  1480  1  0.30355300  0.88799300  0.94557900  1
  H  1481  1  0.36062900  0.81429100  0.94160200  1
  H  1482  1  0.34840700  0.01736421  0.94608300  1
  H  1484  1  0.40097300  0.15236520  0.94431500  1
  H  1486  1  0.56195500  0.81272500  0.92628300  1
  H  1494  1  0.89165100  0.64263300  0.44593700  1
  H  1495  1  0.81788500  0.58547500  0.44209700  1
  H  1496  1  0.02098820  0.59755800  0.44662600  1
  H  1498  1  0.15588520  0.54458800  0.44516500  1
  H  1500  1  0.81610000  0.38398100  0.42717400  1
  N  44  1  0.98254400  0.72361500  0.13487900  1
  N  45  1  0.02951200  0.01825500  0.20697900  1
  N  46  1  0.04670400  0.01873500  0.06289500  1
  N  47  1  0.99724700  0.30208100  0.13287400  1
  N  91  1  0.31502100  0.96641000  0.63465700  1
  N  92  1  0.01776400  0.02448800  0.70598900  1
  N  93  1  0.01471900  0.02097500  0.56220400  1
  N  94  1  0.73636700  0.98310400  0.63242100  1
  N  138  1  0.05331800  0.71909700  0.88444700  1
  N  139  1  0.00078700  0.99883900  0.81290500  1
  N  140  1  0.00090300  0.00358300  0.95646000  1
  N  141  1  0.03871800  0.29757300  0.88641600  1
  N  185  1  0.72247500  0.97817100  0.38554800  1
  N  186  1  0.00192800  0.03018500  0.31389600  1
  N  187  1  0.01335000  0.04110000  0.45820100  1
  N  188  1  0.30101300  0.99331300  0.38732000  1
  N  193  1  0.03120000  0.07642100  0.26507300  1
  N  194  1  0.03093000  0.06011000  0.24681700  1
  N  195  1  0.00012100  0.88928200  0.28646900  1
  N  207  1  0.95648600  0.02592700  0.76393900  1
  N  208  1  0.97377000  0.02558700  0.74573600  1
  N  209  1  0.14316900  0.99972100  0.78599500  1
  N  221  1  0.96415900  0.03275200  0.00559700  1
  N  222  1  0.98167400  0.02095300  0.02358800  1
  N  223  1  0.14270300  0.98431700  0.98156200  1
  N  235  1  0.08168300  0.96693700  0.49882700  1
  N  236  1  0.09067900  0.97576100  0.51730000  1
  N  237  1  0.89613300  0.05686300  0.49156100  1
  N  249  1  0.94683400  0.49449500  0.13972800  1
  N  250  1  0.95959200  0.56796300  0.13827400  1
  N  251  1  0.13777100  0.41636300  0.13381200  1
  N  263  1  0.54447900  0.93283700  0.63962800  1
  N  264  1  0.47092400  0.94489500  0.63807700  1
  N  265  1  0.62125300  0.12376100  0.63273600  1
  N  277  1  0.08856800  0.49003300  0.87945000  1
  N  278  1  0.07596800  0.56349100  0.88100500  1
  N  279  1  0.89806800  0.41196400  0.88623000  1
  N  291  1  0.49331600  0.94314900  0.38055400  1
  N  292  1  0.56679000  0.95566200  0.38212600  1
  N  293  1  0.41558300  0.13412700  0.38667800  1
  N  1244  1  0.43951800  0.18058920  0.19200100  1
  N  1245  1  0.48648600  0.47522900  0.26410100  1
  N  1246  1  0.50367800  0.47570900  0.12001700  1
  N  1247  1  0.45422100  0.75905500  0.18999600  1
  N  1291  1  0.77199500  0.42338400  0.69177900  1
  N  1292  1  0.47473800  0.48146200  0.76311100  1
  N  1293  1  0.47169300  0.47794900  0.61932600  1
  N  1294  1  0.19334120  0.44007800  0.68954300  1
  N  1338  1  0.51029200  0.17607120  0.94156900  1
  N  1339  1  0.45776100  0.45581300  0.87002700  1
  N  1340  1  0.45787700  0.46055700  0.01358160  1
  N  1341  1  0.49569200  0.75454700  0.94353800  1
  N  1385  1  0.17944920  0.43514500  0.44267000  1
  N  1386  1  0.45890200  0.48715900  0.37101800  1
  N  1387  1  0.47032400  0.49807400  0.51532300  1
  N  1388  1  0.75798700  0.45028700  0.44444200  1
  N  1393  1  0.48817400  0.53339500  0.32219500  1
  N  1394  1  0.48790400  0.51708400  0.30393900  1
  N  1395  1  0.45709500  0.34625600  0.34359100  1
  N  1407  1  0.41346000  0.48290100  0.82106100  1
  N  1408  1  0.43074400  0.48256100  0.80285800  1
  N  1409  1  0.60014300  0.45669500  0.84311700  1
  N  1421  1  0.42113300  0.48972600  0.06271860  1
  N  1422  1  0.43864800  0.47792700  0.08070960  1
  N  1423  1  0.59967700  0.44129100  0.03868360  1
  N  1435  1  0.53865700  0.42391100  0.55594900  1
  N  1436  1  0.54765300  0.43273500  0.57442200  1
  N  1437  1  0.35310700  0.51383700  0.54868300  1
  N  1449  1  0.40380800  0.95146900  0.19685000  1
  N  1450  1  0.41656600  0.02493720  0.19539600  1
  N  1451  1  0.59474500  0.87333700  0.19093400  1
  N  1463  1  0.00145322  0.38981100  0.69675000  1
  N  1464  1  0.92789800  0.40186900  0.69519900  1
  N  1465  1  0.07822720  0.58073500  0.68985800  1
  N  1477  1  0.54554200  0.94700700  0.93657200  1
  N  1478  1  0.53294200  0.02046520  0.93812700  1
  N  1479  1  0.35504200  0.86893800  0.94335200  1
  N  1491  1  0.95029000  0.40012300  0.43767600  1
  N  1492  1  0.02376420  0.41263600  0.43924800  1
  N  1493  1  0.87255700  0.59110100  0.44380000  1
