# generated using pymatgen
data_Cr6H20C43O26
_symmetry_space_group_name_H-M   'P 1'
_cell_length_a   10.63666000
_cell_length_b   10.65411000
_cell_length_c   16.87917000
_cell_angle_alpha   81.04437000
_cell_angle_beta   81.02849000
_cell_angle_gamma   61.62430000
_symmetry_Int_Tables_number   1
_chemical_formula_structural   Cr6H20C43O26
_chemical_formula_sum   'Cr6 H20 C43 O26'
_cell_volume   1655.06706435
_cell_formula_units_Z   1
loop_
 _symmetry_equiv_pos_site_id
 _symmetry_equiv_pos_as_xyz
  1  'x, y, z'
loop_
 _atom_site_type_symbol
 _atom_site_label
 _atom_site_symmetry_multiplicity
 _atom_site_fract_x
 _atom_site_fract_y
 _atom_site_fract_z
 _atom_site_occupancy
  Cr  Cr0  1  0.61104000  0.60834000  0.47957000  1
  Cr  Cr1  1  0.60112000  0.28765000  0.51065000  1
  Cr  Cr2  1  0.28787000  0.60404000  0.50972000  1
  Cr  Cr3  1  0.05270000  0.05402000  0.02915000  1
  Cr  Cr4  1  0.37512000  0.05923000  0.00661000  1
  Cr  Cr5  1  0.06120000  0.37495000  0.00766000  1
  H  H6  1  0.26669000  0.67193000  0.75378000  1
  H  H7  1  0.07863000  0.21585000  0.77852000  1
  H  H8  1  0.91721000  0.10276000  0.71319000  1
  H  H9  1  0.69590000  0.22075000  0.83980000  1
  H  H10  1  0.46387000  0.46330000  0.26548000  1
  H  H11  1  0.20883000  0.57058000  0.19017000  1
  H  H12  1  0.08804000  0.45679000  0.32864000  1
  H  H13  1  0.45364000  0.09045000  0.33300000  1
  H  H14  1  0.57388000  0.20363000  0.19251000  1
  H  H15  1  0.07366000  0.94475000  0.80386000  1
  H  H16  1  0.16906000  0.06901000  0.65418000  1
  H  H17  1  0.37990000  0.07045000  0.74045000  1
  H  H18  1  0.57359000  0.79485000  0.69555000  1
  H  H19  1  0.47482000  0.67467000  0.83947000  1
  H  H20  1  0.56994000  0.47500000  0.73640000  1
  H  H21  1  0.73064000  0.58361000  0.80038000  1
  H  H22  1  0.95312000  0.46387000  0.67343000  1
  H  H23  1  0.15066000  0.14107000  0.32490000  1
  H  H24  1  0.07557000  0.24826000  0.23408000  1
  H  H25  1  0.23998000  0.08415000  0.22706000  1
  C  C26  1  0.77521000  0.35474000  0.60142000  1
  C  C27  1  0.29154000  0.76252000  0.75196000  1
  C  C28  1  0.34235000  0.83159000  0.67583000  1
  C  C29  1  0.23622000  0.98199000  0.69770000  1
  C  C30  1  0.35300000  0.98165000  0.74236000  1
  C  C31  1  0.45975000  0.82994000  0.71946000  1
  C  C32  1  0.40768000  0.76251000  0.79634000  1
  C  C33  1  0.30161000  0.91365000  0.81833000  1
  C  C34  1  0.77241000  0.47572000  0.77980000  1
  C  C35  1  0.68512000  0.41563000  0.74734000  1
  C  C36  1  0.80930000  0.34860000  0.68184000  1
  C  C37  1  0.34702000  0.37116000  0.64140000  1
  C  C38  1  0.89456000  0.41053000  0.71217000  1
  C  C39  1  0.96417000  0.26994000  0.76678000  1
  C  C40  1  0.87757000  0.20908000  0.73533000  1
  C  C41  1  0.75467000  0.27452000  0.80170000  1
  C  C42  1  0.84093000  0.33452000  0.83293000  1
  C  C43  1  0.26279000  0.46258000  0.22297000  1
  C  C44  1  0.40429000  0.40285000  0.26222000  1
  C  C45  1  0.33792000  0.34096000  0.33541000  1
  C  C46  1  0.19731000  0.40139000  0.29724000  1
  C  C47  1  0.25947000  0.25891000  0.26034000  1
  C  C48  1  0.37674000  0.77705000  0.59809000  1
  C  C49  1  0.40032000  0.19790000  0.29954000  1
  C  C50  1  0.46509000  0.25946000  0.22430000  1
  C  C51  1  0.32359000  0.31994000  0.18618000  1
  C  C52  1  0.36973000  0.76496000  0.28386000  1
  C  C53  1  0.33202000  0.80836000  0.21689000  1
  C  C54  1  0.76206000  0.35915000  0.28503000  1
  C  C55  1  0.80708000  0.32790000  0.21709000  1
  C  C56  1  0.28492000  0.95838000  0.89743000  1
  C  C57  1  0.30076000  0.32018000  0.88026000  1
  C  C58  1  0.88503000  0.29831000  0.91369000  1
  C  C59  1  0.71527000  0.37983000  0.36841000  1
  C  C60  1  0.30358000  0.87542000  0.13685000  1
  C  C61  1  0.29471000  0.30863000  0.10760000  1
  C  C62  1  0.87754000  0.28355000  0.13941000  1
  C  C63  1  0.34661000  0.36813000  0.41425000  1
  C  C64  1  0.41130000  0.71723000  0.36436000  1
  C  C65  1  0.33770000  0.34623000  0.72530000  1
  C  C66  1  0.32834000  0.33423000  0.79663000  1
  C  C67  1  0.18432000  0.91430000  0.77560000  1
  C  C68  1  0.17569000  0.17716000  0.26189000  1
  O  O69  1  0.49923000  0.75122000  0.56483000  1
  O  O70  1  0.46908000  0.29788000  0.43995000  1
  O  O71  1  0.25459000  0.48972000  0.43519000  1
  O  O72  1  0.30423000  0.72522000  0.41492000  1
  O  O73  1  0.50001000  0.50001000  0.49998000  1
  O  O74  1  0.91388000  0.17183000  0.94249000  1
  O  O75  1  0.18605000  0.94069000  0.94527000  1
  O  O76  1  0.40572000  0.92047000  0.92499000  1
  O  O77  1  0.37046000  0.19669000  0.91588000  1
  O  O78  1  0.18075000  0.41299000  0.90839000  1
  O  O79  1  0.94313000  0.36662000  0.93424000  1
  O  O80  1  0.72760000  0.47722000  0.56313000  1
  O  O81  1  0.90633000  0.16051000  0.12079000  1
  O  O82  1  0.17905000  0.93019000  0.11055000  1
  O  O83  1  0.39817000  0.90914000  0.10329000  1
  O  O84  1  0.36346000  0.18619000  0.08117000  1
  O  O85  1  0.17320000  0.40167000  0.08669000  1
  O  O86  1  0.93613000  0.35612000  0.09953000  1
  O  O87  1  0.16301000  0.16274000  0.01447000  1
  O  O88  1  0.74512000  0.25865000  0.58853000  1
  O  O89  1  0.46724000  0.29707000  0.60404000  1
  O  O90  1  0.25261000  0.48883000  0.61221000  1
  O  O91  1  0.30239000  0.72440000  0.57902000  1
  O  O92  1  0.50121000  0.75210000  0.38781000  1
  O  O93  1  0.72944000  0.47804000  0.39903000  1
  O  O94  1  0.74711000  0.25953000  0.41151000  1
