# generated using pymatgen
data_CdH3(C3O2)3
_symmetry_space_group_name_H-M   'P 1'
_cell_length_a   10.35299000
_cell_length_b   12.36673000
_cell_length_c   14.11907000
_cell_angle_alpha   89.91159000
_cell_angle_beta   89.93641000
_cell_angle_gamma   91.56918000
_symmetry_Int_Tables_number   1
_chemical_formula_structural   CdH3(C3O2)3
_chemical_formula_sum   'Cd4 H12 C36 O24'
_cell_volume   1807.02043574
_cell_formula_units_Z   4
loop_
 _symmetry_equiv_pos_site_id
 _symmetry_equiv_pos_as_xyz
  1  'x, y, z'
loop_
 _atom_site_type_symbol
 _atom_site_label
 _atom_site_symmetry_multiplicity
 _atom_site_fract_x
 _atom_site_fract_y
 _atom_site_fract_z
 _atom_site_occupancy
  Cd  Cd0  1  0.84764000  0.07401000  0.58561000  1
  Cd  Cd1  1  0.65239000  0.42749000  0.08618000  1
  Cd  Cd2  1  0.15293000  0.92638000  0.41423000  1
  Cd  Cd3  1  0.34786000  0.57299000  0.91329000  1
  H  H4  1  0.56061000  0.32759000  0.70181000  1
  H  H5  1  0.36736000  0.09524000  0.51940000  1
  H  H6  1  0.14485000  0.31476000  0.68799000  1
  H  H7  1  0.93893000  0.16987000  0.20037000  1
  H  H8  1  0.13208000  0.40582000  0.02039000  1
  H  H9  1  0.35486000  0.18527000  0.18783000  1
  H  H10  1  0.43952000  0.67196000  0.29864000  1
  H  H11  1  0.63275000  0.90460000  0.48076000  1
  H  H12  1  0.85533000  0.68509000  0.31228000  1
  H  H13  1  0.06162000  0.83050000  0.79957000  1
  H  H14  1  0.86751000  0.59478000  0.97920000  1
  H  H15  1  0.64563000  0.81547000  0.81119000  1
  C  C16  1  0.35248000  0.33234000  0.70005000  1
  C  C17  1  0.47197000  0.29339000  0.67138000  1
  C  C18  1  0.47700000  0.20887000  0.60567000  1
  C  C19  1  0.36255000  0.16249000  0.56878000  1
  C  C20  1  0.24300000  0.20115000  0.59871000  1
  C  C21  1  0.23787000  0.28624000  0.66398000  1
  C  C22  1  0.34856000  0.41857000  0.77271000  1
  C  C23  1  0.60447000  0.16442000  0.58156000  1
  C  C24  1  0.11988000  0.14768000  0.56744000  1
  C  C25  1  0.14718000  0.16638000  0.19945000  1
  C  C26  1  0.02759000  0.20500000  0.17052000  1
  C  C27  1  0.02257000  0.29061000  0.10565000  1
  C  C28  1  0.13702000  0.33797000  0.06931000  1
  C  C29  1  0.25666000  0.29930000  0.09898000  1
  C  C30  1  0.26172000  0.21350000  0.16381000  1
  C  C31  1  0.15106000  0.07970000  0.27209000  1
  C  C32  1  0.89530000  0.33542000  0.08165000  1
  C  C33  1  0.37985000  0.35346000  0.06804000  1
  C  C34  1  0.64768000  0.66741000  0.30035000  1
  C  C35  1  0.52812000  0.70626000  0.32906000  1
  C  C36  1  0.52306000  0.79086000  0.39467000  1
  C  C37  1  0.63753000  0.83732000  0.43145000  1
  C  C38  1  0.75714000  0.79875000  0.40153000  1
  C  C39  1  0.76230000  0.71357000  0.33636000  1
  C  C40  1  0.65151000  0.58148000  0.22740000  1
  C  C41  1  0.39557000  0.83532000  0.41860000  1
  C  C42  1  0.88010000  0.85272000  0.43256000  1
  C  C43  1  0.85331000  0.83395000  0.80013000  1
  C  C44  1  0.97282000  0.79533000  0.82922000  1
  C  C45  1  0.97749000  0.70974000  0.89413000  1
  C  C46  1  0.86279000  0.66261000  0.93027000  1
  C  C47  1  0.74325000  0.70140000  0.90049000  1
  C  C48  1  0.73851000  0.78701000  0.83550000  1
  C  C49  1  0.84944000  0.92068000  0.72762000  1
  C  C50  1  0.10464000  0.66471000  0.91829000  1
  C  C51  1  0.62008000  0.64784000  0.93205000  1
  O  O52  1  0.24124000  0.44469000  0.81010000  1
  O  O53  1  0.45329000  0.46617000  0.79998000  1
  O  O54  1  0.70631000  0.20442000  0.62301000  1
  O  O55  1  0.61683000  0.08596000  0.52462000  1
  O  O56  1  0.11739000  0.05804000  0.52424000  1
  O  O57  1  0.01365000  0.19318000  0.58970000  1
  O  O58  1  0.25837000  0.05342000  0.30957000  1
  O  O59  1  0.04641000  0.03202000  0.29971000  1
  O  O60  1  0.79321000  0.29671000  0.12383000  1
  O  O61  1  0.88326000  0.41314000  0.02384000  1
  O  O62  1  0.38218000  0.44354000  0.02512000  1
  O  O63  1  0.48620000  0.30791000  0.08999000  1
  O  O64  1  0.75874000  0.55538000  0.18981000  1
  O  O65  1  0.54672000  0.53402000  0.20006000  1
  O  O66  1  0.29384000  0.79531000  0.37703000  1
  O  O67  1  0.38324000  0.91384000  0.47549000  1
  O  O68  1  0.88231000  0.94224000  0.47588000  1
  O  O69  1  0.98657000  0.80789000  0.40999000  1
  O  O70  1  0.74208000  0.94685000  0.69021000  1
  O  O71  1  0.95404000  0.96848000  0.70012000  1
  O  O72  1  0.20681000  0.70326000  0.87606000  1
  O  O73  1  0.11662000  0.58706000  0.97616000  1
  O  O74  1  0.61791000  0.55813000  0.97547000  1
  O  O75  1  0.51363000  0.69308000  0.91002000  1
