# generated using pymatgen
data_Co3H36C60N6O19
_symmetry_space_group_name_H-M   'P 1'
_cell_length_a   13.87534000
_cell_length_b   21.71828000
_cell_length_c   34.65848000
_cell_angle_alpha   89.95261000
_cell_angle_beta   84.78773000
_cell_angle_gamma   89.97632000
_symmetry_Int_Tables_number   1
_chemical_formula_structural   Co3H36C60N6O19
_chemical_formula_sum   'Co12 H144 C240 N24 O76'
_cell_volume   10401.09001593
_cell_formula_units_Z   4
loop_
 _symmetry_equiv_pos_site_id
 _symmetry_equiv_pos_as_xyz
  1  'x, y, z'
loop_
 _atom_site_type_symbol
 _atom_site_label
 _atom_site_symmetry_multiplicity
 _atom_site_fract_x
 _atom_site_fract_y
 _atom_site_fract_z
 _atom_site_occupancy
  Co  Co0  1  0.47567000  0.49303000  0.14587000  1
  Co  Co1  1  0.30554000  0.42545000  0.17962000  1
  Co  Co2  1  0.28578000  0.57484000  0.16425000  1
  Co  Co3  1  0.97419000  0.00659000  0.64560000  1
  Co  Co4  1  0.80312000  0.07408000  0.67967000  1
  Co  Co5  1  0.78501000  0.92485000  0.66421000  1
  Co  Co6  1  0.02579000  0.99308000  0.35412000  1
  Co  Co7  1  0.19647000  0.92544000  0.31976000  1
  Co  Co8  1  0.21473000  0.07499000  0.33562000  1
  Co  Co9  1  0.52470000  0.50654000  0.85401000  1
  Co  Co10  1  0.69468000  0.57473000  0.82022000  1
  Co  Co11  1  0.71460000  0.42534000  0.83584000  1
  H  H12  1  0.74210000  0.95957000  0.91120000  1
  H  H13  1  0.50751000  0.87839000  0.06386000  1
  H  H14  1  0.60844000  0.10163000  0.98534000  1
  H  H15  1  0.58835000  0.96540000  0.07569000  1
  H  H16  1  0.65889000  0.91051000  0.95711000  1
  H  H17  1  0.66622000  0.14581000  0.04295000  1
  H  H18  1  0.09661000  0.89267000  0.05682000  1
  H  H19  1  0.12326000  0.17148000  0.00610000  1
  H  H20  1  0.15637000  0.98113000  0.87912000  1
  H  H21  1  0.08189000  0.11579000  0.96575000  1
  H  H22  1  0.42245000  0.82480000  0.10944000  1
  H  H23  1  0.15269000  0.98452000  0.05168000  1
  H  H24  1  0.38913000  0.72647000  0.14509000  1
  H  H25  1  0.64645000  0.08454000  0.85216000  1
  H  H26  1  0.65478000  0.07672000  0.78007000  1
  H  H27  1  0.12474000  0.92519000  0.93494000  1
  H  H28  1  0.62869000  0.64126000  0.07825000  1
  H  H29  1  0.76251000  0.90114000  0.85724000  1
  H  H30  1  0.14375000  0.99051000  0.74469000  1
  H  H31  1  0.76994000  0.89374000  0.78526000  1
  H  H32  1  0.64832000  0.34380000  0.09021000  1
  H  H33  1  0.16305000  0.26979000  0.00571000  1
  H  H34  1  0.11212000  0.17184000  0.11378000  1
  H  H35  1  0.70106000  0.24420000  0.05927000  1
  H  H36  1  0.15680000  0.26663000  0.14909000  1
  H  H37  1  0.15274000  0.75494000  0.15125000  1
  H  H38  1  0.43367000  0.15989000  0.10519000  1
  H  H39  1  0.38227000  0.25945000  0.13622000  1
  H  H40  1  0.66589000  0.74061000  0.04351000  1
  H  H41  1  0.11479000  0.84858000  0.11400000  1
  H  H42  1  0.22319000  0.75894000  0.00777000  1
  H  H43  1  0.21115000  0.36296000  0.04147000  1
  H  H44  1  0.19986000  0.98217000  0.81092000  1
  H  H45  1  0.91993000  0.04450000  0.85994000  1
  H  H46  1  0.26172000  0.66529000  0.04564000  1
  H  H47  1  0.86773000  0.05644000  0.79404000  1
  H  H48  1  0.24052000  0.54097000  0.41130000  1
  H  H49  1  0.00745000  0.62154000  0.56329000  1
  H  H50  1  0.10677000  0.39859000  0.48572000  1
  H  H51  1  0.08874000  0.53473000  0.57598000  1
  H  H52  1  0.15883000  0.58966000  0.45736000  1
  H  H53  1  0.16469000  0.35392000  0.54308000  1
  H  H54  1  0.59741000  0.60699000  0.55710000  1
  H  H55  1  0.62148000  0.32765000  0.50606000  1
  H  H56  1  0.65650000  0.51907000  0.37918000  1
  H  H57  1  0.58075000  0.38408000  0.46617000  1
  H  H58  1  0.92262000  0.67507000  0.60925000  1
  H  H59  1  0.65380000  0.51525000  0.55172000  1
  H  H60  1  0.88932000  0.77313000  0.64511000  1
  H  H61  1  0.14605000  0.41549000  0.35254000  1
  H  H62  1  0.15490000  0.42254000  0.28043000  1
  H  H63  1  0.62462000  0.57439000  0.43493000  1
  H  H64  1  0.12846000  0.85876000  0.57835000  1
  H  H65  1  0.26195000  0.59871000  0.35703000  1
  H  H66  1  0.64313000  0.50921000  0.24474000  1
  H  H67  1  0.26999000  0.60578000  0.28506000  1
  H  H68  1  0.14473000  0.15585000  0.59012000  1
  H  H69  1  0.66398000  0.22999000  0.50529000  1
  H  H70  1  0.61397000  0.32643000  0.61394000  1
  H  H71  1  0.19919000  0.25579000  0.55977000  1
  H  H72  1  0.65794000  0.23098000  0.64869000  1
  H  H73  1  0.65210000  0.74439000  0.65123000  1
  H  H74  1  0.93248000  0.34089000  0.60581000  1
  H  H75  1  0.87964000  0.24103000  0.63617000  1
  H  H76  1  0.16563000  0.75958000  0.54350000  1
  H  H77  1  0.61488000  0.65113000  0.61381000  1
  H  H78  1  0.72352000  0.74122000  0.50777000  1
  H  H79  1  0.71178000  0.13607000  0.54069000  1
  H  H80  1  0.69929000  0.51892000  0.31090000  1
  H  H81  1  0.41986000  0.45630000  0.36033000  1
  H  H82  1  0.76157000  0.83456000  0.54565000  1
  H  H83  1  0.36750000  0.44329000  0.29454000  1
  H  H84  1  0.75922000  0.45920000  0.58869000  1
  H  H85  1  0.99270000  0.37790000  0.43651000  1
  H  H86  1  0.89334000  0.60125000  0.51412000  1
  H  H87  1  0.91159000  0.46478000  0.42407000  1
  H  H88  1  0.84135000  0.41036000  0.54281000  1
  H  H89  1  0.83504000  0.64553000  0.45699000  1
  H  H90  1  0.40229000  0.39278000  0.44286000  1
  H  H91  1  0.37581000  0.67157000  0.49398000  1
  H  H92  1  0.34400000  0.48057000  0.62074000  1
  H  H93  1  0.41863000  0.61570000  0.53390000  1
  H  H94  1  0.07723000  0.32440000  0.39069000  1
  H  H95  1  0.34657000  0.48453000  0.44829000  1
  H  H96  1  0.11021000  0.22627000  0.35489000  1
  H  H97  1  0.85394000  0.58467000  0.64756000  1
  H  H98  1  0.84502000  0.57739000  0.71966000  1
  H  H99  1  0.37529000  0.42529000  0.56511000  1
  H  H100  1  0.87091000  0.14101000  0.42199000  1
  H  H101  1  0.73800000  0.40143000  0.64291000  1
  H  H102  1  0.35635000  0.49068000  0.75523000  1
  H  H103  1  0.72997000  0.39425000  0.71488000  1
  H  H104  1  0.85376000  0.84391000  0.41054000  1
  H  H105  1  0.33584000  0.76960000  0.49425000  1
  H  H106  1  0.38635000  0.67177000  0.38620000  1
  H  H107  1  0.80012000  0.74376000  0.44066000  1
  H  H108  1  0.34379000  0.76700000  0.35077000  1
  H  H109  1  0.34746000  0.25520000  0.34879000  1
  H  H110  1  0.06692000  0.65937000  0.39415000  1
  H  H111  1  0.11916000  0.75945000  0.36399000  1
  H  H112  1  0.83427000  0.24025000  0.45670000  1
  H  H113  1  0.38474000  0.34859000  0.38611000  1
  H  H114  1  0.27623000  0.25860000  0.49225000  1
  H  H115  1  0.29132000  0.86370000  0.45822000  1
  H  H116  1  0.29985000  0.48208000  0.68904000  1
  H  H117  1  0.57982000  0.54427000  0.63982000  1
  H  H118  1  0.23816000  0.16517000  0.45442000  1
  H  H119  1  0.63215000  0.55655000  0.70567000  1
  H  H120  1  0.25804000  0.04051000  0.08869000  1
  H  H121  1  0.49245000  0.12167000  0.93609000  1
  H  H122  1  0.39242000  0.89854000  0.01439000  1
  H  H123  1  0.41200000  0.03517000  0.92422000  1
  H  H124  1  0.34125000  0.08951000  0.04285000  1
  H  H125  1  0.33423000  0.85525000  0.95622000  1
  H  H126  1  0.90333000  0.10720000  0.94313000  1
  H  H127  1  0.87632000  0.82867000  0.99392000  1
  H  H128  1  0.84349000  0.01891000  0.12095000  1
  H  H129  1  0.91820000  0.88424000  0.03428000  1
  H  H130  1  0.57754000  0.17522000  0.89056000  1
  H  H131  1  0.84755000  0.01541000  0.94832000  1
  H  H132  1  0.61080000  0.27358000  0.85486000  1
  H  H133  1  0.35369000  0.91554000  0.14766000  1
  H  H134  1  0.34521000  0.92308000  0.21977000  1
  H  H135  1  0.87520000  0.07487000  0.06507000  1
  H  H136  1  0.37132000  0.35874000  0.92175000  1
  H  H137  1  0.23762000  0.09892000  0.14275000  1
  H  H138  1  0.85662000  0.00834000  0.25547000  1
  H  H139  1  0.23005000  0.10613000  0.21476000  1
  H  H140  1  0.35211000  0.65640000  0.90998000  1
  H  H141  1  0.83632000  0.73048000  0.99429000  1
  H  H142  1  0.88792000  0.82837000  0.88628000  1
  H  H143  1  0.29961000  0.75624000  0.94065000  1
  H  H144  1  0.84336000  0.73377000  0.85088000  1
  H  H145  1  0.84731000  0.24498000  0.84874000  1
  H  H146  1  0.56721000  0.83998000  0.89446000  1
  H  H147  1  0.61829000  0.74014000  0.86377000  1
  H  H148  1  0.33429000  0.25945000  0.95651000  1
  H  H149  1  0.88507000  0.15136000  0.88600000  1
  H  H150  1  0.77679000  0.24093000  0.99218000  1
  H  H151  1  0.78871000  0.63724000  0.95848000  1
  H  H152  1  0.80021000  0.01818000  0.18929000  1
  H  H153  1  0.08021000  0.95616000  0.13985000  1
  H  H154  1  0.73829000  0.33459000  0.95439000  1
  H  H155  1  0.13241000  0.94299000  0.20569000  1
  C  C156  1  0.62748000  0.93112000  0.01758000  1
  C  C157  1  0.61544000  0.05423000  0.99489000  1
  C  C158  1  0.64403000  0.02858000  0.92540000  1
  C  C159  1  0.60437000  0.97684000  0.04520000  1
  C  C160  1  0.63735000  0.00858000  0.96682000  1
  C  C161  1  0.64456000  0.94707000  0.97831000  1
  C  C162  1  0.59931000  0.03868000  0.03403000  1
  C  C163  1  0.10057000  0.06954000  0.97465000  1
  C  C164  1  0.56284000  0.08434000  0.06431000  1
  C  C165  1  0.12849000  0.10178000  0.04428000  1
  C  C166  1  0.46820000  0.78471000  0.10309000  1
  C  C167  1  0.13940000  0.99424000  0.02187000  1
  C  C168  1  0.12168000  0.05575000  0.01232000  1
  C  C169  1  0.16791000  0.88275000  0.00264000  1
  C  C170  1  0.70354000  0.99317000  0.85923000  1
  C  C171  1  0.14246000  0.94789000  0.99394000  1
  C  C172  1  0.96801000  0.03283000  0.72617000  1
  C  C173  1  0.57011000  0.19603000  0.07985000  1
  C  C174  1  0.54696000  0.78895000  0.07448000  1
  C  C175  1  0.71219000  0.98479000  0.77807000  1
  C  C176  1  0.10040000  0.02293000  0.94658000  1
  C  C177  1  0.63412000  0.86479000  0.02920000  1
  C  C178  1  0.13698000  0.21434000  0.05751000  1
  C  C179  1  0.47905000  0.61856000  0.13336000  1
  C  C180  1  0.72427000  0.98404000  0.73513000  1
  C  C181  1  0.44913000  0.72985000  0.12274000  1
  C  C182  1  0.00283000  0.02511000  0.76520000  1
  C  C183  1  0.67273000  0.04300000  0.83747000  1
  C  C184  1  0.67704000  0.03827000  0.79729000  1
  C  C185  1  0.12450000  0.96255000  0.95587000  1
  C  C186  1  0.58453000  0.68184000  0.08516000  1
  C  C187  1  0.51205000  0.30765000  0.11533000  1
  C  C188  1  0.47763000  0.36597000  0.13376000  1
  C  C189  1  0.06228000  0.03986000  0.90922000  1
  C  C190  1  0.16731000  0.80961000  0.05854000  1
  C  C191  1  0.06379000  0.01373000  0.83964000  1
  C  C192  1  0.73859000  0.93935000  0.84013000  1
  C  C193  1  0.09590000  0.00287000  0.77011000  1
  C  C194  1  0.50637000  0.67742000  0.11378000  1
  C  C195  1  0.74247000  0.93513000  0.80005000  1
  C  C196  1  0.18866000  0.32002000  0.09739000  1
  C  C197  1  0.20875000  0.70437000  0.10057000  1
  C  C198  1  0.60198000  0.30340000  0.09340000  1
  C  C199  1  0.16157000  0.26907000  0.03717000  1
  C  C200  1  0.13315000  0.21362000  0.09814000  1
  C  C201  1  0.63109000  0.24798000  0.07602000  1
  C  C202  1  0.15842000  0.26658000  0.11767000  1
  C  C203  1  0.16742000  0.75622000  0.11991000  1
  C  C204  1  0.48006000  0.20003000  0.10193000  1
  C  C205  1  0.45211000  0.25550000  0.11944000  1
  C  C206  1  0.60573000  0.73702000  0.06566000  1
  C  C207  1  0.23262000  0.65076000  0.12339000  1
  C  C208  1  0.14704000  0.80846000  0.09916000  1
  C  C209  1  0.20866000  0.75781000  0.03902000  1
  C  C210  1  0.18811000  0.32108000  0.05690000  1
  C  C211  1  0.12674000  0.99781000  0.80714000  1
  C  C212  1  0.96946000  0.03391000  0.83491000  1
  C  C213  1  0.22998000  0.37390000  0.11714000  1
  C  C214  1  0.22939000  0.70567000  0.06019000  1
  C  C215  1  0.94031000  0.04030000  0.79789000  1
  C  C216  1  0.12810000  0.56912000  0.51785000  1
  C  C217  1  0.11423000  0.44597000  0.49522000  1
  C  C218  1  0.14315000  0.47160000  0.42559000  1
  C  C219  1  0.10469000  0.52336000  0.54549000  1
  C  C220  1  0.13635000  0.49160000  0.46708000  1
  C  C221  1  0.14428000  0.55310000  0.47858000  1
  C  C222  1  0.09853000  0.46156000  0.53437000  1
  C  C223  1  0.60025000  0.43017000  0.47498000  1
  C  C224  1  0.06223000  0.41587000  0.56472000  1
  C  C225  1  0.63108000  0.39698000  0.54416000  1
  C  C226  1  0.96825000  0.71519000  0.60303000  1
  C  C227  1  0.63969000  0.50523000  0.52206000  1
  C  C228  1  0.62218000  0.44363000  0.51260000  1
  C  C229  1  0.66790000  0.61691000  0.50275000  1
  C  C230  1  0.20262000  0.50692000  0.35933000  1
  C  C231  1  0.64215000  0.55175000  0.49413000  1
  C  C232  1  0.46855000  0.46607000  0.22641000  1
  C  C233  1  0.06838000  0.30415000  0.58018000  1
  C  C234  1  0.04686000  0.71105000  0.57442000  1
  C  C235  1  0.21210000  0.51455000  0.27803000  1
  C  C236  1  0.60032000  0.47681000  0.44684000  1
  C  C237  1  0.13487000  0.63545000  0.52950000  1
  C  C238  1  0.63783000  0.28455000  0.55732000  1
  C  C239  1  0.97867000  0.88111000  0.63332000  1
  C  C240  1  0.22432000  0.51499000  0.23506000  1
  C  C241  1  0.94925000  0.76993000  0.62275000  1
  C  C242  1  0.50291000  0.47394000  0.26550000  1
  C  C243  1  0.17221000  0.45693000  0.33769000  1
  C  C244  1  0.17693000  0.46122000  0.29748000  1
  C  C245  1  0.62427000  0.53720000  0.45605000  1
  C  C246  1  0.08450000  0.81810000  0.58522000  1
  C  C247  1  0.00841000  0.19227000  0.61493000  1
  C  C248  1  0.97341000  0.13391000  0.63320000  1
  C  C249  1  0.56257000  0.46007000  0.40936000  1
  C  C250  1  0.66739000  0.69024000  0.55846000  1
  C  C251  1  0.56383000  0.48654000  0.33981000  1
  C  C252  1  0.23798000  0.56051000  0.33999000  1
  C  C253  1  0.59564000  0.49683000  0.27026000  1
  C  C254  1  0.00641000  0.82237000  0.61382000  1
  C  C255  1  0.24226000  0.56441000  0.29986000  1
  C  C256  1  0.68865000  0.17827000  0.59677000  1
  C  C257  1  0.70865000  0.79537000  0.60060000  1
  C  C258  1  0.09873000  0.19639000  0.59325000  1
  C  C259  1  0.66261000  0.23014000  0.53674000  1
  C  C260  1  0.63458000  0.28493000  0.59795000  1
  C  C261  1  0.12885000  0.25195000  0.57626000  1
  C  C262  1  0.65935000  0.23161000  0.61727000  1
  C  C263  1  0.66718000  0.74347000  0.61989000  1
  C  C264  1  0.97821000  0.30045000  0.60222000  1
  C  C265  1  0.94936000  0.24480000  0.61931000  1
  C  C266  1  0.10560000  0.76300000  0.56568000  1
  C  C267  1  0.73248000  0.84898000  0.62338000  1
  C  C268  1  0.64705000  0.69134000  0.59906000  1
  C  C269  1  0.70870000  0.74211000  0.53900000  1
  C  C270  1  0.68884000  0.17779000  0.55627000  1
  C  C271  1  0.62651000  0.50257000  0.30724000  1
  C  C272  1  0.46945000  0.46636000  0.33522000  1
  C  C273  1  0.72797000  0.12373000  0.61650000  1
  C  C274  1  0.72926000  0.79417000  0.56022000  1
  C  C275  1  0.44019000  0.45936000  0.29826000  1
  C  C276  1  0.87262000  0.43081000  0.48225000  1
  C  C277  1  0.88598000  0.55384000  0.50472000  1
  C  C278  1  0.85681000  0.52847000  0.57441000  1
  C  C279  1  0.89588000  0.47643000  0.45453000  1
  C  C280  1  0.86379000  0.50835000  0.53294000  1
  C  C281  1  0.85612000  0.44682000  0.52152000  1
  C  C282  1  0.90178000  0.53823000  0.46557000  1
  C  C283  1  0.39954000  0.56952000  0.52511000  1
  C  C284  1  0.93773000  0.58392000  0.43519000  1
  C  C285  1  0.37026000  0.60200000  0.45567000  1
  C  C286  1  0.03148000  0.28436000  0.39699000  1
  C  C287  1  0.36038000  0.49436000  0.47801000  1
  C  C288  1  0.37796000  0.55588000  0.48751000  1
  C  C289  1  0.33177000  0.38287000  0.49723000  1
  C  C290  1  0.79725000  0.49324000  0.64068000  1
  C  C291  1  0.35765000  0.44792000  0.50592000  1
  C  C292  1  0.53154000  0.53243000  0.77359000  1
  C  C293  1  0.93096000  0.69568000  0.41995000  1
  C  C294  1  0.95300000  0.28856000  0.42567000  1
  C  C295  1  0.78786000  0.48543000  0.72198000  1
  C  C296  1  0.39976000  0.52286000  0.55321000  1
  C  C297  1  0.86543000  0.36453000  0.47054000  1
  C  C298  1  0.36244000  0.71451000  0.44246000  1
  C  C299  1  0.02096000  0.11848000  0.36675000  1
  C  C300  1  0.77564000  0.48502000  0.76495000  1
  C  C301  1  0.05035000  0.22959000  0.37729000  1
  C  C302  1  0.49701000  0.52509000  0.73452000  1
  C  C303  1  0.82770000  0.54320000  0.66235000  1
  C  C304  1  0.82300000  0.53877000  0.70256000  1
  C  C305  1  0.37568000  0.46249000  0.54400000  1
  C  C306  1  0.91513000  0.18153000  0.41499000  1
  C  C307  1  0.98995000  0.80786000  0.38529000  1
  C  C308  1  0.02459000  0.86620000  0.36683000  1
  C  C309  1  0.43764000  0.53971000  0.59063000  1
  C  C310  1  0.33232000  0.30951000  0.44151000  1
  C  C311  1  0.43602000  0.51355000  0.66021000  1
  C  C312  1  0.76190000  0.43962000  0.65999000  1
  C  C313  1  0.40394000  0.50289000  0.72971000  1
  C  C314  1  0.99319000  0.17717000  0.38634000  1
  C  C315  1  0.75769000  0.43564000  0.70011000  1
  C  C316  1  0.31358000  0.82083000  0.40239000  1
  C  C317  1  0.29102000  0.20429000  0.39944000  1
  C  C318  1  0.89996000  0.80348000  0.40718000  1
  C  C319  1  0.33817000  0.76923000  0.46276000  1
  C  C320  1  0.36622000  0.71373000  0.40182000  1
  C  C321  1  0.87035000  0.74778000  0.42411000  1
  C  C322  1  0.34219000  0.76698000  0.38220000  1
  C  C323  1  0.33247000  0.25619000  0.38014000  1
  C  C324  1  0.02104000  0.69972000  0.39787000  1
  C  C325  1  0.04943000  0.75549000  0.38083000  1
  C  C326  1  0.89421000  0.23669000  0.43449000  1
  C  C327  1  0.26705000  0.15073000  0.37661000  1
  C  C328  1  0.35263000  0.30838000  0.40091000  1
  C  C329  1  0.29105000  0.25765000  0.46101000  1
  C  C330  1  0.31345000  0.82160000  0.44290000  1
  C  C331  1  0.37297000  0.49776000  0.69273000  1
  C  C332  1  0.53032000  0.53380000  0.66488000  1
  C  C333  1  0.27500000  0.87581000  0.38264000  1
  C  C334  1  0.27049000  0.20554000  0.43983000  1
  C  C335  1  0.55959000  0.54035000  0.70186000  1
  C  C336  1  0.37285000  0.06900000  0.98237000  1
  C  C337  1  0.38548000  0.94595000  0.00487000  1
  C  C338  1  0.35620000  0.97148000  0.07444000  1
  C  C339  1  0.39627000  0.02345000  0.95467000  1
  C  C340  1  0.36311000  0.99147000  0.03301000  1
  C  C341  1  0.35577000  0.05301000  0.02161000  1
  C  C342  1  0.40204000  0.96160000  0.96573000  1
  C  C343  1  0.89961000  0.93050000  0.02537000  1
  C  C344  1  0.43937000  0.91598000  0.93550000  1
  C  C345  1  0.87185000  0.89828000  0.95571000  1
  C  C346  1  0.53179000  0.21530000  0.89687000  1
  C  C347  1  0.86090000  0.00577000  0.97813000  1
  C  C348  1  0.87858000  0.94428000  0.98769000  1
  C  C349  1  0.83218000  0.11720000  0.99733000  1
  C  C350  1  0.29667000  0.00690000  0.14066000  1
  C  C351  1  0.85766000  0.05211000  0.00606000  1
  C  C352  1  0.03184000  0.96628000  0.27366000  1
  C  C353  1  0.43055000  0.80428000  0.91982000  1
  C  C354  1  0.45307000  0.21109000  0.92549000  1
  C  C355  1  0.28797000  0.01510000  0.22187000  1
  C  C356  1  0.89962000  0.97713000  0.05344000  1
  C  C357  1  0.36607000  0.13533000  0.97093000  1
  C  C358  1  0.86325000  0.78575000  0.94249000  1
  C  C359  1  0.52130000  0.38140000  0.86673000  1
  C  C360  1  0.27599000  0.01593000  0.26481000  1
  C  C361  1  0.55082000  0.27015000  0.87720000  1
  C  C362  1  0.99716000  0.97397000  0.23464000  1
  C  C363  1  0.32736000  0.95702000  0.16241000  1
  C  C364  1  0.32305000  0.96163000  0.20260000  1
  C  C365  1  0.87549000  0.03749000  0.04415000  1
  C  C366  1  0.41545000  0.31818000  0.91480000  1
  C  C367  1  0.48836000  0.69219000  0.88469000  1
  C  C368  1  0.52243000  0.63395000  0.86598000  1
  C  C369  1  0.93766000  0.96024000  0.09080000  1
  C  C370  1  0.83273000  0.19031000  0.94144000  1
  C  C371  1  0.93609000  0.98624000  0.16036000  1
  C  C372  1  0.26148000  0.06066000  0.15983000  1
  C  C373  1  0.90413000  0.99635000  0.22989000  1
  C  C374  1  0.49364000  0.32256000  0.88620000  1
  C  C375  1  0.25761000  0.06479000  0.19993000  1
  C  C376  1  0.81150000  0.68000000  0.90254000  1
  C  C377  1  0.79122000  0.29560000  0.89942000  1
  C  C378  1  0.39853000  0.69674000  0.90667000  1
  C  C379  1  0.83823000  0.73111000  0.96282000  1
  C  C380  1  0.86697000  0.78651000  0.90187000  1
  C  C381  1  0.36954000  0.75234000  0.92388000  1
  C  C382  1  0.84165000  0.73356000  0.88231000  1
  C  C383  1  0.83256000  0.24375000  0.88008000  1
  C  C384  1  0.52068000  0.79992000  0.89784000  1
  C  C385  1  0.54848000  0.74427000  0.88053000  1
  C  C386  1  0.39434000  0.26301000  0.93432000  1
  C  C387  1  0.76745000  0.34929000  0.87664000  1
  C  C388  1  0.85293000  0.19150000  0.90083000  1
  C  C389  1  0.79137000  0.24209000  0.96094000  1
  C  C390  1  0.81182000  0.67908000  0.94305000  1
  C  C391  1  0.87313000  0.00196000  0.19292000  1
  C  C392  1  0.03051000  0.96605000  0.16496000  1
  C  C393  1  0.77078000  0.62574000  0.88284000  1
  C  C394  1  0.77063000  0.29424000  0.93979000  1
  C  C395  1  0.05979000  0.95917000  0.20191000  1
  N  N396  1  0.70141000  0.99359000  0.89988000  1
  N  N397  1  0.56109000  0.84650000  0.05619000  1
  N  N398  1  0.60121000  0.14246000  0.05974000  1
  N  N399  1  0.14349000  0.86452000  0.03994000  1
  N  N400  1  0.11748000  0.16228000  0.03498000  1
  N  N401  1  0.09695000  0.00792000  0.87692000  1
  N  N402  1  0.20001000  0.50689000  0.40002000  1
  N  N403  1  0.06106000  0.65364000  0.55604000  1
  N  N404  1  0.10005000  0.35764000  0.56008000  1
  N  N405  1  0.64356000  0.63526000  0.54000000  1
  N  N406  1  0.61742000  0.33672000  0.53493000  1
  N  N407  1  0.59707000  0.49230000  0.37707000  1
  N  N408  1  0.79980000  0.49331000  0.59999000  1
  N  N409  1  0.93915000  0.34600000  0.44402000  1
  N  N410  1  0.89964000  0.64203000  0.43993000  1
  N  N411  1  0.35611000  0.36451000  0.45996000  1
  N  N412  1  0.38166000  0.66243000  0.46506000  1
  N  N413  1  0.40309000  0.50760000  0.62292000  1
  N  N414  1  0.29910000  0.00664000  0.09999000  1
  N  N415  1  0.43890000  0.15360000  0.94381000  1
  N  N416  1  0.39947000  0.85823000  0.93956000  1
  N  N417  1  0.85645000  0.13535000  0.96001000  1
  N  N418  1  0.88275000  0.83778000  0.96504000  1
  N  N419  1  0.90317000  0.99235000  0.12308000  1
  O  O420  1  0.59952000  0.07533000  0.91584000  1
  O  O421  1  0.49981000  0.06877000  0.09007000  1
  O  O422  1  0.14393000  0.08410000  0.07745000  1
  O  O423  1  0.33992000  0.50241000  0.15439000  1
  O  O424  1  0.99987000  0.08103000  0.90838000  1
  O  O425  1  0.70070000  0.83137000  0.01509000  1
  O  O426  1  0.75779000  0.93414000  0.71866000  1
  O  O427  1  0.52266000  0.41641000  0.12326000  1
  O  O428  1  0.01879000  0.00831000  0.69719000  1
  O  O429  1  0.20950000  0.84961000  0.97684000  1
  O  O430  1  0.70399000  0.03255000  0.71663000  1
  O  O431  1  0.51917000  0.56832000  0.11941000  1
  O  O432  1  0.40485000  0.36277000  0.15880000  1
  O  O433  1  0.41637000  0.61939000  0.16270000  1
  O  O434  1  0.88994000  0.06309000  0.72429000  1
  O  O435  1  0.28009000  0.60380000  0.10939000  1
  O  O436  1  0.21008000  0.64915000  0.16065000  1
  O  O437  1  0.21409000  0.37519000  0.15536000  1
  O  O438  1  0.27927000  0.41264000  0.09786000  1
  O  O439  1  0.09938000  0.42471000  0.41592000  1
  O  O440  1  0.99982000  0.43140000  0.59081000  1
  O  O441  1  0.65075000  0.41374000  0.57695000  1
  O  O442  1  0.83886000  0.99733000  0.65460000  1
  O  O443  1  0.50025000  0.41891000  0.40841000  1
  O  O444  1  0.20213000  0.66894000  0.51583000  1
  O  O445  1  0.25740000  0.56517000  0.21863000  1
  O  O446  1  0.01897000  0.08359000  0.62305000  1
  O  O447  1  0.51983000  0.49028000  0.19742000  1
  O  O448  1  0.70967000  0.65006000  0.47698000  1
  O  O449  1  0.20472000  0.46629000  0.21664000  1
  O  O450  1  0.01888000  0.93144000  0.61944000  1
  O  O451  1  0.89999000  0.13708000  0.65801000  1
  O  O452  1  0.91537000  0.87993000  0.66244000  1
  O  O453  1  0.39013000  0.43632000  0.22440000  1
  O  O454  1  0.77994000  0.89600000  0.60942000  1
  O  O455  1  0.70972000  0.85051000  0.66062000  1
  O  O456  1  0.70957000  0.12178000  0.65462000  1
  O  O457  1  0.77761000  0.08494000  0.59745000  1
  O  O458  1  0.90072000  0.57536000  0.58405000  1
  O  O459  1  0.00001000  0.56855000  0.40899000  1
  O  O460  1  0.35363000  0.58421000  0.42268000  1
  O  O461  1  0.16092000  0.00227000  0.34437000  1
  O  O462  1  0.49989000  0.58094000  0.59157000  1
  O  O463  1  0.79800000  0.33131000  0.48408000  1
  O  O464  1  0.74255000  0.43490000  0.78143000  1
  O  O465  1  0.98028000  0.91685000  0.37732000  1
  O  O466  1  0.48097000  0.50715000  0.80240000  1
  O  O467  1  0.28995000  0.34979000  0.52302000  1
  O  O468  1  0.79531000  0.53380000  0.78330000  1
  O  O469  1  0.98116000  0.06804000  0.38060000  1
  O  O470  1  0.09670000  0.86291000  0.34154000  1
  O  O471  1  0.08395000  0.11968000  0.33753000  1
  O  O472  1  0.60932000  0.56287000  0.77567000  1
  O  O473  1  0.21970000  0.10364000  0.39051000  1
  O  O474  1  0.28980000  0.14933000  0.33936000  1
  O  O475  1  0.28666000  0.87510000  0.34424000  1
  O  O476  1  0.23228000  0.91729000  0.40193000  1
  O  O477  1  0.40049000  0.92469000  0.08408000  1
  O  O478  1  0.50410000  0.93121000  0.91025000  1
  O  O479  1  0.85685000  0.91595000  0.92250000  1
  O  O480  1  0.66043000  0.49778000  0.84555000  1
  O  O481  1  0.99998000  0.91900000  0.09163000  1
  O  O482  1  0.29961000  0.16856000  0.98539000  1
  O  O483  1  0.24229000  0.06583000  0.28123000  1
  O  O484  1  0.47665000  0.58347000  0.87565000  1
  O  O485  1  0.98077000  0.99049000  0.30267000  1
  O  O486  1  0.79072000  0.15040000  0.02312000  1
  O  O487  1  0.29650000  0.96749000  0.28336000  1
  O  O488  1  0.48098000  0.43161000  0.88065000  1
  O  O489  1  0.59575000  0.63730000  0.84124000  1
  O  O490  1  0.58447000  0.38061000  0.83755000  1
  O  O491  1  0.11040000  0.93652000  0.27552000  1
  O  O492  1  0.72026000  0.39633000  0.89067000  1
  O  O493  1  0.78991000  0.35090000  0.83937000  1
  O  O494  1  0.78600000  0.62485000  0.84458000  1
  O  O495  1  0.72298000  0.58633000  0.90210000  1
