# generated using pymatgen
data_Co3H6C21N20
_symmetry_space_group_name_H-M   'P 1'
_cell_length_a   13.63998000
_cell_length_b   15.16392000
_cell_length_c   20.72979000
_cell_angle_alpha   89.97234000
_cell_angle_beta   77.69249000
_cell_angle_gamma   89.96955000
_symmetry_Int_Tables_number   1
_chemical_formula_structural   Co3H6C21N20
_chemical_formula_sum   'Co12 H24 C84 N80'
_cell_volume   4189.11646461
_cell_formula_units_Z   4
loop_
 _symmetry_equiv_pos_site_id
 _symmetry_equiv_pos_as_xyz
  1  'x, y, z'
loop_
 _atom_site_type_symbol
 _atom_site_label
 _atom_site_symmetry_multiplicity
 _atom_site_fract_x
 _atom_site_fract_y
 _atom_site_fract_z
 _atom_site_occupancy
  Co  Co0  1  0.24455000  0.74995000  0.53753000  1
  Co  Co1  1  0.82185000  0.75226000  0.39738000  1
  Co  Co2  1  0.29761000  0.63751000  0.20226000  1
  Co  Co3  1  0.25547000  0.25066000  0.96245000  1
  Co  Co4  1  0.67818000  0.25180000  0.10266000  1
  Co  Co5  1  0.20250000  0.13791000  0.29768000  1
  Co  Co6  1  0.75547000  0.25007000  0.46246000  1
  Co  Co7  1  0.17817000  0.24773000  0.60259000  1
  Co  Co8  1  0.70240000  0.36247000  0.79777000  1
  Co  Co9  1  0.74454000  0.74932000  0.03754000  1
  Co  Co10  1  0.32181000  0.74820000  0.89735000  1
  Co  Co11  1  0.79748000  0.86210000  0.70231000  1
  H  H12  1  0.45949000  0.65504000  0.29956000  1
  H  H13  1  0.43943000  0.68341000  0.42191000  1
  H  H14  1  0.99864000  0.76411000  0.60172000  1
  H  H15  1  0.84898000  0.76420000  0.55109000  1
  H  H16  1  0.90037000  0.69334000  0.23766000  1
  H  H17  1  0.07246000  0.66230000  0.16725000  1
  H  H18  1  0.04054000  0.15522000  0.20035000  1
  H  H19  1  0.06064000  0.18347000  0.07797000  1
  H  H20  1  0.50143000  0.26419000  0.89820000  1
  H  H21  1  0.65108000  0.26392000  0.94880000  1
  H  H22  1  0.59964000  0.19352000  0.26228000  1
  H  H23  1  0.42762000  0.16244000  0.33270000  1
  H  H24  1  0.54051000  0.34494000  0.70044000  1
  H  H25  1  0.56057000  0.31658000  0.57809000  1
  H  H26  1  0.00135000  0.23596000  0.39826000  1
  H  H27  1  0.15102000  0.23587000  0.44889000  1
  H  H28  1  0.09964000  0.30663000  0.76232000  1
  H  H29  1  0.92755000  0.33767000  0.83273000  1
  H  H30  1  0.95945000  0.84478000  0.79964000  1
  H  H31  1  0.93936000  0.81652000  0.92201000  1
  H  H32  1  0.49859000  0.73579000  0.10179000  1
  H  H33  1  0.34892000  0.73606000  0.05120000  1
  H  H34  1  0.40033000  0.80651000  0.73774000  1
  H  H35  1  0.57236000  0.83756000  0.66730000  1
  C  C36  1  0.34524000  0.83556000  0.15731000  1
  C  C37  1  0.20534000  0.70101000  0.40870000  1
  C  C38  1  0.10777000  0.71942000  0.44844000  1
  C  C39  1  0.02357000  0.72010000  0.41979000  1
  C  C40  1  0.03482000  0.70341000  0.35051000  1
  C  C41  1  0.13025000  0.68558000  0.31141000  1
  C  C42  1  0.21663000  0.68404000  0.34093000  1
  C  C43  1  0.38594000  0.66694000  0.33108000  1
  C  C44  1  0.37464000  0.68346000  0.39903000  1
  C  C45  1  0.00773000  0.75134000  0.54925000  1
  C  C46  1  0.92279000  0.75144000  0.52057000  1
  C  C47  1  0.96621000  0.69084000  0.25944000  1
  C  C48  1  0.06179000  0.67296000  0.22023000  1
  C  C49  1  0.26974000  0.94476000  0.49133000  1
  C  C50  1  0.23975000  0.56587000  0.07300000  1
  C  C51  1  0.15936000  0.75837000  0.69020000  1
  C  C52  1  0.68632000  0.72216000  0.29435000  1
  C  C53  1  0.46634000  0.73577000  0.55592000  1
  C  C54  1  0.63523000  0.74456000  0.51654000  1
  C  C55  1  0.87705000  0.94704000  0.36174000  1
  C  C56  1  0.51868000  0.56491000  0.16568000  1
  C  C57  1  0.15447000  0.33588000  0.34292000  1
  C  C58  1  0.29471000  0.20095000  0.09119000  1
  C  C59  1  0.39225000  0.21951000  0.05148000  1
  C  C60  1  0.47642000  0.22040000  0.08017000  1
  C  C61  1  0.46515000  0.20378000  0.14946000  1
  C  C62  1  0.36975000  0.18584000  0.18855000  1
  C  C63  1  0.28341000  0.18411000  0.15899000  1
  C  C64  1  0.11412000  0.16700000  0.16882000  1
  C  C65  1  0.12544000  0.18343000  0.10085000  1
  C  C66  1  0.49232000  0.25146000  0.95069000  1
  C  C67  1  0.57725000  0.25146000  0.97937000  1
  C  C68  1  0.53379000  0.19110000  0.24052000  1
  C  C69  1  0.43823000  0.17318000  0.27973000  1
  C  C70  1  0.23011000  0.44548000  0.00848000  1
  C  C71  1  0.26016000  0.06560000  0.42689000  1
  C  C72  1  0.34084000  0.25904000  0.80962000  1
  C  C73  1  0.81339000  0.22140000  0.20585000  1
  C  C74  1  0.03370000  0.23693000  0.94398000  1
  C  C75  1  0.86486000  0.24561000  0.98347000  1
  C  C76  1  0.62308000  0.44672000  0.13831000  1
  C  C77  1  0.98140000  0.06539000  0.33441000  1
  C  C78  1  0.65482000  0.16444000  0.84269000  1
  C  C79  1  0.79465000  0.29898000  0.59130000  1
  C  C80  1  0.89223000  0.28061000  0.55155000  1
  C  C81  1  0.97643000  0.27992000  0.58020000  1
  C  C82  1  0.96518000  0.29658000  0.64949000  1
  C  C83  1  0.86974000  0.31442000  0.68859000  1
  C  C84  1  0.78337000  0.31595000  0.65908000  1
  C  C85  1  0.61406000  0.33305000  0.66892000  1
  C  C86  1  0.62535000  0.31653000  0.60097000  1
  C  C87  1  0.99227000  0.24872000  0.45073000  1
  C  C88  1  0.07721000  0.24862000  0.47941000  1
  C  C89  1  0.03380000  0.30914000  0.74055000  1
  C  C90  1  0.93822000  0.32703000  0.77976000  1
  C  C91  1  0.73028000  0.05525000  0.50864000  1
  C  C92  1  0.76027000  0.43413000  0.92699000  1
  C  C93  1  0.84061000  0.24159000  0.30978000  1
  C  C94  1  0.31365000  0.27788000  0.70561000  1
  C  C95  1  0.53369000  0.26429000  0.44405000  1
  C  C96  1  0.36481000  0.25543000  0.48341000  1
  C  C97  1  0.12293000  0.05297000  0.63825000  1
  C  C98  1  0.48135000  0.43510000  0.83432000  1
  C  C99  1  0.84556000  0.66415000  0.65707000  1
  C  C100  1  0.70529000  0.79905000  0.90881000  1
  C  C101  1  0.60774000  0.78050000  0.94851000  1
  C  C102  1  0.52358000  0.77960000  0.91983000  1
  C  C103  1  0.53485000  0.79621000  0.85053000  1
  C  C104  1  0.63024000  0.81415000  0.81145000  1
  C  C105  1  0.71658000  0.81587000  0.84100000  1
  C  C106  1  0.88588000  0.83300000  0.83117000  1
  C  C107  1  0.87456000  0.81657000  0.89914000  1
  C  C108  1  0.50768000  0.74854000  0.04931000  1
  C  C109  1  0.42275000  0.74853000  0.02064000  1
  C  C110  1  0.46620000  0.80892000  0.75948000  1
  C  C111  1  0.56175000  0.82683000  0.72027000  1
  C  C112  1  0.76990000  0.55450000  0.99152000  1
  C  C113  1  0.73984000  0.93440000  0.57309000  1
  C  C114  1  0.65912000  0.74099000  0.19036000  1
  C  C115  1  0.18657000  0.77854000  0.79413000  1
  C  C116  1  0.96632000  0.76308000  0.05601000  1
  C  C117  1  0.13516000  0.75442000  0.01652000  1
  C  C118  1  0.37694000  0.55327000  0.86169000  1
  C  C119  1  0.01856000  0.93463000  0.66559000  1
  N  N120  1  0.28486000  0.70082000  0.43852000  1
  N  N121  1  0.10057000  0.73654000  0.51355000  1
  N  N122  1  0.93000000  0.73714000  0.45580000  1
  N  N123  1  0.95156000  0.70637000  0.32460000  1
  N  N124  1  0.14383000  0.66993000  0.24598000  1
  N  N125  1  0.30725000  0.66681000  0.30185000  1
  N  N126  1  0.25680000  0.87154000  0.51096000  1
  N  N127  1  0.28897000  0.02600000  0.47525000  1
  N  N128  1  0.26207000  0.60853000  0.11520000  1
  N  N129  1  0.17985000  0.74198000  0.63327000  1
  N  N130  1  0.12808000  0.77719000  0.75230000  1
  N  N131  1  0.73233000  0.71783000  0.33652000  1
  N  N132  1  0.38116000  0.72665000  0.55364000  1
  N  N133  1  0.55695000  0.74629000  0.56482000  1
  N  N134  1  0.71083000  0.74438000  0.47641000  1
  N  N135  1  0.85229000  0.87394000  0.37708000  1
  N  N136  1  0.89332000  0.02864000  0.34572000  1
  N  N137  1  0.44346000  0.60574000  0.17662000  1
  N  N138  1  0.32462000  0.76323000  0.17724000  1
  N  N139  1  0.27035000  0.52935000  0.22799000  1
  N  N140  1  0.21519000  0.20084000  0.06134000  1
  N  N141  1  0.39946000  0.23671000  0.98637000  1
  N  N142  1  0.57000000  0.23733000  0.04417000  1
  N  N143  1  0.54843000  0.20659000  0.17534000  1
  N  N144  1  0.35618000  0.17012000  0.25398000  1
  N  N145  1  0.19277000  0.16702000  0.19811000  1
  N  N146  1  0.24311000  0.37214000  0.98916000  1
  N  N147  1  0.21109000  0.52681000  0.02438000  1
  N  N148  1  0.23793000  0.10886000  0.38492000  1
  N  N149  1  0.32014000  0.24406000  0.86675000  1
  N  N150  1  0.37240000  0.27644000  0.74728000  1
  N  N151  1  0.76766000  0.21707000  0.16354000  1
  N  N152  1  0.11884000  0.22721000  0.94621000  1
  N  N153  1  0.94313000  0.24829000  0.93520000  1
  N  N154  1  0.78930000  0.24470000  0.02362000  1
  N  N155  1  0.64766000  0.37353000  0.12317000  1
  N  N156  1  0.60698000  0.52846000  0.15402000  1
  N  N157  1  0.05645000  0.10645000  0.32369000  1
  N  N158  1  0.17544000  0.26369000  0.32278000  1
  N  N159  1  0.22975000  0.02997000  0.27184000  1
  N  N160  1  0.71513000  0.29917000  0.56148000  1
  N  N161  1  0.89943000  0.26350000  0.48644000  1
  N  N162  1  0.07000000  0.26289000  0.54418000  1
  N  N163  1  0.04844000  0.29361000  0.67539000  1
  N  N164  1  0.85616000  0.33006000  0.75402000  1
  N  N165  1  0.69274000  0.33317000  0.69816000  1
  N  N166  1  0.74319000  0.12848000  0.48903000  1
  N  N167  1  0.71109000  0.97400000  0.52470000  1
  N  N168  1  0.73794000  0.39147000  0.88480000  1
  N  N169  1  0.82015000  0.25800000  0.36670000  1
  N  N170  1  0.87187000  0.22275000  0.24768000  1
  N  N171  1  0.26767000  0.28220000  0.66342000  1
  N  N172  1  0.61887000  0.27343000  0.44634000  1
  N  N173  1  0.44310000  0.25376000  0.43514000  1
  N  N174  1  0.28921000  0.25556000  0.52354000  1
  N  N175  1  0.14771000  0.12606000  0.62290000  1
  N  N176  1  0.10664000  0.97138000  0.65428000  1
  N  N177  1  0.55657000  0.39426000  0.82341000  1
  N  N178  1  0.67540000  0.23678000  0.82274000  1
  N  N179  1  0.72965000  0.47060000  0.77203000  1
  N  N180  1  0.78481000  0.79916000  0.93865000  1
  N  N181  1  0.60053000  0.76330000  0.01362000  1
  N  N182  1  0.43000000  0.76266000  0.95583000  1
  N  N183  1  0.45156000  0.79342000  0.82466000  1
  N  N184  1  0.64380000  0.82988000  0.74602000  1
  N  N185  1  0.80722000  0.83297000  0.80189000  1
  N  N186  1  0.75690000  0.62784000  0.01084000  1
  N  N187  1  0.78892000  0.47318000  0.97562000  1
  N  N188  1  0.76204000  0.89114000  0.61507000  1
  N  N189  1  0.67985000  0.75597000  0.13323000  1
  N  N190  1  0.62755000  0.72361000  0.25269000  1
  N  N191  1  0.23233000  0.78287000  0.83643000  1
  N  N192  1  0.88117000  0.77276000  0.05377000  1
  N  N193  1  0.05689000  0.75178000  0.06480000  1
  N  N194  1  0.21070000  0.75531000  0.97637000  1
  N  N195  1  0.35234000  0.62646000  0.87684000  1
  N  N196  1  0.39306000  0.47155000  0.84597000  1
  N  N197  1  0.94353000  0.89356000  0.67630000  1
  N  N198  1  0.82456000  0.73633000  0.67722000  1
  N  N199  1  0.77027000  0.97003000  0.72815000  1
