# generated using pymatgen
data_H15C17N2
_symmetry_space_group_name_H-M   'P 1'
_cell_length_a   28.26500000
_cell_length_b   28.26500000
_cell_length_c   37.98830000
_cell_angle_alpha   90.00000000
_cell_angle_beta   90.00000000
_cell_angle_gamma   90.00000000
_symmetry_Int_Tables_number   1
_chemical_formula_structural   H15C17N2
_chemical_formula_sum   'H240 C272 N32'
_cell_volume   30349.24130037
_cell_formula_units_Z   16
loop_
 _symmetry_equiv_pos_site_id
 _symmetry_equiv_pos_as_xyz
  1  'x, y, z'
loop_
 _atom_site_type_symbol
 _atom_site_label
 _atom_site_symmetry_multiplicity
 _atom_site_fract_x
 _atom_site_fract_y
 _atom_site_fract_z
 _atom_site_occupancy
  H  9  1  0.01388800  0.06924500  0.09662300  1
  H  17  1  0.32998700  0.06301700  0.14106800  1
  H  19  1  0.19105100  0.07801900  0.21083200  1
  H  20  1  0.11057200  0.08791600  0.19868300  1
  H  21  1  0.23452400  0.06676200  0.03825300  1
  H  22  1  0.15316700  0.05884500  0.02718700  1
  H  24  1  0.08754400  0.01208000  0.02925800  1
  H  25  1  0.03444500  0.00695300  0.05190700  1
  H  27  1  0.99916400  0.11616100  0.14636500  1
  H  28  1  0.04850400  0.13897600  0.16813500  1
  H  30  1  0.29890200  0.00756500  0.19114200  1
  H  31  1  0.25467700  0.03193200  0.21691400  1
  H  33  1  0.34560000  0.10414100  0.08923800  1
  H  34  1  0.29777200  0.12335900  0.06394100  1
  H  43  1  0.84273800  0.12922200  0.67400500  1
  H  51  1  0.55958600  0.97960300  0.65242500  1
  H  53  1  0.63409100  0.07380800  0.74062300  1
  H  54  1  0.70896400  0.10636300  0.74851500  1
  H  55  1  0.70243300  0.98370000  0.58599700  1
  H  56  1  0.77263700  0.02667200  0.58988200  1
  H  58  1  0.80076700  0.11082600  0.58831100  1
  H  59  1  0.84597800  0.13500100  0.61360300  1
  H  61  1  0.77243200  0.15805300  0.74363500  1
  H  62  1  0.83133800  0.15228500  0.73118900  1
  H  64  1  0.52474000  0.03433200  0.68844400  1
  H  65  1  0.55988600  0.08418900  0.69585700  1
  H  67  1  0.58910600  0.92410000  0.61098600  1
  H  68  1  0.64587600  0.92897800  0.59376500  1
  H  77  1  0.31788600  0.52634700  0.60127500  1
  H  85  1  0.01923100  0.63656400  0.56320000  1
  H  87  1  0.15710100  0.61465000  0.49265500  1
  H  88  1  0.23455800  0.59082200  0.50336300  1
  H  89  1  0.10420900  0.57650800  0.66189400  1
  H  90  1  0.17897300  0.54431200  0.67093300  1
  H  92  1  0.23652200  0.49027000  0.66964400  1
  H  93  1  0.29001500  0.47863000  0.64906300  1
  H  95  1  0.34731300  0.56739700  0.55370000  1
  H  96  1  0.30970600  0.60806900  0.53343000  1
  H  98  1  0.08871900  0.66014400  0.49191800  1
  H  99  1  0.03051100  0.65000100  0.50430800  1
  H  101  1  0.00830900  0.65164600  0.62207600  1
  H  102  1  0.05595000  0.64463400  0.65061400  1
  H  111  1  0.54418100  0.49300100  0.17180500  1
  H  119  1  0.83643700  0.62397600  0.14661100  1
  H  121  1  0.69850600  0.61232600  0.07532400  1
  H  122  1  0.62655200  0.57220900  0.08004800  1
  H  123  1  0.75299800  0.54670700  0.23938800  1
  H  124  1  0.67610100  0.51923200  0.24752700  1
  H  126  1  0.55127100  0.47992500  0.23119500  1
  H  127  1  0.60928300  0.47139500  0.24486300  1
  H  129  1  0.54557900  0.47419400  0.11221700  1
  H  130  1  0.59289900  0.49254200  0.08633600  1
  H  132  1  0.81248100  0.67229700  0.09960200  1
  H  133  1  0.75434200  0.67155100  0.08447700  1
  H  135  1  0.86634300  0.57475600  0.19019200  1
  H  136  1  0.82834500  0.53088900  0.20568600  1
  H  145  1  0.97025200  0.15606700  0.39254000  1
  H  153  1  0.91696000  0.47030900  0.42767700  1
  H  155  1  0.95646500  0.37369200  0.32831400  1
  H  156  1  0.96284400  0.29290900  0.31899600  1
  H  157  1  0.94185700  0.33672500  0.50176300  1
  H  158  1  0.95981200  0.25735500  0.49306300  1
  H  160  1  0.98483200  0.13984600  0.45142100  1
  H  161  1  0.99270400  0.18561100  0.48158300  1
  H  163  1  0.92535600  0.21764400  0.31915400  1
  H  164  1  0.94062500  0.16259800  0.33602000  1
  H  166  1  0.97218700  0.45219800  0.34629600  1
  H  167  1  0.94182500  0.49276800  0.37237300  1
  H  169  1  0.88503400  0.39712300  0.49933300  1
  H  170  1  0.88548700  0.45457600  0.48357300  1
  H  179  1  0.95186200  0.96992000  0.81487800  1
  H  187  1  0.88761300  0.65939100  0.85872300  1
  H  189  1  0.90367500  0.75491200  0.75569100  1
  H  190  1  0.92037400  0.83395600  0.74455900  1
  H  191  1  0.90114200  0.79956100  0.92866300  1
  H  192  1  0.91545300  0.87875400  0.91737300  1
  H  194  1  0.93388600  0.99467400  0.87157700  1
  H  195  1  0.90819300  0.95612900  0.90176800  1
  H  197  1  0.97650700  0.89225800  0.74345800  1
  H  198  1  0.98331800  0.94861000  0.75979000  1
  H  200  1  0.87475600  0.68140400  0.76950100  1
  H  201  1  0.88817500  0.63779900  0.80032900  1
  H  203  1  0.91697400  0.72008800  0.93567000  1
  H  204  1  0.89494000  0.66756700  0.91824700  1
  H  213  1  0.42587300  0.48298600  0.87890800  1
  H  221  1  0.42946400  0.16068300  0.86938100  1
  H  223  1  0.46526800  0.27684100  0.95701400  1
  H  224  1  0.46036000  0.35849600  0.96016700  1
  H  225  1  0.41036600  0.28510700  0.78587700  1
  H  226  1  0.41288100  0.36703000  0.78771700  1
  H  228  1  0.41625300  0.49267600  0.81941600  1
  H  229  1  0.43287800  0.44625800  0.79187900  1
  H  231  1  0.42131200  0.43095300  0.96226000  1
  H  232  1  0.42644600  0.48399700  0.93935600  1
  H  234  1  0.48458100  0.19889400  0.94737100  1
  H  235  1  0.46004200  0.15110500  0.92476200  1
  H  237  1  0.37025600  0.21232200  0.79888600  1
  H  238  1  0.39180900  0.15951900  0.81593600  1
  H  247  1  0.42513300  0.64199100  0.31717900  1
  H  255  1  0.49360600  0.94648800  0.37619800  1
  H  257  1  0.50363700  0.79687900  0.43445000  1
  H  258  1  0.48842700  0.71918200  0.41891600  1
  H  259  1  0.45856300  0.86480000  0.26911700  1
  H  260  1  0.44175100  0.78700400  0.25398400  1
  H  262  1  0.39451600  0.66386600  0.26309100  1
  H  263  1  0.39121800  0.72324000  0.25228800  1
  H  265  1  0.48239800  0.64270200  0.39797300  1
  H  266  1  0.44268500  0.61165700  0.37146500  1
  H  268  1  0.48053700  0.87301500  0.44949100  1
  H  269  1  0.49460800  0.92958000  0.43488400  1
  H  271  1  0.48377100  0.93808900  0.28472500  1
  H  272  1  0.47974500  0.97583800  0.32089400  1
  H  278  1  0.04775300  0.02207000  0.90127000  1
  H  280  1  0.96508300  0.00632200  0.01249300  1
  H  281  1  0.94256400  0.95822700  0.96331000  1
  H  283  1  0.09847400  0.08246300  0.92310100  1
  H  284  1  0.11324000  0.07097400  0.96742800  1
  H  285  1  0.07302900  0.11710100  0.95682200  1
  H  287  1  0.99060900  0.92151700  0.90835400  1
  H  289  1  0.01116700  0.08447000  0.02852400  1
  H  295  1  0.87409400  0.08457300  0.47446200  1
  H  297  1  0.92668200  0.13350400  0.59026600  1
  H  298  1  0.95150500  0.17661400  0.53937200  1
  H  300  1  0.83366600  0.01712600  0.49685100  1
  H  301  1  0.80117700  0.04042900  0.53248500  1
  H  302  1  0.84684900  0.99827600  0.53998500  1
  H  304  1  0.90287200  0.19417600  0.47856100  1
  H  306  1  0.88527400  0.05684900  0.61205200  1
  H  312  1  0.29323800  0.51575000  0.80005500  1
  H  314  1  0.36049100  0.47871900  0.68589100  1
  H  315  1  0.38899700  0.43923200  0.73740900  1
  H  317  1  0.23787200  0.57020300  0.77589200  1
  H  318  1  0.21834100  0.55156500  0.73399000  1
  H  319  1  0.25917300  0.59905800  0.73783000  1
  H  321  1  0.34834800  0.41644400  0.80148400  1
  H  323  1  0.31697000  0.55842200  0.66862000  1
  H  329  1  0.54386300  0.69384000  0.24870700  1
  H  331  1  0.48706100  0.53205700  0.24583900  1
  H  332  1  0.43385400  0.59599800  0.23387900  1
  H  334  1  0.62151700  0.67101700  0.26448200  1
  H  335  1  0.63781700  0.61901900  0.24202200  1
  H  336  1  0.62451400  0.61705600  0.28770200  1
  H  338  1  0.43900200  0.68624000  0.21020000  1
  H  340  1  0.56897500  0.52185300  0.28434800  1
  H  346  1  0.40782600  0.56017300  0.50736200  1
  H  348  1  0.32583300  0.61918200  0.40435600  1
  H  349  1  0.28450000  0.57128200  0.44635900  1
  H  351  1  0.47726500  0.60220400  0.49497900  1
  H  352  1  0.48952700  0.59923500  0.44968100  1
  H  353  1  0.46946700  0.65305800  0.46891600  1
  H  355  1  0.32759000  0.50792800  0.51325800  1
  H  357  1  0.41362100  0.68480700  0.42347300  1
  H  363  1  0.91990700  0.54962600  0.23926300  1
  H  365  1  0.82389800  0.50865700  0.34037100  1
  H  366  1  0.79586300  0.56587600  0.29871100  1
  H  368  1  0.97502800  0.48954100  0.24996500  1
  H  369  1  0.98918000  0.49195100  0.29497000  1
  H  370  1  0.95702700  0.44302500  0.27759900  1
  H  372  1  0.85310700  0.62307000  0.23747600  1
  H  374  1  0.89517300  0.42498100  0.32367900  1
  H  380  1  0.45780300  0.04544000  0.73159400  1
  H  382  1  0.52538800  0.17638500  0.79683800  1
  H  383  1  0.57390700  0.11016400  0.78092000  1
  H  385  1  0.38264200  0.08085900  0.72781100  1
  H  386  1  0.36800600  0.11531100  0.76478300  1
  H  387  1  0.38685600  0.14293100  0.72521300  1
  H  389  1  0.54067900  0.00477700  0.74518500  1
  H  391  1  0.42623000  0.20730600  0.75680200  1
  H  397  1  0.03665300  0.43483400  0.49663500  1
  H  399  1  0.97000100  0.59278900  0.49245500  1
  H  400  1  0.92111400  0.52696900  0.50819900  1
  H  402  1  0.11243200  0.46089500  0.47866900  1
  H  403  1  0.12578000  0.51527600  0.49896200  1
  H  404  1  0.11209700  0.51320700  0.45335000  1
  H  406  1  0.93329500  0.44020100  0.53698900  1
  H  408  1  0.05148400  0.60533500  0.45347200  1
  H  414  1  0.77722900  0.65000500  0.94462300  1
  H  416  1  0.86604600  0.68332500  0.05089900  1
  H  417  1  0.88397900  0.72490600  0.99755000  1
  H  419  1  0.73118300  0.59064200  0.97206300  1
  H  420  1  0.71588500  0.60931800  0.01479100  1
  H  421  1  0.75801800  0.56336400  0.00874000  1
  H  423  1  0.83523700  0.74974600  0.93781600  1
  H  425  1  0.82757400  0.59882800  0.06896900  1
  H  431  1  0.35682600  0.01469300  0.32550600  1
  H  433  1  0.38734800  0.01551800  0.19994900  1
  H  434  1  0.42827800  0.96080900  0.23716900  1
  H  436  1  0.30000200  0.07668100  0.32138900  1
  H  437  1  0.26725700  0.07071100  0.28204500  1
  H  438  1  0.31008900  0.11634000  0.28627300  1
  H  440  1  0.39908700  0.91641500  0.29769200  1
  H  442  1  0.33712900  0.09227100  0.20040300  1
  H  448  1  0.41673100  0.09082000  0.05170800  1
  H  450  1  0.33520300  0.13979700  0.94565200  1
  H  451  1  0.29919700  0.08337300  0.98435100  1
  H  453  1  0.48048100  0.14279600  0.04253100  1
  H  454  1  0.49508500  0.14739200  0.99764200  1
  H  455  1  0.46436200  0.19412800  0.01912400  1
  H  457  1  0.34689100  0.03050900  0.05742700  1
  H  459  1  0.40897900  0.21864700  0.97070000  1
  H  465  1  0.89754000  0.09876200  0.74390300  1
  H  467  1  0.83313900  0.94064700  0.75542800  1
  H  468  1  0.78477200  0.00817300  0.76879800  1
  H  470  1  0.96683800  0.07231600  0.71633700  1
  H  471  1  0.98827100  0.02460800  0.74123400  1
  H  472  1  0.96593900  0.01526700  0.69803100  1
  H  474  1  0.81979800  0.11602400  0.78627200  1
  H  476  1  0.93021300  0.93872900  0.70701000  1
  H  482  1  0.61349700  0.95605400  0.45367400  1
  H  484  1  0.53774200  0.90491300  0.56166300  1
  H  485  1  0.52076700  0.86510400  0.50743000  1
  H  487  1  0.65692100  0.01662900  0.48238300  1
  H  488  1  0.67399500  0.99994800  0.52526700  1
  H  489  1  0.62644200  0.04013500  0.51897600  1
  H  491  1  0.56429500  0.85196800  0.44342100  1
  H  493  1  0.56528200  0.99420400  0.57975500  1
  H  499  1  0.00067200  0.59059900  0.76911600  1
  H  501  1  0.93928400  0.64913100  0.65828500  1
  H  502  1  0.91508500  0.68499800  0.71219400  1
  H  504  1  0.02282700  0.51340500  0.73327600  1
  H  505  1  0.07018100  0.55391800  0.72754800  1
  H  506  1  0.04464400  0.52502000  0.69082900  1
  H  508  1  0.96574800  0.69787700  0.77373900  1
  H  510  1  0.98348800  0.57233600  0.63217700  1
  H  516  1  0.95276400  0.14416500  0.19871900  1
  H  518  1  0.04952800  0.12316000  0.30280900  1
  H  519  1  0.05971900  0.07171900  0.25318400  1
  H  521  1  0.92083100  0.21585100  0.21865100  1
  H  522  1  0.90204100  0.20513700  0.26202200  1
  H  523  1  0.94970000  0.24474200  0.25352600  1
  H  525  1  0.99080800  0.05474300  0.18514100  1
  H  527  1  0.00751800  0.22902500  0.30146900  1
  H  533  1  0.53345400  0.53746600  0.96542700  1
  H  535  1  0.48005300  0.46358400  0.07346800  1
  H  536  1  0.46468700  0.42636800  0.01817300  1
  H  538  1  0.54000700  0.61525900  0.00305700  1
  H  539  1  0.59396000  0.58446100  0.00989100  1
  H  540  1  0.56128400  0.60668300  0.04603200  1
  H  542  1  0.51044000  0.42495300  0.95477600  1
  H  544  1  0.50536000  0.54709300  0.10163200  1
  C  1  1  0.14719300  0.06860500  0.11550000  1
  C  2  1  0.11444900  0.07695200  0.14334700  1
  C  3  1  0.06546600  0.08213800  0.13553700  1
  C  4  1  0.04951200  0.06958700  0.10159200  1
  C  5  1  0.08097200  0.05664400  0.07440000  1
  C  6  1  0.13037700  0.06154300  0.08052300  1
  C  7  1  0.13240300  0.08145600  0.17790400  1
  C  8  1  0.16377300  0.06062600  0.05284600  1
  C  10  1  0.19686200  0.06795400  0.12253500  1
  C  11  1  0.21354200  0.06735600  0.15796300  1
  C  12  1  0.26256600  0.06048200  0.16465600  1
  C  13  1  0.29438700  0.06520900  0.13627700  1
  C  14  1  0.27897600  0.07270900  0.10144000  1
  C  15  1  0.22981400  0.06870500  0.09413600  1
  C  16  1  0.18040400  0.07426900  0.18528800  1
  C  18  1  0.21218800  0.06665800  0.05938100  1
  C  23  1  0.06045600  0.03287900  0.04272100  1
  C  26  1  0.03165200  0.10578700  0.16007300  1
  C  29  1  0.28240500  0.04130700  0.19825700  1
  C  32  1  0.31381800  0.09170900  0.07554800  1
  C  35  1  0.72695800  0.05862500  0.66819000  1
  C  36  1  0.73788700  0.08492200  0.69921600  1
  C  37  1  0.78224600  0.10838400  0.70236400  1
  C  38  1  0.81224100  0.10973500  0.67271300  1
  C  39  1  0.80096900  0.08683500  0.64080300  1
  C  40  1  0.75973700  0.05805300  0.63966800  1
  C  41  1  0.70316900  0.08782700  0.72585000  1
  C  42  1  0.74927200  0.02967400  0.61015900  1
  C  44  1  0.68245500  0.03474000  0.66490800  1
  C  45  1  0.64652300  0.04205300  0.69071300  1
  C  46  1  0.60003800  0.02429500  0.68493800  1
  C  47  1  0.59287800  0.99279900  0.65660800  1
  C  48  1  0.62873100  0.98170800  0.63209500  1
  C  49  1  0.67275400  0.00596300  0.63485600  1
  C  50  1  0.65800800  0.06874000  0.72095400  1
  C  52  1  0.70756300  0.00319800  0.60824300  1
  C  57  1  0.82708900  0.10191100  0.60837700  1
  C  60  1  0.79882100  0.13205800  0.73546900  1
  C  63  1  0.55721500  0.04624200  0.70145300  1
  C  66  1  0.61543500  0.94990500  0.60216200  1
  C  69  1  0.19099000  0.56948500  0.58456200  1
  C  70  1  0.22548500  0.57169200  0.55715400  1
  C  71  1  0.27315100  0.55825200  0.56394200  1
  C  72  1  0.28389700  0.53733500  0.59663400  1
  C  73  1  0.24999400  0.53197200  0.62357400  1
  C  74  1  0.20403200  0.55130300  0.61827200  1
  C  75  1  0.21139100  0.58902800  0.52391700  1
  C  76  1  0.17070200  0.55433900  0.64587800  1
  C  78  1  0.14406100  0.58699000  0.57860200  1
  C  79  1  0.13035300  0.60293900  0.54442900  1
  C  80  1  0.08332900  0.61896300  0.53827100  1
  C  81  1  0.05238300  0.62300300  0.56724600  1
  C  82  1  0.06583700  0.61070500  0.60181700  1
  C  83  1  0.11130800  0.59022800  0.60711100  1
  C  84  1  0.16481300  0.60316200  0.51748300  1
  C  86  1  0.12602900  0.57435600  0.64060000  1
  C  91  1  0.26610600  0.50748200  0.65636000  1
  C  94  1  0.31333200  0.57051800  0.54003500  1
  C  97  1  0.06525100  0.63307600  0.50270500  1
  C  100  1  0.03416900  0.62569200  0.63140500  1
  C  103  1  0.66493500  0.55408100  0.16296200  1
  C  104  1  0.63393900  0.55106600  0.13343400  1
  C  105  1  0.59076900  0.52546200  0.13606900  1
  C  106  1  0.57596300  0.51016400  0.16965700  1
  C  107  1  0.60439000  0.51530800  0.19995000  1
  C  108  1  0.65071600  0.53435600  0.19588800  1
  C  109  1  0.64799500  0.57266200  0.10162400  1
  C  110  1  0.68411000  0.53346100  0.22355000  1
  C  112  1  0.71091700  0.57476300  0.15900200  1
  C  113  1  0.72380600  0.59758300  0.12687200  1
  C  114  1  0.76893300  0.61952500  0.12343900  1
  C  115  1  0.80262400  0.61190500  0.15029000  1
  C  116  1  0.79213100  0.58633600  0.18123100  1
  C  117  1  0.74476500  0.57085700  0.18668900  1
  C  118  1  0.69090300  0.59703100  0.09891500  1
  C  120  1  0.73037600  0.54967600  0.21861800  1
  C  125  1  0.58516100  0.49811400  0.23438900  1
  C  128  1  0.56588300  0.50554300  0.10458900  1
  C  131  1  0.78358700  0.64850500  0.09223400  1
  C  134  1  0.83237100  0.56933300  0.20347800  1
  C  137  1  0.95731000  0.28994700  0.40761800  1
  C  138  1  0.96021800  0.27146900  0.37270500  1
  C  139  1  0.96317300  0.22170000  0.36702100  1
  C  140  1  0.96841200  0.19187200  0.39651400  1
  C  141  1  0.96855700  0.20910900  0.43133800  1
  C  142  1  0.96110300  0.25848100  0.43690600  1
  C  143  1  0.95947200  0.30390000  0.34443500  1
  C  144  1  0.95676900  0.27785900  0.47107400  1
  C  146  1  0.94846900  0.33943800  0.41309900  1
  C  147  1  0.94707500  0.37139500  0.38396900  1
  C  148  1  0.93772100  0.42047700  0.38946800  1
  C  149  1  0.92590400  0.43558400  0.42375700  1
  C  150  1  0.92585400  0.40477900  0.45294000  1
  C  151  1  0.94008400  0.35696800  0.44777200  1
  C  152  1  0.95529000  0.35260400  0.35005500  1
  C  154  1  0.94550800  0.32549600  0.47634400  1
  C  159  1  0.96959800  0.17330000  0.46044700  1
  C  162  1  0.95393500  0.19861900  0.33216800  1
  C  165  1  0.93953200  0.45724400  0.36102700  1
  C  168  1  0.90817500  0.42361200  0.48737400  1
  C  171  1  0.91658200  0.84077400  0.83319400  1
  C  172  1  0.92443600  0.85657800  0.79796500  1
  C  173  1  0.93912500  0.90391200  0.79123600  1
  C  174  1  0.94134000  0.93583100  0.81968500  1
  C  175  1  0.93113000  0.92230200  0.85459000  1
  C  176  1  0.92022200  0.87387900  0.86147600  1
  C  177  1  0.91781300  0.82390200  0.77031900  1
  C  178  1  0.91313200  0.85690000  0.89606100  1
  C  180  1  0.90662600  0.79179800  0.84014100  1
  C  181  1  0.90359700  0.75878200  0.81176100  1
  C  182  1  0.89720400  0.70956600  0.81857900  1
  C  183  1  0.89195400  0.69474200  0.85379800  1
  C  184  1  0.89344300  0.72638900  0.88253300  1
  C  185  1  0.90111000  0.77540000  0.87549700  1
  C  186  1  0.90740400  0.77644400  0.77705600  1
  C  188  1  0.90443600  0.80907800  0.90287600  1
  C  193  1  0.93695300  0.95908300  0.88269100  1
  C  196  1  0.95700200  0.92081300  0.75629700  1
  C  199  1  0.89961700  0.67227300  0.79042600  1
  C  202  1  0.88904200  0.70585100  0.91883900  1
  C  205  1  0.43501800  0.34735400  0.87378000  1
  C  206  1  0.44289400  0.37125700  0.90640300  1
  C  207  1  0.43906200  0.42152100  0.90849100  1
  C  208  1  0.42895800  0.44693700  0.87745500  1
  C  209  1  0.42206600  0.42470200  0.84463400  1
  C  210  1  0.42515100  0.37438500  0.84286800  1
  C  211  1  0.45389300  0.34348300  0.93622100  1
  C  212  1  0.41844600  0.34967500  0.81090300  1
  C  214  1  0.43577900  0.29656200  0.87224000  1
  C  215  1  0.44614500  0.26941400  0.90300500  1
  C  216  1  0.44552200  0.21896600  0.90169400  1
  C  217  1  0.43214500  0.19681900  0.86996600  1
  C  218  1  0.42093700  0.22242500  0.83927700  1
  C  219  1  0.42472300  0.27267400  0.84014100  1
  C  220  1  0.45653200  0.29416400  0.93437500  1
  C  222  1  0.41705300  0.30030400  0.80972900  1
  C  227  1  0.40952700  0.45531200  0.81377500  1
  C  230  1  0.44243000  0.44894000  0.94222800  1
  C  233  1  0.45317500  0.18762200  0.93292700  1
  C  236  1  0.40259600  0.19527800  0.80834200  1
  C  239  1  0.46473000  0.76850500  0.34005800  1
  C  240  1  0.46703700  0.73194000  0.36594700  1
  C  241  1  0.45232200  0.68495600  0.35762100  1
  C  242  1  0.43651100  0.67545000  0.32313900  1
  C  243  1  0.43513500  0.71027700  0.29659900  1
  C  244  1  0.45009700  0.75704500  0.30508900  1
  C  245  1  0.48385200  0.74408200  0.39978100  1
  C  246  1  0.45012900  0.79350400  0.27968400  1
  C  248  1  0.47564800  0.81655700  0.34936600  1
  C  249  1  0.48868500  0.82829200  0.38465600  1
  C  250  1  0.49581400  0.87639400  0.39469300  1
  C  251  1  0.49008300  0.91179500  0.36886900  1
  C  252  1  0.47787300  0.90158800  0.33370600  1
  C  253  1  0.47145900  0.85333700  0.32377900  1
  C  254  1  0.49353900  0.79091700  0.40905500  1
  C  256  1  0.46040600  0.84030000  0.28880000  1
  C  261  1  0.41587400  0.69609000  0.26136600  1
  C  264  1  0.44877000  0.64585800  0.38417900  1
  C  267  1  0.50425600  0.89226900  0.43185700  1
  C  270  1  0.46626500  0.94256100  0.31012200  1
  C  273  1  0.99299000  0.98666100  0.92786500  1
  C  274  1  0.02995800  0.01984800  0.92468000  1
  C  275  1  0.04429900  0.04800000  0.95363100  1
  C  276  1  0.02086100  0.04245200  0.98645700  1
  C  277  1  0.98216100  0.01086700  0.98900300  1
  C  279  1  0.96878000  0.98280500  0.96020200  1
  C  282  1  0.08452900  0.08143000  0.94989800  1
  C  290  1  0.91569300  0.13338500  0.50240200  1
  C  291  1  0.88668600  0.09313600  0.49891700  1
  C  292  1  0.87050700  0.06798600  0.52882900  1
  C  293  1  0.88409300  0.08379700  0.56289200  1
  C  294  1  0.91698100  0.12137500  0.56594600  1
  C  296  1  0.93188300  0.14654400  0.53611000  1
  C  299  1  0.83618200  0.02873600  0.52420700  1
  C  307  1  0.34427100  0.47521300  0.77338300  1
  C  308  1  0.30744100  0.50867500  0.77583400  1
  C  309  1  0.28873000  0.53089300  0.74544600  1
  C  310  1  0.30809000  0.51955400  0.71198800  1
  C  311  1  0.34594900  0.48697300  0.70976100  1
  C  313  1  0.36304600  0.46418500  0.73996800  1
  C  316  1  0.24881100  0.56480000  0.74861800  1
  C  324  1  0.48450300  0.65057800  0.24038900  1
  C  325  1  0.53254200  0.65946500  0.24768300  1
  C  326  1  0.56479000  0.62205900  0.25402500  1
  C  327  1  0.54828900  0.57455100  0.25286800  1
  C  328  1  0.49990400  0.56585500  0.24589900  1
  C  330  1  0.46856500  0.60330700  0.23913800  1
  C  333  1  0.61488700  0.63304400  0.26254900  1
  C  341  1  0.34283000  0.56157000  0.48044800  1
  C  342  1  0.39144800  0.57155400  0.48489400  1
  C  343  1  0.41620300  0.60094100  0.46098200  1
  C  344  1  0.39178100  0.61853500  0.43088800  1
  C  345  1  0.34419600  0.60546600  0.42522300  1
  C  347  1  0.31985300  0.57747700  0.44981500  1
  C  350  1  0.46576600  0.61464300  0.46914200  1
  C  358  1  0.85566500  0.56273800  0.26536100  1
  C  359  1  0.90054000  0.54144300  0.26117600  1
  C  360  1  0.91693500  0.50608100  0.28461400  1
  C  361  1  0.88870600  0.49424000  0.31446000  1
  C  362  1  0.84522500  0.51778800  0.31967800  1
  C  364  1  0.82864200  0.55125700  0.29526500  1
  C  367  1  0.96193400  0.48126300  0.27630400  1
  C  375  1  0.51967800  0.07169200  0.75532800  1
  C  376  1  0.47107300  0.07239400  0.74661700  1
  C  377  1  0.44199100  0.11151100  0.75520400  1
  C  378  1  0.46235900  0.15025500  0.77379700  1
  C  379  1  0.51022800  0.14827000  0.78413900  1
  C  381  1  0.53859100  0.10930100  0.77514500  1
  C  384  1  0.39220600  0.11262600  0.74254500  1
  C  392  1  0.97488300  0.47507800  0.50351300  1
  C  393  1  0.02320000  0.46844800  0.49594500  1
  C  394  1  0.05298900  0.50711800  0.48752400  1
  C  395  1  0.03360600  0.55353900  0.48670800  1
  C  396  1  0.98485000  0.55986500  0.49363900  1
  C  398  1  0.95603700  0.52128000  0.50261600  1
  C  401  1  0.10358800  0.49849900  0.47915100  1
  C  409  1  0.83206000  0.69071200  0.96640100  1
  C  410  1  0.79551300  0.65685400  0.96732000  1
  C  411  1  0.78362900  0.63271800  0.99879000  1
  C  412  1  0.80909900  0.64300300  0.03015600  1
  C  413  1  0.84651600  0.67625600  0.02887000  1
  C  415  1  0.85736700  0.70040600  0.99757600  1
  C  418  1  0.74506200  0.59702100  0.99846900  1
  C  426  1  0.39686500  0.98405700  0.28479600  1
  C  427  1  0.36415300  0.01641600  0.29914800  1
  C  428  1  0.33854600  0.04805800  0.27738600  1
  C  429  1  0.34658500  0.04721400  0.24049600  1
  C  430  1  0.38183600  0.01699000  0.22654500  1
  C  432  1  0.40603900  0.98507600  0.24832300  1
  C  435  1  0.30195900  0.07961000  0.29276400  1
  C  443  1  0.35541100  0.08165600  0.02106400  1
  C  444  1  0.40100400  0.09975200  0.02837800  1
  C  445  1  0.42231000  0.13413400  0.00642000  1
  C  446  1  0.39766800  0.14905900  0.97569300  1
  C  447  1  0.35388600  0.12808500  0.96703300  1
  C  449  1  0.33285700  0.09473000  0.98951300  1
  C  452  1  0.46801300  0.15579500  0.01710000  1
  C  460  1  0.83734600  0.05927300  0.75774400  1
  C  461  1  0.88457000  0.06516400  0.74647500  1
  C  462  1  0.91326300  0.02597400  0.73732000  1
  C  463  1  0.89447300  0.97945100  0.74143100  1
  C  464  1  0.84738600  0.97379000  0.75307500  1
  C  466  1  0.81903000  0.01320600  0.76094500  1
  C  469  1  0.96112100  0.03499200  0.72244700  1
  C  477  1  0.56569200  0.90749300  0.47578900  1
  C  478  1  0.59839000  0.94510400  0.47676800  1
  C  479  1  0.60984200  0.96823900  0.50873300  1
  C  480  1  0.58771200  0.95318200  0.54040400  1
  C  481  1  0.55484500  0.91547100  0.53929300  1
  C  483  1  0.54462000  0.89229700  0.50750700  1
  C  486  1  0.64368200  0.00846400  0.50869400  1
  C  494  1  0.95519100  0.64021900  0.74553300  1
  C  495  1  0.98684500  0.60168700  0.74559600  1
  C  496  1  0.00259700  0.58069300  0.71381500  1
  C  497  1  0.98640300  0.59935900  0.68120000  1
  C  498  1  0.95146900  0.63525100  0.68142600  1
  C  500  1  0.93686800  0.65616800  0.71310700  1
  C  503  1  0.03703500  0.54112800  0.71627900  1
  C  511  1  0.00691200  0.10356800  0.22165700  1
  C  512  1  0.97224700  0.13956400  0.22115200  1
  C  513  1  0.96691600  0.17155400  0.24956300  1
  C  514  1  0.99537900  0.16518400  0.28020500  1
  C  515  1  0.02816900  0.12755100  0.28129500  1
  C  517  1  0.03416100  0.09731000  0.25229400  1
  C  520  1  0.93310700  0.21151500  0.24572100  1
  C  528  1  0.49759400  0.47901200  0.98687800  1
  C  529  1  0.52198100  0.52244800  0.98842900  1
  C  530  1  0.53218800  0.54467300  0.02099900  1
  C  531  1  0.51792300  0.52226700  0.05280600  1
  C  532  1  0.49093900  0.48013400  0.05095200  1
  C  534  1  0.48174000  0.45826600  0.01851600  1
  C  537  1  0.55836100  0.59023800  0.02017600  1
  N  286  1  0.98424800  0.95528700  0.89961500  1
  N  288  1  0.03823700  0.06583500  0.01700200  1
  N  303  1  0.92075300  0.16347100  0.47297200  1
  N  305  1  0.86064000  0.06645000  0.59350700  1
  N  320  1  0.35855300  0.45103100  0.80418000  1
  N  322  1  0.28984400  0.54084900  0.68101000  1
  N  337  1  0.45389300  0.68959400  0.23473400  1
  N  339  1  0.57951500  0.53656100  0.26090000  1
  N  354  1  0.31500000  0.54112100  0.50751700  1
  N  356  1  0.40876000  0.65495100  0.40865800  1
  N  371  1  0.83489800  0.59170300  0.23899100  1
  N  373  1  0.89732400  0.45582100  0.33766500  1
  N  388  1  0.55155100  0.03873500  0.74004200  1
  N  390  1  0.43878600  0.19367800  0.78003600  1
  N  405  1  0.94709300  0.43507500  0.51226900  1
  N  407  1  0.06256000  0.59278600  0.47747100  1
  N  422  1  0.84136800  0.71433200  0.93424600  1
  N  424  1  0.79852400  0.61854500  0.06196300  1
  N  439  1  0.41403100  0.94729800  0.30650800  1
  N  441  1  0.31655100  0.07267600  0.21720200  1
  N  456  1  0.32807200  0.05833700  0.04714300  1
  N  458  1  0.41014600  0.18894400  0.95525500  1
  N  473  1  0.80693400  0.09803700  0.76482600  1
  N  475  1  0.91853400  0.93699900  0.73254500  1
  N  490  1  0.55455100  0.88687300  0.44281600  1
  N  492  1  0.59623500  0.97798200  0.57228200  1
  N  507  1  0.94885800  0.66607400  0.77707100  1
  N  509  1  0.00845500  0.58607100  0.64894500  1
  N  524  1  0.01855900  0.07666500  0.19131600  1
  N  526  1  0.99671900  0.19621800  0.30957200  1
  N  541  1  0.49216700  0.45626000  0.95389400  1
  N  543  1  0.53399600  0.53930600  0.08603400  1
