# generated using pymatgen
data_H13C20N6O5
_symmetry_space_group_name_H-M   'P 1'
_cell_length_a   16.08860000
_cell_length_b   36.04850000
_cell_length_c   36.04850000
_cell_angle_alpha   120.00000000
_cell_angle_beta   90.00000000
_cell_angle_gamma   90.00000000
_symmetry_Int_Tables_number   1
_chemical_formula_structural   H13C20N6O5
_chemical_formula_sum   'H78 C120 N36 O30'
_cell_volume   18106.03194570
_cell_formula_units_Z   6
loop_
 _symmetry_equiv_pos_site_id
 _symmetry_equiv_pos_as_xyz
  1  'x, y, z'
loop_
 _atom_site_type_symbol
 _atom_site_label
 _atom_site_symmetry_multiplicity
 _atom_site_fract_x
 _atom_site_fract_y
 _atom_site_fract_z
 _atom_site_occupancy
  C  1  1  0.00700000  0.50915600  0.51551300  1
  C  2  1  0.02670000  0.52909900  0.55974000  1
  C  3  1  0.02387800  0.50649600  0.58225900  1
  C  4  1  0.00562600  0.46218800  0.56010200  1
  C  5  1  0.98705100  0.44134400  0.51585600  1
  C  6  1  0.98630500  0.46496900  0.49434400  1
  C  9  1  0.00705000  0.53291700  0.49319000  1
  C  10  1  0.98661100  0.57713600  0.51438800  1
  C  11  1  0.98754200  0.60077100  0.49289000  1
  C  12  1  0.00595300  0.57990500  0.44862500  1
  C  13  1  0.02390000  0.53556300  0.42643000  1
  C  14  1  0.02658800  0.51294900  0.44894200  1
  C  21  1  0.97731000  0.39762000  0.49301500  1
  C  22  1  0.02960600  0.52849900  0.62616200  1
  C  23  1  0.97800100  0.64450400  0.51573500  1
  C  24  1  0.02940100  0.51354000  0.38251600  1
  C  29  1  0.34126200  0.04421400  0.51596000  1
  C  30  1  0.36086900  0.06854200  0.49604900  1
  C  31  1  0.35807200  0.11366800  0.51869800  1
  C  32  1  0.34005900  0.13577800  0.56303200  1
  C  33  1  0.32166700  0.11234100  0.58385600  1
  C  34  1  0.32078200  0.06721000  0.56018000  1
  C  37  1  0.34087900  0.99812800  0.49213000  1
  C  38  1  0.32020000  0.97520500  0.44793400  1
  C  39  1  0.32017200  0.93006700  0.42429600  1
  C  40  1  0.33790500  0.90657300  0.44513700  1
  C  41  1  0.35626900  0.92863100  0.48943200  1
  C  42  1  0.35995500  0.97373600  0.51203800  1
  C  49  1  0.31196800  0.13318200  0.62757800  1
  C  50  1  0.36315900  0.13557800  0.49668300  1
  C  51  1  0.31044200  0.90923900  0.38056900  1
  C  52  1  0.36107700  0.90673200  0.51146100  1
  C  57  1  0.67380300  0.51029600  0.98138500  1
  C  58  1  0.69300300  0.46601100  0.95706300  1
  C  59  1  0.68961400  0.44347500  0.91195000  1
  C  60  1  0.67132400  0.46565700  0.88982900  1
  C  61  1  0.65332400  0.50996300  0.91326000  1
  C  62  1  0.65312300  0.53150500  0.95840000  1
  C  65  1  0.67423800  0.53262400  0.02746800  1
  C  66  1  0.65375300  0.51148800  0.05054600  1
  C  67  1  0.65490100  0.53301000  0.09567800  1
  C  68  1  0.67357900  0.57724400  0.11902800  1
  C  69  1  0.69160400  0.59938400  0.09683200  1
  C  70  1  0.69408600  0.57683900  0.05170200  1
  C  77  1  0.64359000  0.53282100  0.89238800  1
  C  78  1  0.69485000  0.39955300  0.89006600  1
  C  79  1  0.64523000  0.51022500  0.11662300  1
  C  80  1  0.69715600  0.64329300  0.11868400  1
  C  85  1  0.93554100  0.48433000  0.32180600  1
  C  86  1  0.97051100  0.49453300  0.29195600  1
  C  87  1  0.92761100  0.48218600  0.25329800  1
  C  88  1  0.84979800  0.46108700  0.24426900  1
  C  89  1  0.81590000  0.44979000  0.27372600  1
  C  90  1  0.85987400  0.46158400  0.31202700  1
  C  92  1  0.80141600  0.46157400  0.21149700  1
  C  93  1  0.83057500  0.44222000  0.16895200  1
  C  94  1  0.79557300  0.45215300  0.13896100  1
  C  95  1  0.72884400  0.48200300  0.15211600  1
  C  96  1  0.69707700  0.50075500  0.19445600  1
  C  97  1  0.73316800  0.48982800  0.22342800  1
  C  115  1  0.26747900  0.87517100  0.54054900  1
  C  116  1  0.30277800  0.83526000  0.53057200  1
  C  117  1  0.26033200  0.80908100  0.54323500  1
  C  118  1  0.18246900  0.82109400  0.56429100  1
  C  119  1  0.14838000  0.86179500  0.57549000  1
  C  120  1  0.19196000  0.88818700  0.56341500  1
  C  122  1  0.13421700  0.78792900  0.56407400  1
  C  123  1  0.16361100  0.76478100  0.58342200  1
  C  124  1  0.12869500  0.72486000  0.57356000  1
  C  125  1  0.06194900  0.70811700  0.54374200  1
  C  126  1  0.02998500  0.73164000  0.52495400  1
  C  127  1  0.06588000  0.77157900  0.53587200  1
  C  145  1  0.60353200  0.70407200  0.15010300  1
  C  146  1  0.63827500  0.73392400  0.19020500  1
  C  147  1  0.59520800  0.77252000  0.21653600  1
  C  148  1  0.51717000  0.78136800  0.20452500  1
  C  149  1  0.48337800  0.75189600  0.16374200  1
  C  150  1  0.52756300  0.71367200  0.13722300  1
  C  152  1  0.46865800  0.81416400  0.23767600  1
  C  153  1  0.49740400  0.85678400  0.26070200  1
  C  154  1  0.46184500  0.88690400  0.30041600  1
  C  155  1  0.39526400  0.87372000  0.31716300  1
  C  156  1  0.36414800  0.83121700  0.29383400  1
  C  157  1  0.40071500  0.80214400  0.25410400  1
  C  175  1  0.93623200  0.55799300  0.68705200  1
  C  176  1  0.97105900  0.54772800  0.71688000  1
  C  177  1  0.92799600  0.55993900  0.75546100  1
  C  178  1  0.85009800  0.58092700  0.76439500  1
  C  179  1  0.81622800  0.59227500  0.73497000  1
  C  180  1  0.86033300  0.58054800  0.69672000  1
  C  182  1  0.80159100  0.58053500  0.79717600  1
  C  183  1  0.83038000  0.60017700  0.83980100  1
  C  184  1  0.79491500  0.59059300  0.86994700  1
  C  185  1  0.72830800  0.56068200  0.85681500  1
  C  186  1  0.69706200  0.54152500  0.81433800  1
  C  187  1  0.73351200  0.55218100  0.78524100  1
  C  205  1  0.26911800  0.16707400  0.46759900  1
  C  206  1  0.30399300  0.20713400  0.47777200  1
  C  207  1  0.26104000  0.23338200  0.46536100  1
  C  208  1  0.18326200  0.22123400  0.44423800  1
  C  209  1  0.14946700  0.18047000  0.43297100  1
  C  210  1  0.19348900  0.15402900  0.44483200  1
  C  212  1  0.13473900  0.25443900  0.44469800  1
  C  213  1  0.16364800  0.27757900  0.42524600  1
  C  214  1  0.12828800  0.31738700  0.43502300  1
  C  215  1  0.06148900  0.33403400  0.46484100  1
  C  216  1  0.03006600  0.31051300  0.48374000  1
  C  217  1  0.06648000  0.27071800  0.47294700  1
  C  235  1  0.60127800  0.33880900  0.85855800  1
  C  236  1  0.63652800  0.30890000  0.81861600  1
  C  237  1  0.59395300  0.27011500  0.79237200  1
  C  238  1  0.51603300  0.26109800  0.80434500  1
  C  239  1  0.48196100  0.29056800  0.84505900  1
  C  240  1  0.52567900  0.32897300  0.87152200  1
  C  242  1  0.46778100  0.22818100  0.77115300  1
  C  243  1  0.49711300  0.18567000  0.74801800  1
  C  244  1  0.46228600  0.15563400  0.70806500  1
  C  245  1  0.39568300  0.16874700  0.69127300  1
  C  246  1  0.36376200  0.21106900  0.71478600  1
  C  247  1  0.39956700  0.24006600  0.75475700  1
  H  7  1  0.04271100  0.56080600  0.57631200  1
  H  16  1  0.04235700  0.48121000  0.43234800  1
  H  17  1  0.06003800  0.43174400  0.58331200  1
  H  18  1  0.06050700  0.61024600  0.42534500  1
  H  19  1  0.96998900  0.44937200  0.46267100  1
  H  20  1  0.97040100  0.59275200  0.54607400  1
  H  25  1  0.08319300  0.51163900  0.36823800  1
  H  26  1  0.92160100  0.38459800  0.49015200  1
  H  27  1  0.08352600  0.53057400  0.64040900  1
  H  28  1  0.92217900  0.65764100  0.51937500  1
  H  35  1  0.37659400  0.05343700  0.46430600  1
  H  44  1  0.37593800  0.98878500  0.54374300  1
  H  45  1  0.39442400  0.18945400  0.59338200  1
  H  46  1  0.39146800  0.85267500  0.41478600  1
  H  47  1  0.30445600  0.05112200  0.57576200  1
  H  48  1  0.30431900  0.99134800  0.43235000  1
  H  53  1  0.41526800  0.89579600  0.51509000  1
  H  54  1  0.25610800  0.14267800  0.64066800  1
  H  55  1  0.41708300  0.14744000  0.49410800  1
  H  56  1  0.25498000  0.89848300  0.36751600  1
  H  63  1  0.70900400  0.44940600  0.97216300  1
  H  72  1  0.70986100  0.59339800  0.03652300  1
  H  73  1  0.72518900  0.44220700  0.83601600  1
  H  74  1  0.72829000  0.60048700  0.17260800  1
  H  75  1  0.63715200  0.56322200  0.97450500  1
  H  76  1  0.63730700  0.47983400  0.03452000  1
  H  81  1  0.75103300  0.65760900  0.13084100  1
  H  82  1  0.58809600  0.53517400  0.88170100  1
  H  83  1  0.74891200  0.38517200  0.87842700  1
  H  84  1  0.58931100  0.50658500  0.12603000  1
  H  91  1  0.83380100  0.45545100  0.33436000  1
  H  98  1  0.88183500  0.42281800  0.16054700  1
  H  99  1  0.71408000  0.50589900  0.25472400  1
  H  100  1  0.95046500  0.49244200  0.23342500  1
  H  102  1  0.87485200  0.41367600  0.09046100  1
  H  103  1  0.80645000  0.43933900  0.07707100  1
  H  107  1  0.71989900  0.42135800  0.28732000  1
  H  108  1  0.71116500  0.41898800  0.24037800  1
  H  121  1  0.16560300  0.91652700  0.56933600  1
  H  128  1  0.21495800  0.77580000  0.60275400  1
  H  129  1  0.04676400  0.78668900  0.51969300  1
  H  130  1  0.28327600  0.77899200  0.53307600  1
  H  132  1  0.20814200  0.71489500  0.61201100  1
  H  133  1  0.13978100  0.67580400  0.58639000  1
  H  137  1  0.05261000  0.90389800  0.60415300  1
  H  138  1  0.04428400  0.85945400  0.60679200  1
  H  151  1  0.50154400  0.69131700  0.10875000  1
  H  158  1  0.54839600  0.86526400  0.24959500  1
  H  159  1  0.38191200  0.77080400  0.23901700  1
  H  160  1  0.61793200  0.79241800  0.24668400  1
  H  162  1  0.54049200  0.93555400  0.31019900  1
  H  163  1  0.47180900  0.94902000  0.34914900  1
  H  167  1  0.38745000  0.73818900  0.12166500  1
  H  168  1  0.37842200  0.78508700  0.16626000  1
  H  181  1  0.83425400  0.58665200  0.67436600  1
  H  188  1  0.88146800  0.61969200  0.84821700  1
  H  189  1  0.71473200  0.53590700  0.75390100  1
  H  190  1  0.95085600  0.54977500  0.77540700  1
  H  192  1  0.87374200  0.62941100  0.91852500  1
  H  193  1  0.80512000  0.60394300  0.93204200  1
  H  197  1  0.72020400  0.62063900  0.72130400  1
  H  198  1  0.71129000  0.62293800  0.76820500  1
  H  211  1  0.16747700  0.12556700  0.43874500  1
  H  218  1  0.21491500  0.26661600  0.40584500  1
  H  219  1  0.04757800  0.25553300  0.48908700  1
  H  220  1  0.28380200  0.26352400  0.47560200  1
  H  222  1  0.20734100  0.32737800  0.39644200  1
  H  223  1  0.13866100  0.36632000  0.42196300  1
  H  227  1  0.05357300  0.13836800  0.40454000  1
  H  228  1  0.04473500  0.18290000  0.40210200  1
  H  241  1  0.49936300  0.35136000  0.89988900  1
  H  248  1  0.54837400  0.17733200  0.75907500  1
  H  249  1  0.38050400  0.27136400  0.76986300  1
  H  250  1  0.61690000  0.25020400  0.76227800  1
  H  252  1  0.54156900  0.10717800  0.69815600  1
  H  253  1  0.47335800  0.09375000  0.65901000  1
  H  257  1  0.38612300  0.30402000  0.88712800  1
  H  258  1  0.37768200  0.25700200  0.84261800  1
  N  101  1  0.82917600  0.43403200  0.09897800  1
  N  104  1  0.63496800  0.53283900  0.20847100  1
  N  105  1  0.04327400  0.51986600  0.30244900  1
  N  106  1  0.74196400  0.42900200  0.26688800  1
  N  113  1  0.71206100  0.49935500  0.12808600  1
  N  114  1  0.96042800  0.50149600  0.36208000  1
  N  131  1  0.16242700  0.70302900  0.59168200  1
  N  134  1  0.96786400  0.71352000  0.49287400  1
  N  135  1  0.37542300  0.82043000  0.50513300  1
  N  136  1  0.07451700  0.87575400  0.59636200  1
  N  143  1  0.04493400  0.66676100  0.52647000  1
  N  144  1  0.29186600  0.89790500  0.52290100  1
  N  161  1  0.49478300  0.92705200  0.32203700  1
  N  164  1  0.30219700  0.81714300  0.31192900  1
  N  165  1  0.71118600  0.72351300  0.20500900  1
  N  166  1  0.40929200  0.75859300  0.14980400  1
  N  173  1  0.37748900  0.89814900  0.35839500  1
  N  174  1  0.62821200  0.66375400  0.12710400  1
  N  191  1  0.82800700  0.60909200  0.91006100  1
  N  194  1  0.63508700  0.50937400  0.80030800  1
  N  195  1  0.04396100  0.52249900  0.70642300  1
  N  196  1  0.74220900  0.61298300  0.74173800  1
  N  203  1  0.71061400  0.54387900  0.88125100  1
  N  204  1  0.96076600  0.54065200  0.64670900  1
  N  221  1  0.16161600  0.33918800  0.41677200  1
  N  224  1  0.96794300  0.32853000  0.51582100  1
  N  225  1  0.37668400  0.22203100  0.50315900  1
  N  226  1  0.07556700  0.16645000  0.41216100  1
  N  233  1  0.04422500  0.37534400  0.48193400  1
  N  234  1  0.29401400  0.14410900  0.48491200  1
  N  251  1  0.49595800  0.11566700  0.68625400  1
  N  254  1  0.30179000  0.22505900  0.69662200  1
  N  255  1  0.70927600  0.31945100  0.80381400  1
  N  256  1  0.40801900  0.28368800  0.85897400  1
  N  263  1  0.37882400  0.14469300  0.64989900  1
  N  264  1  0.62581400  0.37915600  0.88146400  1
  O  8  1  0.00248500  0.43990300  0.58157200  1
  O  15  1  0.00291300  0.60219800  0.42716200  1
  O  36  1  0.33685200  0.17952900  0.58534700  1
  O  43  1  0.33402700  0.86283600  0.42284200  1
  O  64  1  0.66771300  0.44417400  0.84608400  1
  O  71  1  0.67067800  0.59874500  0.16278800  1
  O  109  1  0.57126500  0.52244300  0.22132400  1
  O  110  1  0.02973600  0.55526800  0.30467600  1
  O  111  1  0.66071900  0.56837400  0.23793600  1
  O  112  1  0.10019300  0.50081700  0.27567100  1
  O  139  1  0.90408600  0.73671300  0.50327000  1
  O  140  1  0.36186300  0.78709400  0.46986900  1
  O  141  1  0.99355800  0.70746400  0.45733300  1
  O  142  1  0.43266800  0.81295700  0.52421100  1
  O  169  1  0.23872000  0.80390500  0.28854400  1
  O  170  1  0.69779000  0.72120600  0.23815200  1
  O  171  1  0.32834000  0.78795000  0.31832700  1
  O  172  1  0.76792100  0.75039200  0.21278100  1
  O  199  1  0.57156400  0.51953800  0.78711400  1
  O  200  1  0.03057300  0.48704200  0.70409900  1
  O  201  1  0.66116200  0.47377800  0.77109600  1
  O  202  1  0.10072800  0.54158900  0.73328900  1
  O  229  1  0.90442000  0.30516500  0.50549300  1
  O  230  1  0.36302200  0.25521400  0.53853500  1
  O  231  1  0.99381900  0.33476600  0.55139700  1
  O  232  1  0.43362700  0.22978100  0.48413600  1
  O  259  1  0.23793700  0.23786700  0.71976100  1
  O  260  1  0.69583000  0.32147300  0.77051800  1
  O  261  1  0.32761500  0.25454400  0.69060000  1
  O  262  1  0.76638500  0.29281900  0.79629200  1
