# generated using pymatgen
data_H42C57N2
_symmetry_space_group_name_H-M   'P 1'
_cell_length_a   9.71766667
_cell_length_b   25.17332500
_cell_length_c   25.17335000
_cell_angle_alpha   120.00009856
_cell_angle_beta   90.00000000
_cell_angle_gamma   90.00000000
_symmetry_Int_Tables_number   1
_chemical_formula_structural   H42C57N2
_chemical_formula_sum   'H42 C57 N2'
_cell_volume   5333.02715687
_cell_formula_units_Z   1
loop_
 _symmetry_equiv_pos_site_id
 _symmetry_equiv_pos_as_xyz
  1  'x, y, z'
loop_
 _atom_site_type_symbol
 _atom_site_label
 _atom_site_symmetry_multiplicity
 _atom_site_fract_x
 _atom_site_fract_y
 _atom_site_fract_z
 _atom_site_occupancy
  C  2  1  0.95848800  0.59545000  0.25740500  1
  C  3  1  0.95717800  0.59490250  0.35610450  1
  C  4  1  0.95650600  0.69427100  0.35677000  1
  C  5  1  0.07139800  0.72935050  0.35804750  1
  C  6  1  0.06849600  0.79431850  0.39104750  1
  C  7  1  0.95014150  0.82772400  0.42396800  1
  C  8  1  0.83525900  0.79191400  0.42216600  1
  C  9  1  0.83847400  0.72697800  0.38970900  1
  C  10  1  0.84047000  0.59415950  0.22395250  1
  C  11  1  0.83903100  0.56125050  0.15900350  1
  C  12  1  0.95586800  0.52846450  0.12397550  1
  C  13  1  0.07424550  0.53056550  0.15810650  1
  C  14  1  0.07529300  0.56285450  0.22308550  1
  C  15  1  0.83905100  0.56232200  0.35643100  1
  C  16  1  0.83679300  0.52950000  0.38854900  1
  C  17  1  0.95231700  0.52731350  0.42208250  1
  C  18  1  0.07024500  0.56045300  0.42149100  1
  C  19  1  0.07272000  0.59333650  0.38940350  1
  C  33  1  0.95640900  0.32900350  0.72305750  1
  C  34  1  0.95297700  0.32741250  0.62306450  1
  C  35  1  0.95073500  0.22885450  0.62390150  1
  C  36  1  0.84395800  0.19649200  0.63369400  1
  C  37  1  0.84041900  0.13153500  0.60215800  1
  C  38  1  0.94092200  0.09534450  0.55772650  1
  C  39  1  0.04859300  0.12812950  0.54868950  1
  C  40  1  0.05388200  0.19304200  0.58118600  1
  C  41  1  0.84937100  0.37045100  0.75666600  1
  C  42  1  0.84800050  0.40308850  0.82155350  1
  C  43  1  0.95089500  0.39452850  0.85653950  1
  C  44  1  0.05903700  0.35351250  0.82266950  1
  C  45  1  0.06197700  0.32175850  0.75765950  1
  C  46  1  0.82725800  0.34253650  0.60556250  1
  C  47  1  0.82401600  0.37489050  0.57299550  1
  C  48  1  0.94618100  0.39202200  0.55446500  1
  C  49  1  0.07194300  0.37709150  0.57263850  1
  C  50  1  0.07526700  0.34583150  0.60632950  1
  C  63  1  0.95372900  0.49448700  0.05723200  1
  C  64  1  0.83860850  0.45878000  0.02378700  1
  C  65  1  0.83346600  0.42494250  0.95841750  1
  C  66  1  0.94719800  0.42681900  0.92323200  1
  C  67  1  0.06317000  0.46179350  0.95671050  1
  C  69  1  0.06655000  0.49439400  0.02155800  1
  C  72  1  0.71066600  0.38569300  0.92859500  1
  C  76  1  0.94987100  0.49303650  0.45468150  1
  C  77  1  0.88057300  0.43600350  0.43109650  1
  C  78  1  0.87647300  0.40143300  0.46189700  1
  C  79  1  0.94350500  0.42411200  0.51988300  1
  C  80  1  0.01437750  0.48070150  0.54315150  1
  C  82  1  0.01736150  0.51405200  0.51166500  1
  C  85  1  0.80703600  0.34048150  0.43077850  1
  C  89  1  0.94621500  0.89448800  0.45724900  1
  C  90  1  0.82856500  0.92761550  0.45677950  1
  C  91  1  0.82196700  0.99298600  0.48866900  1
  C  92  1  0.93693400  0.02857950  0.52422150  1
  C  93  1  0.05510300  0.99538100  0.52413200  1
  C  95  1  0.05976950  0.93055950  0.49165850  1
  C  98  1  0.69613100  0.02240300  0.48108800  1
  H  20  1  0.75115500  0.56247050  0.13727050  1
  H  21  1  0.75383600  0.61717700  0.24706200  1
  H  22  1  0.16267500  0.56258050  0.24558350  1
  H  23  1  0.16110500  0.50710450  0.13570550  1
  H  24  1  0.15874800  0.70742600  0.33472400  1
  H  25  1  0.15395700  0.81725650  0.38956150  1
  H  26  1  0.75283700  0.56274450  0.33334750  1
  H  27  1  0.74735600  0.50785100  0.38804600  1
  H  28  1  0.15800300  0.55994950  0.44364650  1
  H  29  1  0.16053900  0.61601100  0.38999000  1
  H  30  1  0.75320700  0.70332500  0.39001800  1
  H  31  1  0.74755700  0.81304200  0.44576200  1
  H  51  1  0.77057850  0.43399900  0.84324000  1
  H  52  1  0.77114300  0.37759950  0.73385550  1
  H  53  1  0.14125900  0.29216900  0.73532500  1
  H  54  1  0.13646950  0.34557100  0.84536600  1
  H  55  1  0.76868400  0.22041300  0.66506000  1
  H  56  1  0.76391400  0.11070150  0.61295350  1
  H  57  1  0.73644150  0.33060750  0.61731550  1
  H  58  1  0.73025000  0.38660900  0.56350400  1
  H  59  1  0.16344100  0.38842550  0.56074750  1
  H  60  1  0.16833400  0.33591450  0.61826950  1
  H  61  1  0.13386600  0.21432350  0.57297850  1
  H  62  1  0.12457500  0.10468300  0.51747900  1
  H  68  1  0.75680900  0.45617650  0.04799650  1
  H  70  1  0.14717100  0.46474450  0.93377350  1
  H  71  1  0.15232200  0.51976900  0.04274500  1
  H  73  1  0.64318100  0.38199850  0.96129350  1
  H  74  1  0.74295200  0.33929600  0.89489900  1
  H  75  1  0.64970400  0.40475900  0.90579100  1
  H  81  1  0.83418900  0.41818700  0.38913200  1
  H  83  1  0.06377900  0.49903500  0.58454300  1
  H  84  1  0.06779100  0.55522450  0.53191950  1
  H  86  1  0.77696100  0.32613550  0.38369550  1
  H  87  1  0.71385300  0.34195300  0.45553300  1
  H  88  1  0.87595300  0.30539350  0.42901050  1
  H  94  1  0.74586500  0.90317200  0.43093900  1
  H  96  1  0.14019050  0.01852950  0.54886850  1
  H  97  1  0.14745900  0.90968550  0.49459450  1
  H  99  1  0.62692100  0.98949100  0.44576600  1
  H  100  1  0.72453250  0.05616900  0.46789500  1
  H  101  1  0.63834900  0.04503450  0.52387750  1
  N  1  1  0.95960900  0.62825000  0.32343500  1
  N  32  1  0.95648100  0.29505550  0.65680250  1
