# generated using pymatgen
data_H2C4N
_symmetry_space_group_name_H-M   'P 1'
_cell_length_a   15.26670000
_cell_length_b   25.76805000
_cell_length_c   25.76805000
_cell_angle_alpha   60.00000000
_cell_angle_beta   89.99850000
_cell_angle_gamma   89.99700000
_symmetry_Int_Tables_number   1
_chemical_formula_structural   H2C4N
_chemical_formula_sum   'H72 C144 N36'
_cell_volume   8778.87593753
_cell_formula_units_Z   36
loop_
 _symmetry_equiv_pos_site_id
 _symmetry_equiv_pos_as_xyz
  1  'x, y, z'
loop_
 _atom_site_type_symbol
 _atom_site_label
 _atom_site_symmetry_multiplicity
 _atom_site_fract_x
 _atom_site_fract_y
 _atom_site_fract_z
 _atom_site_occupancy
  C  1  1  0.97976600  0.45966000  0.20721200  1
  C  2  1  0.92834700  0.42489700  0.25994850  1
  C  3  1  0.93749700  0.36125150  0.29390500  1
  C  4  1  0.99651600  0.33396900  0.27256850  1
  C  5  1  0.04876000  0.36649150  0.22116400  1
  C  6  1  0.03991000  0.42994500  0.18822500  1
  C  7  1  0.87516000  0.45610100  0.28011350  1
  C  8  1  0.08719600  0.46467100  0.13467000  1
  C  10  1  0.97291500  0.52392900  0.17437000  1
  C  11  1  0.91596800  0.55427300  0.19461350  1
  C  12  1  0.91033500  0.61830700  0.16255550  1
  C  13  1  0.96423600  0.65065000  0.11143550  1
  C  14  1  0.02148100  0.62193300  0.09066450  1
  C  15  1  0.02518600  0.55814950  0.12208200  1
  C  16  1  0.86966300  0.51870250  0.24868250  1
  C  18  1  0.08060600  0.52710250  0.10277050  1
  C  23  1  0.31320400  0.10560000  0.21312575  1
  C  24  1  0.26168000  0.15828700  0.19519700  1
  C  25  1  0.27081800  0.19224400  0.22488100  1
  C  26  1  0.32988800  0.17094550  0.27346950  1
  C  27  1  0.38215200  0.11954300  0.29236275  1
  C  28  1  0.37338800  0.08664700  0.26180000  1
  C  29  1  0.20842800  0.17841250  0.14386300  1
  C  30  1  0.42073200  0.03311850  0.28060150  1
  C  32  1  0.30638000  0.07275750  0.18169725  1
  C  33  1  0.24939200  0.09297400  0.13112900  1
  C  34  1  0.24377200  0.06091600  0.09915400  1
  C  35  1  0.29770600  0.00981150  0.11792125  1
  C  36  1  0.35498200  0.98906200  0.16739125  1
  C  37  1  0.35869500  0.02049100  0.19974625  1
  C  38  1  0.20307600  0.14703550  0.11263350  1
  C  40  1  0.41416100  0.00120850  0.25007650  1
  C  45  1  0.64643300  0.11153100  0.56133000  1
  C  46  1  0.59496800  0.09362200  0.52653225  1
  C  47  1  0.60410600  0.12337200  0.46288150  1
  C  48  1  0.66326100  0.17191400  0.43564300  1
  C  49  1  0.71549200  0.19075550  0.46820350  1
  C  50  1  0.70663100  0.16020000  0.53165600  1
  C  51  1  0.54168100  0.04230200  0.55769950  1
  C  52  1  0.75393500  0.17897000  0.56642250  1
  C  54  1  0.63956800  0.08006950  0.62559950  1
  C  55  1  0.58256300  0.02950900  0.65591200  1
  C  56  1  0.57694900  0.99747950  0.71994550  1
  C  57  1  0.63086900  0.01620450  0.75232300  1
  C  58  1  0.68815700  0.06566550  0.72364050  1
  C  59  1  0.69187200  0.09807300  0.65985800  1
  C  60  1  0.53626600  0.01105400  0.62030450  1
  C  62  1  0.74734000  0.14840350  0.62885325  1
  C  67  1  0.97973900  0.32476000  0.78067200  1
  C  68  1  0.92828800  0.35955150  0.72795375  1
  C  69  1  0.93741900  0.42319950  0.69405950  1
  C  70  1  0.99646600  0.45044700  0.71541800  1
  C  71  1  0.04859600  0.41790250  0.76688100  1
  C  72  1  0.03986400  0.35444100  0.79970100  1
  C  73  1  0.87509900  0.32837200  0.70776700  1
  C  74  1  0.08719600  0.31968400  0.85322450  1
  C  76  1  0.97292700  0.26048750  0.81346550  1
  C  77  1  0.91596800  0.23016700  0.79320150  1
  C  78  1  0.91032900  0.16613500  0.82522750  1
  C  79  1  0.96426700  0.13376600  0.87632550  1
  C  80  1  0.02152400  0.16245200  0.89712100  1
  C  81  1  0.02522400  0.22623600  0.86573600  1
  C  82  1  0.86968400  0.26576950  0.73912875  1
  C  84  1  0.08066600  0.25724850  0.88506750  1
  C  89  1  0.31316600  0.67879900  0.77468400  1
  C  90  1  0.26174000  0.62606600  0.79266350  1
  C  91  1  0.27089600  0.59209450  0.76299350  1
  C  92  1  0.32994600  0.61340500  0.71439200  1
  C  93  1  0.38219800  0.66480200  0.69550700  1
  C  94  1  0.37333700  0.69776200  0.72599950  1
  C  95  1  0.20853800  0.60592550  0.84402000  1
  C  96  1  0.42062300  0.75131400  0.70716450  1
  C  98  1  0.30628800  0.71166700  0.80608300  1
  C  99  1  0.24930800  0.69145600  0.85664800  1
  C  100  1  0.24363400  0.72354500  0.88858950  1
  C  101  1  0.29753000  0.77466400  0.86980750  1
  C  102  1  0.35481200  0.79540200  0.82034400  1
  C  103  1  0.35855700  0.76395650  0.78800700  1
  C  104  1  0.20300400  0.63738400  0.87516050  1
  C  106  1  0.41401100  0.78324100  0.73767000  1
  C  111  1  0.64652400  0.67291800  0.42649600  1
  C  112  1  0.59503900  0.69082600  0.46128925  1
  C  113  1  0.60423800  0.66113000  0.52492900  1
  C  114  1  0.66337700  0.61257450  0.55218300  1
  C  115  1  0.71558300  0.59370400  0.51963200  1
  C  116  1  0.70672000  0.62424300  0.45618250  1
  C  117  1  0.54177500  0.74215950  0.43010750  1
  C  118  1  0.75402600  0.60546000  0.42142550  1
  C  120  1  0.63966500  0.70437200  0.36222650  1
  C  121  1  0.58269100  0.75495100  0.33190150  1
  C  122  1  0.57706600  0.78696500  0.26786950  1
  C  123  1  0.63098000  0.76821850  0.23550400  1
  C  124  1  0.68823800  0.71873700  0.26419475  1
  C  125  1  0.69195700  0.68634750  0.32797750  1
  C  126  1  0.53639500  0.77341800  0.36750150  1
  C  128  1  0.74741900  0.63600900  0.35899450  1
  C  133  1  0.18841300  0.70521000  0.94013100  1
  C  134  1  0.22131200  0.69406400  0.99606125  1
  C  135  1  0.16688900  0.66955500  0.04756375  1
  C  136  1  0.07779000  0.65764600  0.04097700  1
  C  143  1  0.52191300  0.83854800  0.23467300  1
  C  144  1  0.55484100  0.89445550  0.18985850  1
  C  145  1  0.50046800  0.94598350  0.16287900  1
  C  146  1  0.41135200  0.93941050  0.18131250  1
  C  153  1  0.85517000  0.13295350  0.80683400  1
  C  154  1  0.88808800  0.08815900  0.79571050  1
  C  155  1  0.83366300  0.06114400  0.77122750  1
  C  156  1  0.74451000  0.07952400  0.75941150  1
  C  163  1  0.18856800  0.07925450  0.04760600  1
  C  164  1  0.22148200  0.09040450  0.99167900  1
  C  165  1  0.16705000  0.11487600  0.94018200  1
  C  166  1  0.07789400  0.12668500  0.94674675  1
  C  173  1  0.52173500  0.94593900  0.75312450  1
  C  174  1  0.55464400  0.88999200  0.79787500  1
  C  175  1  0.50022600  0.83848900  0.82485700  1
  C  176  1  0.41112200  0.84508600  0.80636800  1
  C  183  1  0.85517400  0.65150900  0.18092950  1
  C  184  1  0.88809100  0.69633400  0.19200950  1
  C  185  1  0.83371500  0.72329750  0.21657150  1
  C  186  1  0.74460200  0.70485100  0.22843800  1
  C  193  1  0.88833200  0.32210600  0.34578750  1
  C  194  1  0.92431800  0.27023100  0.39514475  1
  C  195  1  0.87053000  0.22569500  0.43999225  1
  C  196  1  0.77842500  0.23553350  0.43432800  1
  C  203  1  0.22148800  0.24404300  0.21222400  1
  C  204  1  0.25750200  0.29344600  0.21465750  1
  C  205  1  0.20374400  0.33832200  0.21432350  1
  C  206  1  0.11162800  0.33253050  0.21032500  1
  C  213  1  0.55484100  0.11073300  0.42369950  1
  C  214  1  0.59089900  0.11317750  0.37186800  1
  C  215  1  0.53714900  0.11279400  0.32734575  1
  C  216  1  0.44503300  0.10875800  0.33713900  1
  C  223  1  0.88826100  0.46238800  0.64217600  1
  C  224  1  0.92434500  0.51422900  0.59282550  1
  C  225  1  0.87060900  0.55876800  0.54793250  1
  C  226  1  0.77851300  0.54891700  0.55351675  1
  C  233  1  0.22167200  0.54023800  0.77571050  1
  C  234  1  0.25758600  0.49086700  0.77317925  1
  C  235  1  0.20374400  0.44604400  0.77348650  1
  C  236  1  0.11166800  0.45181400  0.77763050  1
  C  243  1  0.55491300  0.67375100  0.56409950  1
  C  244  1  0.59093400  0.67130650  0.61594050  1
  C  245  1  0.53718100  0.67163600  0.66048825  1
  C  246  1  0.44506000  0.67563200  0.65070500  1
  H  9  1  0.00221400  0.28810800  0.29563150  1
  H  17  1  0.96184300  0.69660000  0.08850100  1
  H  19  1  0.83264800  0.53771300  0.26778550  1
  H  20  1  0.84181100  0.43388450  0.31975725  1
  H  21  1  0.11781200  0.54948000  0.06483300  1
  H  22  1  0.12805600  0.44498500  0.11802250  1
  H  31  1  0.33552800  0.19399800  0.29628325  1
  H  39  1  0.29532200  0.98687800  0.09490500  1
  H  41  1  0.16598200  0.16610100  0.07455800  1
  H  42  1  0.17511300  0.21807150  0.12640750  1
  H  43  1  0.45140100  0.96328900  0.26562150  1
  H  44  1  0.46161300  0.01648300  0.31692300  1
  H  53  1  0.66897100  0.19474100  0.38978400  1
  H  61  1  0.62847300  0.99315400  0.79827350  1
  H  63  1  0.49921900  0.97295800  0.63929300  1
  H  64  1  0.50842100  0.02485800  0.53546725  1
  H  65  1  0.78457600  0.16391600  0.65125800  1
  H  66  1  0.79485200  0.21527400  0.54677000  1
  H  75  1  0.00216200  0.49631050  0.69237850  1
  H  83  1  0.96188500  0.08781600  0.89922600  1
  H  85  1  0.83254400  0.24678300  0.72006050  1
  H  86  1  0.84170700  0.35061200  0.66814100  1
  H  87  1  0.11789000  0.23484600  0.92299450  1
  H  88  1  0.12805000  0.33934600  0.86989950  1
  H  97  1  0.33563800  0.59033300  0.69160100  1
  H  105  1  0.29511200  0.79761750  0.89280350  1
  H  107  1  0.16596800  0.61830100  0.91326350  1
  H  108  1  0.17519200  0.56627850  0.86146250  1
  H  109  1  0.45121000  0.82117850  0.72210100  1
  H  110  1  0.46150200  0.76794600  0.67084250  1
  H  119  1  0.66909500  0.58976100  0.59804200  1
  H  127  1  0.62859700  0.79126200  0.18955400  1
  H  129  1  0.49930300  0.81149750  0.34851350  1
  H  130  1  0.50848600  0.75960500  0.45233150  1
  H  131  1  0.78465400  0.62048500  0.33659750  1
  H  132  1  0.79494400  0.56915350  0.44108725  1
  H  140  1  0.26270800  0.66556400  0.10473800  1
  H  141  1  0.16607400  0.64083300  0.13726050  1
  H  142  1  0.28644600  0.70095950  0.00002950  1
  H  150  1  0.59638300  0.00318800  0.10985925  1
  H  151  1  0.49975900  0.03572850  0.10205350  1
  H  152  1  0.61999800  0.89840400  0.17905800  1
  H  160  1  0.92950700  0.00800800  0.76717125  1
  H  161  1  0.83283700  0.00014700  0.74253650  1
  H  162  1  0.95323200  0.07731300  0.80258750  1
  H  170  1  0.26291200  0.11898200  0.88298050  1
  H  171  1  0.16623000  0.14360400  0.85048650  1
  H  172  1  0.28663600  0.08354900  0.98770350  1
  H  180  1  0.59605700  0.78130450  0.87801900  1
  H  181  1  0.49942500  0.74878500  0.88581050  1
  H  182  1  0.61978100  0.88601950  0.80873500  1
  H  190  1  0.92961700  0.77631700  0.22076700  1
  H  191  1  0.83298900  0.78410350  0.24551350  1
  H  192  1  0.95325100  0.70713500  0.18516050  1
  H  200  1  0.97194500  0.16807400  0.48280275  1
  H  201  1  0.87460800  0.13958950  0.51021950  1
  H  202  1  0.99075800  0.26385200  0.39745200  1
  H  210  1  0.30518700  0.38114050  0.22907950  1
  H  211  1  0.20785000  0.40849600  0.23028000  1
  H  212  1  0.32395400  0.29577400  0.21867400  1
  H  220  1  0.63861300  0.12763200  0.26975300  1
  H  221  1  0.54129600  0.12877800  0.24120700  1
  H  222  1  0.65734100  0.11722650  0.36551550  1
  H  230  1  0.97209700  0.61628950  0.50499375  1
  H  231  1  0.87481200  0.64477400  0.47745450  1
  H  232  1  0.99077600  0.52062100  0.59059900  1
  H  240  1  0.30506900  0.40318200  0.75867000  1
  H  241  1  0.20768000  0.37586450  0.75754050  1
  H  242  1  0.32402000  0.48852600  0.76910900  1
  H  250  1  0.63863200  0.65689000  0.71805650  1
  H  251  1  0.54129700  0.65569200  0.74661300  1
  H  252  1  0.65738400  0.66729900  0.62228200  1
  N  137  1  0.05067200  0.67024800  0.98561150  1
  N  138  1  0.10205500  0.69291200  0.93858100  1
  N  139  1  0.20160200  0.65691900  0.10121500  1
  N  147  1  0.38418300  0.88407700  0.22411750  1
  N  148  1  0.43555000  0.83703350  0.24851350  1
  N  149  1  0.53519700  0.99962750  0.12186450  1
  N  157  1  0.71743600  0.12236450  0.77192925  1
  N  158  1  0.76880500  0.14678050  0.79454700  1
  N  159  1  0.86838000  0.02013600  0.75858250  1
  N  167  1  0.05082200  0.11416200  0.00210575  1
  N  168  1  0.10220200  0.09154900  0.04913800  1
  N  169  1  0.20177800  0.12755200  0.88652300  1
  N  177  1  0.38399800  0.90045600  0.76362200  1
  N  178  1  0.43537700  0.94748800  0.73927300  1
  N  179  1  0.53494900  0.78483100  0.86585550  1
  N  187  1  0.71744300  0.66205500  0.21589400  1
  N  188  1  0.76881200  0.63766700  0.19324300  1
  N  189  1  0.86843100  0.76430500  0.22921300  1
  N  197  1  0.74906200  0.28650300  0.38541900  1
  N  198  1  0.79980500  0.32711400  0.34441500  1
  N  199  1  0.90884000  0.17396900  0.48228900  1
  N  207  1  0.08222400  0.28369700  0.20815650  1
  N  208  1  0.13297600  0.24271200  0.20851625  1
  N  209  1  0.24207000  0.38060000  0.22376700  1
  N  217  1  0.41561100  0.10656550  0.38815050  1
  N  218  1  0.46633500  0.10695700  0.42877250  1
  N  219  1  0.57550100  0.12228400  0.27561250  1
  N  227  1  0.74905500  0.49794500  0.60238050  1
  N  228  1  0.79974700  0.45733700  0.64344150  1
  N  229  1  0.90894500  0.61050500  0.50569925  1
  N  237  1  0.08232200  0.50068050  0.77976700  1
  N  238  1  0.13314600  0.54164200  0.77938125  1
  N  239  1  0.24197000  0.40373200  0.76405000  1
  N  247  1  0.41565100  0.67780650  0.59970275  1
  N  248  1  0.46639500  0.67745850  0.55906825  1
  N  249  1  0.57551300  0.66219800  0.71220650  1
