# generated using pymatgen
data_H16(C4N)5
_symmetry_space_group_name_H-M   'P 1'
_cell_length_a   31.50208220
_cell_length_b   31.50870000
_cell_length_c   52.12530000
_cell_angle_alpha   91.17160000
_cell_angle_beta   90.00000372
_cell_angle_gamma   119.99284248
_symmetry_Int_Tables_number   1
_chemical_formula_structural   H16(C4N)5
_chemical_formula_sum   'H192 C240 N60'
_cell_volume   44798.05946809
_cell_formula_units_Z   12
loop_
 _symmetry_equiv_pos_site_id
 _symmetry_equiv_pos_as_xyz
  1  'x, y, z'
loop_
 _atom_site_type_symbol
 _atom_site_label
 _atom_site_symmetry_multiplicity
 _atom_site_fract_x
 _atom_site_fract_y
 _atom_site_fract_z
 _atom_site_occupancy
  H  10  1  0.24899800  0.72932200  0.66535500  1
  H  11  1  0.26790600  0.66747500  0.73170600  1
  H  14  1  0.22171500  0.68324000  0.76482200  1
  H  15  1  0.22254800  0.66589800  0.79427800  1
  H  16  1  0.32027300  0.85808100  0.72494100  1
  H  17  1  0.32041200  0.83329500  0.75232900  1
  H  27  1  0.21816100  0.56998200  0.08322900  1
  H  28  1  0.25729300  0.59908200  0.16073300  1
  H  35  1  0.29779600  0.51594300  0.99695100  1
  H  38  1  0.34390300  0.53126200  0.09687700  1
  H  39  1  0.16893100  0.45571600  0.05410100  1
  H  40  1  0.19362800  0.47954600  0.08228300  1
  H  50  1  0.17894700  0.57681100  0.89471900  1
  H  51  1  0.19935700  0.63329900  0.86047600  1
  H  58  1  0.24521700  0.62051100  0.95750700  1
  H  59  1  0.22070900  0.56459500  0.99209300  1
  H  60  1  0.20108500  0.45148100  0.94048500  1
  H  61  1  0.34879400  0.69914700  0.88079700  1
  H  63  1  0.33402900  0.62078500  0.93226800  1
  H  65  1  0.23625600  0.52289600  0.88437400  1
  H  66  1  0.21744300  0.46808500  0.89632300  1
  H  69  1  0.30253700  0.74019800  0.85424500  1
  H  70  1  0.16054400  0.43732000  0.98462200  1
  H  73  1  0.28207300  0.82599200  0.61102600  1
  H  74  1  0.32262300  0.69587600  0.59923600  1
  H  75  1  0.28325900  0.81013000  0.56646000  1
  H  77  1  0.30735400  0.86644800  0.65595200  1
  H  78  1  0.32931000  0.64011400  0.21458600  1
  H  80  1  0.28924200  0.55247000  0.18670100  1
  H  87  1  0.04670000  0.51094800  0.18301800  1
  H  88  1  0.12454000  0.54055500  0.16424300  1
  H  89  1  0.07929700  0.58932500  0.10066700  1
  H  90  1  0.01913700  0.58556400  0.19504900  1
  H  92  1  0.15339800  0.58191700  0.09862900  1
  H  99  1  0.09061400  0.55103800  0.62640700  1
  H  100  1  0.16861400  0.60642300  0.64492300  1
  H  101  1  0.13236000  0.52027600  0.71086400  1
  H  103  1  0.05571600  0.44673800  0.71255600  1
  H  105  1  0.07419000  0.44935800  0.61962000  1
  H  106  1  0.03285500  0.41246600  0.59804200  1
  H  108  1  0.21232400  0.59446500  0.70798100  1
  H  110  1  0.33155700  0.65737200  0.58106900  1
  H  112  1  0.32038300  0.79262700  0.55372700  1
  H  114  1  0.01460400  0.42774900  0.68895300  1
  H  120  1  0.36203000  0.54908300  0.12671100  1
  H  122  1  0.36064500  0.69665700  0.24979600  1
  H  123  1  0.35914000  0.59432000  0.06570500  1
  H  126  1  0.37916300  0.77031000  0.82698700  1
  H  127  1  0.37662300  0.80866200  0.66131300  1
  H  129  1  0.37338600  0.66775800  0.91515700  1
  H  133  1  0.38581500  0.80766000  0.75019200  1
  H  136  1  0.38791100  0.68333800  0.54677500  1
  H  139  1  0.99928300  0.57903400  0.09999900  1
  H  141  1  0.97985800  0.56867800  0.21903400  1
  H  149  1  0.46006900  0.64492900  0.41582500  1
  H  150  1  0.42883700  0.65332200  0.49289300  1
  H  157  1  0.51665500  0.77898500  0.33237500  1
  H  158  1  0.43640600  0.76190400  0.39923100  1
  H  161  1  0.49770500  0.80901400  0.43255100  1
  H  162  1  0.47915300  0.80860000  0.46207800  1
  H  163  1  0.57534300  0.71036700  0.39032900  1
  H  164  1  0.55066800  0.71099700  0.41799100  1
  H  175  1  0.64384100  0.21230400  0.25070100  1
  H  176  1  0.64563700  0.24853900  0.32829200  1
  H  183  1  0.78698100  0.28111900  0.17166000  1
  H  184  1  0.76931900  0.34466400  0.23926800  1
  H  187  1  0.81039100  0.32056600  0.27313800  1
  H  188  1  0.80906000  0.33709800  0.30316600  1
  H  189  1  0.70401600  0.15107000  0.22687300  1
  H  190  1  0.70282100  0.17580700  0.25473500  1
  H  201  1  0.60765200  0.38814200  0.91940800  1
  H  202  1  0.64256700  0.38703700  0.99653600  1
  H  209  1  0.53203700  0.24305600  0.83845300  1
  H  210  1  0.61339600  0.26207400  0.90561300  1
  H  213  1  0.54730000  0.22157700  0.93914600  1
  H  214  1  0.56505100  0.22301100  0.96902300  1
  H  215  1  0.48603800  0.32828200  0.89545100  1
  H  216  1  0.51207400  0.33006100  0.92308700  1
  H  227  1  0.81331600  0.42225800  0.58477800  1
  H  228  1  0.77647900  0.38583000  0.66127300  1
  H  235  1  0.74757300  0.50132300  0.50700900  1
  H  236  1  0.68260500  0.41839200  0.57215900  1
  H  239  1  0.70749600  0.48298500  0.60773900  1
  H  240  1  0.69096900  0.46474100  0.63729500  1
  H  241  1  0.87673200  0.54499300  0.56457300  1
  H  242  1  0.85153000  0.51819667  0.59157500  1
  H  251  1  0.43144600  0.85205900  0.56451600  1
  H  252  1  0.46894700  0.83311300  0.52944400  1
  H  253  1  0.40954400  0.78560700  0.62584300  1
  H  255  1  0.47604600  0.73214800  0.52058200  1
  H  259  1  0.45478800  0.59652200  0.22852200  1
  H  260  1  0.39754000  0.55899200  0.19355400  1
  H  267  1  0.41139400  0.61875200  0.29136700  1
  H  268  1  0.46800800  0.65152500  0.32669500  1
  H  269  1  0.57930900  0.74537800  0.27689000  1
  H  270  1  0.40852800  0.70564900  0.26721400  1
  H  272  1  0.50660800  0.70726300  0.21987100  1
  H  273  1  0.56154400  0.74411600  0.23259200  1
  H  275  1  0.59489200  0.72005900  0.32103600  1
  H  282  1  0.85170800  0.43314600  0.39963600  1
  H  283  1  0.82571000  0.37562000  0.36421000  1
  H  290  1  0.79578300  0.38936800  0.46515600  1
  H  291  1  0.82478500  0.44641800  0.50068800  1
  H  292  1  0.83760800  0.55785000  0.45256400  1
  H  293  1  0.68141900  0.30523200  0.39202000  1
  H  295  1  0.66266100  0.33647100  0.42932500  1
  H  296  1  0.70422100  0.38531600  0.44567300  1
  H  298  1  0.79385500  0.48432900  0.39555100  1
  H  299  1  0.81470400  0.53962200  0.40866900  1
  H  302  1  0.71478500  0.26576900  0.35915300  1
  H  303  1  0.88445400  0.57246500  0.49609400  1
  H  310  1  0.61682300  0.17955500  0.06349800  1
  H  311  1  0.58651500  0.20673000  0.02907700  1
  H  318  1  0.62942500  0.23498900  0.13035900  1
  H  319  1  0.65662900  0.20502200  0.16475700  1
  H  320  1  0.75466900  0.19121200  0.11509800  1
  H  321  1  0.66232200  0.35074400  0.05984400  1
  H  323  1  0.71188300  0.36839000  0.09708200  1
  H  324  1  0.71806700  0.32613400  0.11227900  1
  H  326  1  0.72600500  0.23611900  0.05962900  1
  H  327  1  0.75983700  0.21453200  0.07176700  1
  H  330  1  0.59041400  0.31919600  0.02680100  1
  H  331  1  0.72213300  0.14429800  0.15772000  1
  H  338  1  0.59673400  0.41180500  0.73242400  1
  H  339  1  0.65317300  0.44230900  0.69758800  1
  H  346  1  0.64196900  0.40081600  0.79814500  1
  H  347  1  0.58566000  0.37355500  0.83296500  1
  H  348  1  0.47312200  0.27407000  0.78303300  1
  H  349  1  0.72400000  0.36865600  0.72510100  1
  H  351  1  0.69380900  0.31962100  0.76179400  1
  H  352  1  0.64554900  0.31292600  0.77782300  1
  H  354  1  0.54539500  0.30261600  0.72688000  1
  H  355  1  0.49037400  0.26847800  0.73924600  1
  H  358  1  0.76257700  0.43997700  0.69300000  1
  H  359  1  0.45932700  0.30712100  0.82653900  1
  H  366  1  0.54975400  0.08503500  0.79963200  1
  H  367  1  0.57256100  0.16280500  0.81849000  1
  H  374  1  0.50399700  0.98349200  0.84934800  1
  H  375  1  0.45511700  0.90411900  0.83103300  1
  H  376  1  0.54565300  0.94453000  0.76604600  1
  H  377  1  0.63062100  0.12965000  0.88291600  1
  H  379  1  0.63038700  0.05421200  0.88351700  1
  H  380  1  0.60703500  0.01287100  0.85976900  1
  H  382  1  0.62953000  0.06585000  0.78811700  1
  H  383  1  0.61505400  0.02456400  0.76458200  1
  H  386  1  0.63303600  0.20850400  0.88098800  1
  H  387  1  0.46487200  0.87004800  0.76498500  1
  H  394  1  0.57459200  0.48176900  0.46587800  1
  H  395  1  0.62795000  0.45881600  0.48538200  1
  H  402  1  0.51905800  0.53248600  0.51472800  1
  H  403  1  0.48973000  0.58087500  0.49604800  1
  H  404  1  0.43954500  0.48583000  0.43112900  1
  H  405  1  0.53458600  0.40619500  0.54906400  1
  H  407  1  0.46030800  0.40834100  0.54896600  1
  H  408  1  0.44367400  0.43074100  0.52494800  1
  H  410  1  0.47526400  0.40239700  0.45369400  1
  H  411  1  0.44912200  0.41566400  0.42997500  1
  H  414  1  0.61005700  0.40145900  0.54770900  1
  H  415  1  0.44813600  0.56801800  0.42992900  1
  H  422  1  0.94074100  0.45434900  0.13377900  1
  H  423  1  0.86438100  0.40058400  0.15273900  1
  H  424  1  0.90393700  0.49389300  0.21820300  1
  H  425  1  0.95987700  0.55307200  0.12357800  1
  H  427  1  0.82456000  0.41777500  0.21614000  1
  H  434  1  0.49453800  0.93325800  0.29438700  1
  H  435  1  0.47214900  0.85668500  0.31302800  1
  H  442  1  0.55559300  0.04229000  0.34000900  1
  H  443  1  0.59398300  0.12125400  0.32164100  1
  H  444  1  0.47915100  0.07216500  0.26718500  1
  H  445  1  0.42898000  0.90046400  0.38041400  1
  H  447  1  0.43371900  0.97797400  0.38245200  1
  H  448  1  0.45447800  0.01683900  0.35852400  1
  H  450  1  0.40978000  0.95075100  0.28993900  1
  H  451  1  0.41316300  0.99014900  0.26833700  1
  H  454  1  0.42148100  0.81962600  0.37726100  1
  H  455  1  0.56693200  0.14821800  0.26204600  1
  H  462  1  0.47615000  0.53414300  0.96127900  1
  H  463  1  0.42033800  0.55631100  0.97925100  1
  H  470  1  0.52691900  0.48070300  0.00823900  1
  H  471  1  0.56965600  0.44247000  0.99098300  1
  H  472  1  0.63261300  0.55120700  0.93511100  1
  H  473  1  0.50727200  0.60867900  0.04653600  1
  H  475  1  0.58148700  0.60687500  0.04905000  1
  H  476  1  0.60057900  0.58456500  0.02554600  1
  H  478  1  0.57713300  0.61996100  0.95615200  1
  H  479  1  0.61392900  0.61544500  0.93493900  1
  H  482  1  0.43231800  0.61273400  0.04301900  1
  H  483  1  0.63048200  0.46948200  0.93124300  1
  H  488  1  0.98595000  0.50210700  0.67304600  1
  H  489  1  0.90508600  0.45983500  0.65555300  1
  H  490  1  0.95023200  0.39482700  0.59836700  1
  H  492  1  0.87104900  0.39782500  0.59507200  1
  C  1  1  0.31674200  0.74816600  0.76051200  1
  C  2  1  0.31412500  0.72478200  0.80572100  1
  C  3  1  0.28991100  0.71784000  0.78154400  1
  C  4  1  0.29697200  0.74427400  0.73498200  1
  C  5  1  0.30236500  0.78589700  0.72144900  1
  C  6  1  0.28971300  0.78070400  0.69484400  1
  C  7  1  0.26367900  0.73348400  0.68341800  1
  C  8  1  0.25368600  0.69166500  0.69716600  1
  C  9  1  0.27353000  0.69785100  0.72214000  1
  C  21  1  0.27843600  0.56095700  0.09323100  1
  C  22  1  0.24124300  0.57303800  0.09786500  1
  C  23  1  0.23144600  0.58416400  0.12267800  1
  C  24  1  0.26351600  0.58966700  0.14274300  1
  C  25  1  0.30282100  0.58082700  0.13892600  1
  C  26  1  0.30934300  0.56419900  0.11434500  1
  C  29  1  0.28236700  0.54632500  0.06725000  1
  C  30  1  0.24086200  0.51057800  0.05249300  1
  C  31  1  0.24622400  0.50422800  0.02573800  1
  C  32  1  0.29350800  0.52587500  0.01520900  1
  C  33  1  0.33521600  0.55715300  0.03007100  1
  C  34  1  0.32883500  0.56987200  0.05531200  1
  C  44  1  0.27607400  0.67102300  0.86753500  1
  C  45  1  0.31294700  0.67309200  0.88382600  1
  C  46  1  0.30187900  0.63991700  0.90406800  1
  C  47  1  0.25194000  0.60414300  0.90824900  1
  C  48  1  0.21502900  0.60230800  0.89198000  1
  C  49  1  0.22688700  0.63526700  0.87180400  1
  C  52  1  0.23775000  0.56936300  0.92812700  1
  C  53  1  0.23659900  0.58506800  0.95361400  1
  C  54  1  0.22264800  0.55234200  0.97402100  1
  C  55  1  0.20979600  0.50300400  0.96951500  1
  C  56  1  0.21100200  0.48742400  0.94402400  1
  C  57  1  0.22509300  0.51975500  0.92317200  1
  C  67  1  0.19112100  0.46856900  0.98874100  1
  C  68  1  0.28901400  0.70533200  0.84868200  1
  C  71  1  0.32525900  0.81823400  0.63946000  1
  C  72  1  0.30863500  0.81684300  0.61408700  1
  C  76  1  0.30862900  0.83617500  0.65928100  1
  C  79  1  0.32385600  0.57437900  0.18161200  1
  C  81  1  0.01593300  0.53330700  0.15353500  1
  C  82  1  0.05340100  0.52913200  0.16609300  1
  C  83  1  0.09952300  0.54663300  0.15491900  1
  C  84  1  0.10989500  0.56865100  0.13060700  1
  C  85  1  0.07268000  0.57384600  0.11838700  1
  C  86  1  0.02583000  0.55663100  0.12938300  1
  C  91  1  0.15287600  0.57987400  0.11764400  1
  C  93  1  0.15811300  0.56854000  0.67978000  1
  C  94  1  0.12393500  0.52606700  0.69274100  1
  C  95  1  0.07736300  0.49238900  0.68201900  1
  C  96  1  0.06475000  0.50166200  0.65733700  1
  C  97  1  0.09930300  0.54320700  0.64396600  1
  C  98  1  0.14531500  0.57592400  0.65492300  1
  C  107  1  0.20057600  0.60360800  0.69249100  1
  C  109  1  0.32775000  0.80358900  0.59272500  1
  C  113  1  0.01687400  0.47339100  0.64642600  1
  C  116  1  0.00635600  0.44202400  0.62441700  1
  C  117  1  0.36268300  0.76374700  0.80924600  1
  C  118  1  0.35603500  0.63116400  0.21762200  1
  C  119  1  0.36638400  0.78499500  0.76477200  1
  C  121  1  0.35855600  0.59662700  0.20091300  1
  C  124  1  0.36546500  0.79205200  0.59703900  1
  C  125  1  0.36251300  0.80649500  0.64332100  1
  C  130  1  0.37395500  0.72913600  0.57133200  1
  C  131  1  0.38861600  0.79500200  0.78923900  1
  C  134  1  0.38694900  0.77874800  0.57663000  1
  C  135  1  0.38220000  0.79344500  0.62240000  1
  C  137  1  0.38964000  0.65411500  0.23829900  1
  C  143  1  0.46871100  0.71398800  0.42701600  1
  C  144  1  0.45648800  0.66460900  0.43068200  1
  C  145  1  0.44453100  0.64306800  0.45493400  1
  C  146  1  0.43861900  0.66928600  0.47530000  1
  C  147  1  0.44759800  0.71752400  0.47239100  1
  C  148  1  0.46476600  0.74116700  0.44845900  1
  C  151  1  0.48436700  0.73312500  0.40163000  1
  C  152  1  0.52060300  0.72751900  0.38764800  1
  C  153  1  0.52770600  0.73925400  0.36113900  1
  C  154  1  0.50626500  0.76479900  0.35031400  1
  C  155  1  0.47456500  0.77521100  0.36454500  1
  C  156  1  0.46121500  0.75614600  0.38936900  1
  C  169  1  0.71455300  0.26393400  0.26496900  1
  C  170  1  0.66326000  0.23172700  0.26667900  1
  C  171  1  0.63812800  0.22379800  0.29000200  1
  C  172  1  0.66413000  0.25265600  0.31149100  1
  C  173  1  0.71504100  0.28619400  0.31068500  1
  C  174  1  0.74110600  0.29127700  0.28749000  1
  C  177  1  0.73606600  0.26726800  0.24014300  1
  C  178  1  0.72846600  0.22488300  0.22556400  1
  C  179  1  0.74343400  0.23014700  0.19946000  1
  C  180  1  0.77197700  0.27737100  0.18951200  1
  C  181  1  0.78297300  0.31954200  0.20424400  1
  C  182  1  0.76268700  0.31396700  0.22891300  1
  C  195  1  0.58773700  0.31741600  0.93249500  1
  C  196  1  0.60752500  0.36883700  0.93498900  1
  C  197  1  0.62543200  0.39430700  0.95858500  1
  C  198  1  0.62781500  0.36834600  0.97954800  1
  C  199  1  0.60945700  0.31723400  0.97797100  1
  C  200  1  0.58812000  0.29096500  0.95448600  1
  C  203  1  0.56955800  0.29565700  0.90742100  1
  C  204  1  0.53492100  0.30319300  0.89328000  1
  C  205  1  0.52499100  0.28752100  0.86702300  1
  C  206  1  0.54349400  0.25859100  0.85642300  1
  C  207  1  0.57472800  0.24790700  0.87066000  1
  C  208  1  0.58952900  0.26873200  0.89554100  1
  C  221  1  0.76282400  0.44246600  0.59917500  1
  C  222  1  0.79398600  0.42210300  0.60059500  1
  C  223  1  0.80108300  0.40343500  0.62350200  1
  C  224  1  0.77276700  0.40096000  0.64478500  1
  C  225  1  0.74048700  0.41989600  0.64425200  1
  C  226  1  0.73590300  0.44182200  0.62149800  1
  C  229  1  0.76003900  0.46169900  0.57477900  1
  C  230  1  0.80277800  0.49656000  0.56142400  1
  C  231  1  0.79797400  0.50731700  0.53551400  1
  C  232  1  0.75093600  0.48934600  0.52463500  1
  C  233  1  0.70845800  0.45796300  0.53819700  1
  C  234  1  0.71352300  0.44247400  0.56263700  1
  C  247  1  0.43134800  0.75635400  0.53493600  1
  C  248  1  0.39685700  0.71893900  0.55061100  1
  C  249  1  0.42170500  0.81620400  0.56097100  1
  C  250  1  0.44363100  0.80520500  0.54031200  1
  C  254  1  0.45351100  0.74424300  0.51557600  1
  C  256  1  0.42635600  0.64111500  0.24247300  1
  C  257  1  0.42863700  0.60629800  0.22578300  1
  C  258  1  0.39522100  0.58433700  0.20518900  1
  C  261  1  0.46154600  0.66251000  0.26281200  1
  C  262  1  0.44658500  0.64591800  0.28801000  1
  C  263  1  0.47971800  0.66547500  0.30885200  1
  C  264  1  0.52873500  0.70247000  0.30508500  1
  C  265  1  0.54359900  0.71896100  0.27988300  1
  C  266  1  0.51082800  0.69995300  0.25860400  1
  C  274  1  0.56354600  0.71916800  0.32477400  1
  C  276  1  0.75109200  0.33513400  0.37501400  1
  C  277  1  0.71745900  0.33223300  0.39381400  1
  C  278  1  0.73172500  0.36626000  0.41470000  1
  C  279  1  0.78180200  0.40379800  0.41699500  1
  C  280  1  0.81558300  0.40637400  0.39830000  1
  C  281  1  0.80041600  0.37273000  0.37744700  1
  C  284  1  0.79911100  0.43946300  0.43742100  1
  C  285  1  0.80396200  0.42469800  0.46219300  1
  C  286  1  0.82058800  0.45808000  0.48316400  1
  C  287  1  0.83278700  0.50722900  0.47992300  1
  C  288  1  0.82827700  0.52204600  0.45514100  1
  C  289  1  0.81115700  0.48893900  0.43377100  1
  C  300  1  0.85332500  0.54197900  0.49974000  1
  C  301  1  0.73461700  0.30110500  0.35494900  1
  C  304  1  0.62169500  0.28131700  0.04145300  1
  C  305  1  0.65259100  0.31450600  0.06080900  1
  C  306  1  0.67164600  0.29953000  0.08112000  1
  C  307  1  0.65820000  0.24919500  0.08224700  1
  C  308  1  0.62679800  0.21585300  0.06301200  1
  C  309  1  0.60903200  0.23171400  0.04274600  1
  C  312  1  0.67596100  0.23121400  0.10197200  1
  C  313  1  0.65627100  0.22638000  0.12684600  1
  C  314  1  0.67251800  0.20915900  0.14715400  1
  C  315  1  0.70905500  0.19638900  0.14313400  1
  C  316  1  0.72848100  0.20093000  0.11824900  1
  C  317  1  0.71297500  0.21858900  0.09754100  1
  C  328  1  0.72287600  0.17544000  0.16223200  1
  C  329  1  0.60497300  0.29849000  0.02194200  1
  C  332  1  0.69379800  0.40822300  0.70829200  1
  C  333  1  0.69716600  0.37789600  0.72684100  1
  C  334  1  0.66377800  0.35874100  0.74737100  1
  C  335  1  0.62642200  0.37149400  0.74957900  1
  C  336  1  0.62340800  0.40233200  0.73115900  1
  C  337  1  0.65641200  0.42020600  0.71064700  1
  C  340  1  0.59123500  0.35354200  0.76957500  1
  C  341  1  0.60656000  0.37361600  0.79465300  1
  C  342  1  0.57362100  0.35731100  0.81520700  1
  C  343  1  0.52436600  0.32034900  0.81123400  1
  C  344  1  0.50901300  0.30052900  0.78615000  1
  C  345  1  0.54165800  0.31606700  0.76518800  1
  C  356  1  0.48993800  0.30673700  0.83058600  1
  C  357  1  0.72714100  0.42507100  0.68852100  1
  C  360  1  0.60384700  0.15376800  0.85268000  1
  C  361  1  0.61480100  0.12068600  0.86497400  1
  C  362  1  0.60210400  0.07427700  0.85391100  1
  C  363  1  0.57772700  0.06070200  0.82957500  1
  C  364  1  0.56848600  0.09446300  0.81679400  1
  C  365  1  0.58166300  0.14031600  0.82803200  1
  C  368  1  0.55545800  0.01202300  0.81909100  1
  C  369  1  0.51465500  0.97547400  0.83220200  1
  C  370  1  0.48563900  0.92844000  0.82129300  1
  C  371  1  0.49601600  0.91620100  0.79671200  1
  C  372  1  0.53770100  0.95249700  0.78396200  1
  C  373  1  0.56771100  0.00024600  0.79467400  1
  C  384  1  0.46361600  0.87228100  0.78399600  1
  C  385  1  0.61079600  0.19582800  0.86575700  1
  C  388  1  0.58638200  0.43022700  0.51926400  1
  C  389  1  0.54222600  0.42088100  0.53114100  1
  C  390  1  0.50947400  0.43371500  0.51968400  1
  C  391  1  0.52133100  0.45647700  0.49535500  1
  C  392  1  0.56449200  0.46415200  0.48301000  1
  C  393  1  0.59619900  0.45084400  0.49462200  1
  C  396  1  0.49602500  0.47890300  0.48451300  1
  C  397  1  0.50072600  0.52089700  0.49748000  1
  C  398  1  0.48330500  0.54954000  0.48639400  1
  C  399  1  0.46089200  0.53757800  0.46176300  1
  C  400  1  0.45525100  0.49487100  0.44909400  1
  C  401  1  0.47232900  0.46517500  0.46000400  1
  C  412  1  0.44975200  0.56932700  0.44899600  1
  C  413  1  0.62055800  0.42317600  0.53266800  1
  C  416  1  0.87675400  0.44205000  0.18747200  1
  C  417  1  0.91123600  0.48633000  0.20004200  1
  C  418  1  0.95682600  0.51935400  0.18892300  1
  C  419  1  0.96812300  0.50759000  0.16424300  1
  C  420  1  0.93295200  0.46433700  0.15121300  1
  C  421  1  0.88793500  0.43237000  0.16251200  1
  C  426  1  0.83558300  0.40762000  0.20050200  1
  C  428  1  0.44816800  0.87108600  0.34863300  1
  C  429  1  0.44173700  0.90700400  0.36199100  1
  C  430  1  0.45452600  0.95277500  0.35120500  1
  C  431  1  0.47436900  0.96276300  0.32604500  1
  C  432  1  0.47951300  0.92647700  0.31231800  1
  C  433  1  0.46635100  0.88130600  0.32335000  1
  C  436  1  0.49365400  0.00963300  0.31485300  1
  C  437  1  0.53846600  0.04809600  0.32488800  1
  C  438  1  0.56107100  0.09472800  0.31408600  1
  C  439  1  0.53967200  0.10440300  0.29278500  1
  C  440  1  0.49498200  0.06576100  0.28271400  1
  C  441  1  0.47134600  0.01843200  0.29339300  1
  C  452  1  0.56202400  0.14944800  0.28082600  1
  C  453  1  0.44092200  0.82942600  0.36125200  1
  C  456  1  0.45855400  0.58490400  0.01473300  1
  C  457  1  0.50138100  0.59403000  0.02825800  1
  C  458  1  0.53532900  0.58143000  0.01786800  1
  C  459  1  0.52593800  0.55891900  0.99295400  1
  C  460  1  0.48404300  0.55109400  0.97903100  1
  C  461  1  0.45105300  0.56408900  0.98967800  1
  C  464  1  0.55456100  0.53961000  0.98226800  1
  C  465  1  0.54963300  0.49655700  0.99300900  1
  C  466  1  0.57491400  0.47401700  0.98283200  1
  C  467  1  0.60578800  0.49360800  0.96142500  1
  C  468  1  0.61040600  0.53655700  0.95065900  1
  C  469  1  0.58545600  0.56013400  0.96070700  1
  C  480  1  0.63013800  0.47135100  0.95030500  1
  C  481  1  0.42327300  0.59199700  0.02710000  1
  C  484  1  0.97897600  0.47907600  0.65747000  1
  C  485  1  0.93122100  0.45405500  0.64716500  1
  C  486  1  0.91980800  0.42271600  0.62532500  1
  C  487  1  0.95791100  0.41738200  0.61423500  1
  C  491  1  0.87325700  0.39865900  0.61413300  1
  N  12  1  0.24105600  0.68450700  0.77959600  1
  N  13  1  0.31767100  0.82999900  0.73375500  1
  N  18  1  0.21930100  0.64910500  0.68719300  1
  N  19  1  0.29500200  0.81895100  0.68184700  1
  N  20  1  0.29353300  0.69446800  0.82527400  1
  N  36  1  0.34287000  0.54901500  0.11206600  1
  N  37  1  0.19674300  0.48115400  0.06374900  1
  N  41  1  0.20796000  0.47191700  0.01163300  1
  N  42  1  0.33380200  0.59067200  0.15865700  1
  N  43  1  0.18937500  0.58110600  0.12936000  1
  N  62  1  0.33947900  0.64329200  0.91853600  1
  N  64  1  0.22605300  0.50210600  0.89924600  1
  N  102  1  0.04630800  0.45261000  0.69577900  1
  N  104  1  0.04087100  0.43441200  0.61294000  1
  N  111  1  0.30922900  0.80233700  0.56894100  1
  N  115  1  0.34011000  0.69103600  0.58517200  1
  N  128  1  0.37783100  0.56540900  0.02075800  1
  N  132  1  0.38576000  0.68801500  0.25317500  1
  N  138  1  0.99182300  0.56268200  0.11639900  1
  N  140  1  0.98842500  0.56089200  0.20233300  1
  N  142  1  0.42809400  0.83715900  0.79588800  1
  N  159  1  0.47988900  0.78988300  0.44718100  1
  N  160  1  0.54973800  0.71286800  0.39945200  1
  N  165  1  0.46640300  0.80930800  0.35509200  1
  N  166  1  0.56036700  0.73336500  0.34765600  1
  N  167  1  0.43730900  0.73815700  0.49233100  1
  N  168  1  0.44782500  0.60419100  0.46116100  1
  N  185  1  0.79088100  0.32030200  0.28760000  1
  N  186  1  0.70837700  0.17984700  0.23640300  1
  N  191  1  0.81682000  0.36180800  0.19484300  1
  N  192  1  0.73636100  0.19129900  0.18543300  1
  N  193  1  0.73641600  0.31440700  0.33158500  1
  N  194  1  0.59189600  0.18899700  0.29371900  1
  N  211  1  0.56669000  0.24111800  0.95381200  1
  N  212  1  0.51031000  0.32386600  0.90468700  1
  N  217  1  0.58289400  0.21357100  0.86075900  1
  N  218  1  0.49287100  0.29396200  0.85351000  1
  N  219  1  0.61580300  0.29576300  0.99836700  1
  N  220  1  0.63793900  0.44089500  0.96302700  1
  N  237  1  0.70784100  0.46362400  0.62189200  1
  N  238  1  0.84772900  0.52048200  0.57326100  1
  N  243  1  0.66645700  0.45015500  0.52809500  1
  N  244  1  0.83706300  0.53942800  0.52263400  1
  N  245  1  0.71296700  0.41364400  0.66495200  1
  N  246  1  0.83487300  0.39049800  0.62709600  1
  N  271  1  0.52774500  0.71834700  0.23500200  1
  N  294  1  0.69676800  0.36214600  0.43146100  1
  N  297  1  0.80659800  0.50572500  0.41065700  1
  N  322  1  0.70272300  0.33407700  0.09846200  1
  N  325  1  0.73437400  0.22309500  0.07429600  1
  N  350  1  0.66827400  0.32821500  0.76386800  1
  N  353  1  0.52433500  0.29428400  0.74174000  1
  N  378  1  0.61316200  0.04410000  0.86705400  1
  N  381  1  0.60696100  0.03330200  0.78116600  1
  N  406  1  0.46805700  0.42425700  0.53244000  1
  N  409  1  0.46580600  0.42479300  0.44660000  1
  N  446  1  0.44763300  0.98559400  0.36534400  1
  N  449  1  0.42804900  0.98329800  0.28287100  1
  N  474  1  0.57544800  0.59098800  0.03216100  1
  N  477  1  0.59233900  0.60175300  0.94954400  1
