# generated using pymatgen
data_V2H20C30O11
_symmetry_space_group_name_H-M   'P 1'
_cell_length_a   7.00077000
_cell_length_b   14.12599000
_cell_length_c   17.88986000
_cell_angle_alpha   111.98734000
_cell_angle_beta   95.84509000
_cell_angle_gamma   90.40377000
_symmetry_Int_Tables_number   1
_chemical_formula_structural   V2H20C30O11
_chemical_formula_sum   'V4 H40 C60 O22'
_cell_volume   1630.01267020
_cell_formula_units_Z   2
loop_
 _symmetry_equiv_pos_site_id
 _symmetry_equiv_pos_as_xyz
  1  'x, y, z'
loop_
 _atom_site_type_symbol
 _atom_site_label
 _atom_site_symmetry_multiplicity
 _atom_site_fract_x
 _atom_site_fract_y
 _atom_site_fract_z
 _atom_site_occupancy
  V  V0  1  0.06435000  0.51118000  0.50000000  1
  V  V1  1  0.56434000  0.48882000  0.50000000  1
  V  V2  1  0.88414000  0.74719000  0.00253000  1
  V  V3  1  0.38407000  0.76971000  0.00237000  1
  H  H4  1  0.84063000  0.88565000  0.55899000  1
  H  H5  1  0.84134000  0.22046000  0.59269000  1
  H  H6  1  0.05070000  0.31446000  0.92233000  1
  H  H7  1  0.92888000  0.75533000  0.61343000  1
  H  H8  1  0.07472000  0.71292000  0.72624000  1
  H  H9  1  0.02385000  0.01060000  0.89316000  1
  H  H10  1  0.82643000  0.06267000  0.57527000  1
  H  H11  1  0.09196000  0.15289000  0.89977000  1
  H  H12  1  0.10159000  0.22692000  0.30082000  1
  H  H13  1  0.83556000  0.03566000  0.18783000  1
  H  H14  1  0.27081000  0.07859000  0.20723000  1
  H  H15  1  0.66858000  0.04070000  0.93791000  1
  H  H16  1  0.41984000  0.51940000  0.76763000  1
  H  H17  1  0.27993000  0.17702000  0.61208000  1
  H  H18  1  0.58907000  0.86003000  0.87955000  1
  H  H19  1  0.47547000  0.70442000  0.76507000  1
  H  H20  1  0.37092000  0.87415000  0.61318000  1
  H  H21  1  0.69830000  0.20067000  0.92694000  1
  H  H22  1  0.30536000  0.01980000  0.61929000  1
  H  H23  1  0.33504000  0.66466000  0.19284000  1
  H  H24  1  0.61260000  0.58885000  0.30710000  1
  H  H25  1  0.77100000  0.63528000  0.20651000  1
  H  H26  1  0.17763000  0.62118000  0.29502000  1
  H  H27  1  0.13268000  0.46613000  0.01407000  1
  H  H28  1  0.27888000  0.41993000  0.93240000  1
  H  H29  1  0.28230000  0.55097000  0.99334000  1
  H  H30  1  0.04568000  0.55796000  0.90079000  1
  H  H31  1  0.89954000  0.47893000  0.92672000  1
  H  H32  1  0.49387000  0.19287000  0.31680000  1
  H  H33  1  0.43385000  0.40741000  0.05244000  1
  H  H34  1  0.39309000  0.28755000  0.96648000  1
  H  H35  1  0.59127000  0.30775000  0.04435000  1
  H  H36  1  0.77997000  0.35711000  0.96703000  1
  H  H37  1  0.65889000  0.46879000  0.99887000  1
  H  H38  1  0.34567000  0.43613000  0.63196000  1
  H  H39  1  0.80567000  0.61965000  0.69065000  1
  H  H40  1  0.69337000  0.54785000  0.73594000  1
  H  H41  1  0.78952000  0.67125000  0.79772000  1
  H  H42  1  0.08929000  0.60934000  0.81634000  1
  H  H43  1  0.10602000  0.56038000  0.71769000  1
  C  C44  1  0.37521000  0.67781000  0.61035000  1
  C  C45  1  0.31759000  0.56468000  0.38649000  1
  C  C46  1  0.81698000  0.32413000  0.38710000  1
  C  C47  1  0.87262000  0.41742000  0.60225000  1
  C  C48  1  0.04276000  0.85733000  0.81867000  1
  C  C49  1  0.90824000  0.37661000  0.66951000  1
  C  C50  1  0.95472000  0.81378000  0.67369000  1
  C  C51  1  0.02482000  0.78730000  0.73887000  1
  C  C52  1  0.01592000  0.95919000  0.83071000  1
  C  C53  1  0.97653000  0.99092000  0.76350000  1
  C  C54  1  0.93325000  0.91596000  0.68517000  1
  C  C55  1  0.97929000  0.09449000  0.77207000  1
  C  C56  1  0.92495000  0.12483000  0.70479000  1
  C  C57  1  0.87035000  0.04661000  0.62867000  1
  C  C58  1  0.87707000  0.94387000  0.61901000  1
  C  C59  1  0.03917000  0.16850000  0.84716000  1
  C  C60  1  0.02765000  0.26821000  0.85980000  1
  C  C61  1  0.99019000  0.30368000  0.79677000  1
  C  C62  1  0.93375000  0.23208000  0.71694000  1
  C  C63  1  0.01055000  0.40930000  0.81359000  1
  C  C64  1  0.97734000  0.44512000  0.74872000  1
  C  C65  1  0.88842000  0.27086000  0.65419000  1
  C  C66  1  0.13386000  0.03671000  0.18288000  1
  C  C67  1  0.97124000  0.07775000  0.21480000  1
  C  C68  1  0.81141000  0.21767000  0.32323000  1
  C  C69  1  0.96919000  0.17959000  0.28380000  1
  C  C70  1  0.41589000  0.77867000  0.68072000  1
  C  C71  1  0.54091000  0.46178000  0.85471000  1
  C  C72  1  0.53784000  0.86569000  0.82262000  1
  C  C73  1  0.47673000  0.77635000  0.75669000  1
  C  C74  1  0.41192000  0.87543000  0.67325000  1
  C  C75  1  0.46556000  0.96963000  0.74215000  1
  C  C76  1  0.53364000  0.96140000  0.81610000  1
  C  C77  1  0.45697000  0.07118000  0.74044000  1
  C  C78  1  0.52831000  0.16280000  0.81008000  1
  C  C79  1  0.61321000  0.14433000  0.87776000  1
  C  C80  1  0.60566000  0.04817000  0.88255000  1
  C  C81  1  0.37349000  0.08261000  0.67095000  1
  C  C82  1  0.36316000  0.17652000  0.66606000  1
  C  C83  1  0.43929000  0.26659000  0.72913000  1
  C  C84  1  0.51592000  0.26607000  0.80661000  1
  C  C85  1  0.42549000  0.35812000  0.71541000  1
  C  C86  1  0.45647000  0.45111000  0.77887000  1
  C  C87  1  0.56797000  0.36853000  0.87253000  1
  C  C88  1  0.31444000  0.60117000  0.31827000  1
  C  C89  1  0.47545000  0.60907000  0.28431000  1
  C  C90  1  0.63399000  0.65480000  0.18303000  1
  C  C91  1  0.47242000  0.64509000  0.21599000  1
  C  C92  1  0.63118000  0.69297000  0.11579000  1
  C  C93  1  0.57715000  0.57532000  0.91152000  1
  C  C94  1  0.07475000  0.82319000  0.88865000  1
  C  C95  1  0.13112000  0.93383000  0.11545000  1
  C  C96  1  0.03123000  0.48458000  0.90143000  1
  C  C97  1  0.19151000  0.48068000  0.96367000  1
  C  C98  1  0.62904000  0.15530000  0.30803000  1
  C  C99  1  0.63624000  0.38584000  0.96196000  1
  C  C100  1  0.50453000  0.34420000  0.00791000  1
  C  C101  1  0.38542000  0.36375000  0.63448000  1
  C  C102  1  0.00645000  0.55695000  0.76050000  1
  C  C103  1  0.81388000  0.60193000  0.74604000  1
  O  O104  1  0.48456000  0.54453000  0.41433000  1
  O  O105  1  0.19704000  0.63881000  0.58508000  1
  O  O106  1  0.02680000  0.45547000  0.58567000  1
  O  O107  1  0.15500000  0.55615000  0.41494000  1
  O  O108  1  0.98445000  0.37222000  0.41432000  1
  O  O109  1  0.52690000  0.62778000  0.58568000  1
  O  O110  1  0.33917000  0.43975000  0.49999000  1
  O  O111  1  0.65488000  0.36119000  0.41492000  1
  O  O112  1  0.69693000  0.44385000  0.58506000  1
  O  O113  1  0.83939000  0.56025000  0.50001000  1
  O  O114  1  0.42160000  0.63043000  0.91701000  1
  O  O115  1  0.79384000  0.70219000  0.08763000  1
  O  O116  1  0.96401000  0.88617000  0.08819000  1
  O  O117  1  0.75146000  0.61951000  0.91750000  1
  O  O118  1  0.92133000  0.80290000  0.91684000  1
  O  O119  1  0.46429000  0.71370000  0.08835000  1
  O  O120  1  0.60920000  0.81852000  0.00263000  1
  O  O121  1  0.25115000  0.81463000  0.91734000  1
  O  O122  1  0.29353000  0.89731000  0.08747000  1
  O  O123  1  0.10918000  0.69819000  0.00246000  1
  O  O124  1  0.62817000  0.06317000  0.29113000  1
  O  O125  1  0.41646000  0.29429000  0.57198000  1
