# generated using pymatgen
data_H20C39(N4O)2
_symmetry_space_group_name_H-M   'P 1'
_cell_length_a   32.26200000
_cell_length_b   39.52170000
_cell_length_c   60.86720000
_cell_angle_alpha   90.00000000
_cell_angle_beta   90.00000000
_cell_angle_gamma   90.00200000
_symmetry_Int_Tables_number   1
_chemical_formula_structural   H20C39(N4O)2
_chemical_formula_sum   'H160 C312 N64 O16'
_cell_volume   77608.66764358
_cell_formula_units_Z   8
loop_
 _symmetry_equiv_pos_site_id
 _symmetry_equiv_pos_as_xyz
  1  'x, y, z'
loop_
 _atom_site_type_symbol
 _atom_site_label
 _atom_site_symmetry_multiplicity
 _atom_site_fract_x
 _atom_site_fract_y
 _atom_site_fract_z
 _atom_site_occupancy
  H  25  1  0.25403600  0.23774400  0.18206000  1
  H  26  1  0.25442600  0.22434000  0.14376800  1
  H  27  1  0.25438200  0.20158100  0.10794700  1
  H  28  1  0.25366700  0.17305400  0.07555900  1
  H  29  1  0.25469100  0.07821800  0.10871900  1
  H  30  1  0.25527500  0.13341900  0.19768300  1
  H  31  1  0.34592900  0.11720800  0.14797500  1
  H  32  1  0.36591400  0.01958600  0.17455900  1
  H  33  1  0.29379500  0.01099200  0.17756500  1
  H  34  1  0.16504200  0.11688300  0.14967400  1
  H  35  1  0.21862600  0.01004700  0.17767500  1
  H  36  1  0.14541700  0.01854400  0.17517600  1
  H  66  1  0.25514600  0.23796900  0.82707900  1
  H  67  1  0.25483000  0.22495600  0.86546600  1
  H  68  1  0.25472000  0.20256600  0.90220500  1
  H  69  1  0.25463700  0.17203300  0.93576300  1
  H  70  1  0.25441500  0.07920800  0.90077400  1
  H  71  1  0.25389500  0.13355100  0.81182900  1
  H  72  1  0.16315700  0.11744200  0.86121400  1
  H  73  1  0.14331400  0.01974100  0.83465600  1
  H  74  1  0.21545300  0.01123800  0.83164300  1
  H  75  1  0.34423900  0.11700400  0.85955100  1
  H  76  1  0.29039100  0.01027900  0.83155400  1
  H  77  1  0.36360200  0.01865200  0.83401200  1
  H  107  1  0.75410000  0.80473700  0.82711700  1
  H  108  1  0.75448800  0.81814200  0.86540500  1
  H  109  1  0.75445800  0.84090700  0.90122400  1
  H  110  1  0.75374700  0.86943300  0.93361400  1
  H  111  1  0.75438600  0.96426700  0.90045300  1
  H  112  1  0.75487100  0.90908000  0.81149100  1
  H  113  1  0.84404700  0.92553600  0.85946400  1
  H  114  1  0.86375600  0.02389800  0.83401200  1
  H  115  1  0.79056200  0.03242700  0.83151600  1
  H  116  1  0.66323400  0.92524800  0.86120100  1
  H  117  1  0.71531600  0.03150200  0.83156900  1
  H  118  1  0.64318700  0.02287700  0.83463600  1
  H  148  1  0.75503000  0.80451700  0.18209100  1
  H  149  1  0.75466800  0.81753500  0.14371100  1
  H  150  1  0.75462300  0.83993300  0.10698500  1
  H  151  1  0.75456200  0.87039700  0.07343600  1
  H  152  1  0.75471500  0.96328800  0.10836500  1
  H  153  1  0.75427900  0.90894600  0.19733900  1
  H  154  1  0.66497900  0.92541500  0.14965200  1
  H  155  1  0.64556500  0.02379800  0.17515300  1
  H  156  1  0.71876000  0.03219600  0.17758200  1
  H  157  1  0.84605300  0.92512900  0.14792000  1
  H  158  1  0.79369600  0.03127200  0.17754200  1
  H  159  1  0.86582700  0.02277700  0.17452400  1
  H  189  1  0.75535600  0.73800400  0.68128500  1
  H  190  1  0.75463900  0.72424200  0.64326900  1
  H  191  1  0.75455800  0.70152800  0.60781600  1
  H  192  1  0.75365800  0.67303500  0.57547600  1
  H  193  1  0.75468000  0.57813800  0.60863100  1
  H  194  1  0.75466000  0.63369700  0.69760200  1
  H  195  1  0.84610200  0.61711100  0.64792300  1
  H  196  1  0.86594700  0.51949600  0.67460400  1
  H  197  1  0.79377900  0.51098700  0.67762700  1
  H  198  1  0.66515800  0.61693700  0.64968000  1
  H  199  1  0.71864700  0.51006100  0.67763700  1
  H  200  1  0.64544300  0.51858800  0.67515300  1
  H  230  1  0.75388700  0.73822900  0.32783500  1
  H  231  1  0.75460200  0.72486200  0.36596900  1
  H  232  1  0.75455200  0.70252000  0.40233600  1
  H  233  1  0.75468400  0.67199000  0.43587000  1
  H  234  1  0.75447800  0.57913500  0.40086400  1
  H  235  1  0.75454300  0.63382900  0.31192200  1
  H  236  1  0.66305400  0.61731100  0.36128100  1
  H  237  1  0.64336100  0.51967100  0.33459500  1
  H  238  1  0.71551000  0.51122500  0.33161000  1
  H  239  1  0.84417700  0.61705800  0.35954500  1
  H  240  1  0.79041500  0.51029600  0.33158700  1
  H  241  1  0.86362300  0.51869200  0.33403900  1
  H  271  1  0.25543700  0.30450300  0.32788300  1
  H  272  1  0.25473300  0.31825300  0.36590100  1
  H  273  1  0.25463200  0.34097200  0.40135600  1
  H  274  1  0.25373800  0.36946800  0.43369500  1
  H  275  1  0.25435800  0.46436200  0.40053600  1
  H  276  1  0.25426700  0.40880300  0.31156700  1
  H  277  1  0.34422500  0.42558100  0.35954700  1
  H  278  1  0.36355500  0.52397000  0.33395300  1
  H  279  1  0.29057300  0.53240600  0.33150400  1
  H  280  1  0.16324300  0.42525200  0.36120900  1
  H  281  1  0.21539200  0.53148500  0.33156600  1
  H  282  1  0.14325200  0.52292800  0.33461700  1
  H  312  1  0.25378700  0.30427600  0.68133100  1
  H  313  1  0.25447800  0.31764800  0.64320300  1
  H  314  1  0.25446500  0.33999000  0.60684500  1
  H  315  1  0.25457700  0.37049200  0.57331700  1
  H  316  1  0.25476500  0.46337300  0.60830100  1
  H  317  1  0.25493100  0.40865900  0.69726200  1
  H  318  1  0.16495000  0.42549800  0.64961200  1
  H  319  1  0.14555700  0.52383800  0.67516100  1
  H  320  1  0.21877700  0.53222100  0.67761600  1
  H  321  1  0.34608800  0.42513100  0.64792200  1
  H  322  1  0.29366700  0.53126000  0.67755000  1
  H  323  1  0.36582100  0.52281400  0.67455500  1
  H  335  1  0.25442300  0.16133200  0.01491400  1
  H  338  1  0.25475800  0.02814500  0.97574300  1
  H  340  1  0.25387300  0.06720200  0.95215000  1
  H  342  1  0.25772300  0.14303400  0.04928500  1
  H  349  1  0.75440800  0.88117100  0.99428100  1
  H  352  1  0.75483800  0.01433200  0.03344400  1
  H  354  1  0.75325800  0.97525800  0.05708800  1
  H  356  1  0.75770300  0.89944900  0.95989600  1
  H  363  1  0.75444800  0.66134300  0.51489000  1
  H  366  1  0.75478600  0.52812200  0.47575800  1
  H  368  1  0.75387000  0.56716100  0.45216100  1
  H  370  1  0.75777000  0.64301800  0.54924000  1
  H  377  1  0.25444000  0.38116800  0.49427600  1
  H  380  1  0.25474900  0.51436000  0.53343200  1
  H  382  1  0.25411500  0.47531600  0.55703200  1
  H  384  1  0.25773700  0.39949200  0.45992900  1
  H  391  1  0.01107900  0.97737100  0.18778900  1
  H  394  1  0.01593600  0.08860000  0.12596900  1
  H  396  1  0.06054000  0.09281200  0.15312100  1
  H  398  1  0.93534800  0.96500300  0.18167400  1
  H  405  1  0.49807000  0.97737400  0.82138600  1
  H  408  1  0.49320300  0.08849800  0.88327700  1
  H  410  1  0.44865200  0.09281800  0.85603500  1
  H  412  1  0.57380600  0.96502100  0.82749300  1
  H  419  1  0.99809900  0.06511200  0.82138000  1
  H  422  1  0.99321500  0.95390300  0.88321400  1
  H  424  1  0.94868500  0.94966700  0.85598800  1
  H  426  1  0.07390300  0.07749400  0.82747700  1
  H  433  1  0.51113300  0.06514900  0.18777800  1
  H  436  1  0.51589500  0.95390100  0.12597000  1
  H  438  1  0.56058800  0.94967800  0.15307100  1
  H  440  1  0.43546600  0.07748800  0.18165600  1
  H  447  1  0.51108900  0.47733200  0.68777200  1
  H  450  1  0.51593800  0.58861000  0.62597900  1
  H  452  1  0.56057900  0.59278000  0.65306600  1
  H  454  1  0.43523100  0.46496200  0.68164800  1
  H  461  1  0.99809200  0.47734500  0.32140300  1
  H  464  1  0.99322400  0.58850700  0.38326700  1
  H  466  1  0.94871300  0.59280300  0.35601800  1
  H  468  1  0.07395900  0.46498000  0.32751500  1
  H  475  1  0.49804600  0.56513700  0.32141800  1
  H  478  1  0.49325600  0.45388700  0.38320500  1
  H  480  1  0.44810600  0.44954300  0.35619500  1
  H  482  1  0.57387600  0.57756100  0.32752800  1
  H  489  1  0.01116900  0.56518300  0.68776700  1
  H  492  1  0.01591800  0.45391500  0.62597600  1
  H  494  1  0.06053400  0.44968900  0.65311700  1
  H  496  1  0.93545900  0.57753000  0.68164400  1
  H  503  1  0.29321700  0.22871800  0.27116200  1
  H  506  1  0.19948500  0.34442300  0.24121000  1
  H  508  1  0.24267500  0.35590300  0.26735700  1
  H  510  1  0.27309100  0.19048800  0.24318300  1
  H  517  1  0.21597900  0.22869400  0.73803800  1
  H  520  1  0.30974100  0.34440800  0.76793400  1
  H  522  1  0.26645800  0.35586200  0.74179300  1
  H  524  1  0.23625800  0.19041900  0.76601500  1
  H  531  1  0.79318700  0.81377000  0.73800800  1
  H  534  1  0.69945300  0.69806700  0.76795800  1
  H  536  1  0.74272600  0.68659200  0.74182600  1
  H  538  1  0.77294500  0.85202200  0.76596700  1
  H  545  1  0.71596300  0.81379300  0.27114300  1
  H  548  1  0.80966900  0.69805900  0.24122500  1
  H  550  1  0.76646000  0.68662700  0.26738400  1
  H  552  1  0.73620500  0.85206300  0.24314700  1
  C  1  1  0.21963400  0.08949700  0.15752800  1
  C  2  1  0.23446800  0.05867200  0.16547500  1
  C  3  1  0.27731300  0.05929500  0.16541100  1
  C  4  1  0.29179900  0.09023400  0.15737600  1
  C  5  1  0.33536400  0.09540600  0.15502800  1
  C  6  1  0.36380800  0.06959900  0.16171600  1
  C  7  1  0.34700700  0.03946600  0.17046900  1
  C  8  1  0.30444500  0.03381800  0.17211700  1
  C  9  1  0.20760700  0.03269500  0.17214000  1
  C  10  1  0.16484000  0.03785600  0.17070600  1
  C  11  1  0.14881700  0.06832200  0.16242700  1
  C  12  1  0.17623000  0.09473500  0.15598100  1
  C  13  1  0.25431300  0.14460800  0.16368800  1
  C  14  1  0.25411500  0.17109800  0.14860100  1
  C  15  1  0.25472700  0.15776400  0.12780300  1
  C  16  1  0.25492800  0.12249500  0.12834900  1
  C  17  1  0.25462800  0.17572600  0.10826500  1
  C  18  1  0.25439800  0.15755700  0.08879900  1
  C  19  1  0.25454300  0.12133700  0.08765800  1
  C  20  1  0.25475400  0.10405700  0.10825200  1
  C  21  1  0.25400400  0.15251400  0.18639800  1
  C  22  1  0.25307800  0.18699100  0.19324000  1
  C  23  1  0.25290600  0.21287400  0.17740300  1
  C  24  1  0.25355600  0.20519000  0.15500500  1
  C  37  1  0.25528800  0.11166800  0.15173000  1
  C  42  1  0.28950000  0.08979400  0.85180000  1
  C  43  1  0.27467500  0.05894300  0.84381900  1
  C  44  1  0.23185700  0.05956400  0.84389100  1
  C  45  1  0.21741900  0.09054900  0.85195300  1
  C  46  1  0.17380800  0.09567200  0.85416400  1
  C  47  1  0.14547500  0.06966400  0.84763700  1
  C  48  1  0.16221400  0.03964200  0.83872900  1
  C  49  1  0.20477700  0.03403800  0.83713200  1
  C  50  1  0.30145500  0.03290700  0.83710700  1
  C  51  1  0.34423000  0.03799200  0.83850400  1
  C  52  1  0.36032100  0.06843700  0.84677300  1
  C  53  1  0.33295300  0.09488400  0.85325900  1
  C  54  1  0.25488600  0.14512600  0.84580500  1
  C  55  1  0.25510100  0.17175300  0.86089500  1
  C  56  1  0.25453600  0.15888300  0.88190500  1
  C  57  1  0.25429700  0.12351600  0.88108200  1
  C  58  1  0.25460300  0.17674900  0.90176100  1
  C  59  1  0.25459600  0.15854400  0.92136000  1
  C  60  1  0.25460600  0.12297400  0.92147100  1
  C  61  1  0.25444300  0.10504300  0.90110900  1
  C  62  1  0.25517300  0.15275500  0.82304200  1
  C  63  1  0.25593900  0.18715900  0.81606800  1
  C  64  1  0.25627400  0.21314800  0.83183500  1
  C  65  1  0.25565100  0.20571900  0.85428700  1
  C  78  1  0.25390500  0.11216500  0.85769800  1
  C  83  1  0.71732000  0.95237000  0.85189700  1
  C  84  1  0.73183700  0.98325900  0.84380500  1
  C  85  1  0.77468600  0.98377500  0.84366100  1
  C  86  1  0.78946400  0.95287300  0.85153000  1
  C  87  1  0.83287700  0.94766300  0.85311800  1
  C  88  1  0.86032200  0.97411000  0.84674500  1
  C  89  1  0.84429200  0.00457900  0.83845600  1
  C  90  1  0.80156500  0.00975400  0.83701700  1
  C  91  1  0.70468000  0.00871400  0.83709400  1
  C  92  1  0.66212500  0.00301800  0.83873100  1
  C  93  1  0.64537000  0.97293100  0.84756000  1
  C  94  1  0.67377700  0.94708400  0.85418500  1
  C  95  1  0.75349100  0.89787800  0.84548300  1
  C  96  1  0.75378100  0.87138600  0.86057100  1
  C  97  1  0.75452200  0.88472300  0.88136800  1
  C  98  1  0.75439100  0.91999300  0.88082200  1
  C  99  1  0.75468900  0.86676100  0.90090700  1
  C  100  1  0.75445100  0.88493100  0.92037200  1
  C  101  1  0.75457700  0.92114900  0.92151600  1
  C  102  1  0.75455600  0.93843100  0.90092000  1
  C  103  1  0.75362700  0.88997100  0.82277100  1
  C  104  1  0.75312900  0.85538300  0.81596000  1
  C  105  1  0.75290800  0.82960200  0.83177300  1
  C  106  1  0.75354700  0.83729100  0.85416700  1
  C  119  1  0.75371800  0.93082200  0.85744000  1
  C  124  1  0.79180400  0.95206900  0.15712000  1
  C  125  1  0.77730600  0.98297800  0.16524700  1
  C  126  1  0.73449100  0.98349400  0.16538000  1
  C  127  1  0.71972900  0.95256700  0.15747500  1
  C  128  1  0.67626300  0.94750900  0.15598000  1
  C  129  1  0.64887300  0.97396500  0.16245300  1
  C  130  1  0.66493900  0.00444200  0.17068600  1
  C  131  1  0.70770500  0.00953800  0.17207500  1
  C  132  1  0.80437600  0.00848900  0.17202500  1
  C  133  1  0.84693900  0.00288900  0.17041200  1
  C  134  1  0.86375700  0.97283200  0.16157900  1
  C  135  1  0.83540000  0.94693700  0.15492200  1
  C  136  1  0.75567300  0.89736700  0.16336600  1
  C  137  1  0.75540500  0.87074100  0.14827700  1
  C  138  1  0.75473900  0.88362800  0.12727000  1
  C  139  1  0.75481800  0.91899600  0.12807500  1
  C  140  1  0.75453700  0.86574900  0.10742300  1
  C  141  1  0.75455600  0.88393400  0.08782000  1
  C  142  1  0.75461700  0.91950200  0.08766500  1
  C  143  1  0.75462400  0.93745400  0.10803200  1
  C  144  1  0.75549900  0.88973300  0.18613000  1
  C  145  1  0.75603700  0.85532900  0.19310700  1
  C  146  1  0.75622800  0.82933900  0.17734000  1
  C  147  1  0.75561100  0.83677000  0.15488700  1
  C  160  1  0.75544500  0.93033400  0.15146300  1
  C  165  1  0.71975700  0.58960000  0.65759000  1
  C  166  1  0.73452200  0.55871000  0.66548300  1
  C  167  1  0.77737100  0.55923400  0.66536100  1
  C  168  1  0.79193100  0.59010100  0.65725200  1
  C  169  1  0.83549100  0.59530000  0.65494500  1
  C  170  1  0.86381100  0.56943100  0.66163800  1
  C  171  1  0.84705300  0.53937900  0.67051400  1
  C  172  1  0.80447300  0.53376500  0.67211700  1
  C  173  1  0.70764100  0.53273000  0.67212900  1
  C  174  1  0.66487600  0.53792200  0.67072700  1
  C  175  1  0.64887700  0.56842900  0.66249600  1
  C  176  1  0.67633800  0.59481200  0.65602300  1
  C  177  1  0.75572100  0.64459500  0.66352500  1
  C  178  1  0.75540300  0.67100300  0.64836400  1
  C  179  1  0.75478500  0.65764800  0.62764500  1
  C  180  1  0.75489500  0.62239700  0.62825100  1
  C  181  1  0.75455400  0.67567400  0.60814500  1
  C  182  1  0.75430200  0.65751200  0.58870400  1
  C  183  1  0.75448300  0.62128900  0.58758200  1
  C  184  1  0.75465600  0.60397700  0.60816500  1
  C  185  1  0.75570000  0.65265400  0.68621300  1
  C  186  1  0.75623400  0.68728000  0.69275500  1
  C  187  1  0.75631900  0.71300000  0.67683900  1
  C  188  1  0.75555900  0.70515400  0.65454600  1
  C  201  1  0.75552700  0.61161000  0.65164000  1
  C  206  1  0.78943000  0.58989800  0.35173800  1
  C  207  1  0.77467500  0.55899100  0.34380100  1
  C  208  1  0.73185600  0.55951500  0.34393400  1
  C  209  1  0.71734500  0.59039900  0.35210200  1
  C  210  1  0.67374000  0.59551000  0.35428800  1
  C  211  1  0.64543300  0.56964100  0.34753800  1
  C  212  1  0.66222900  0.53955900  0.33873100  1
  C  213  1  0.70480500  0.53399200  0.33714200  1
  C  214  1  0.80147000  0.53295700  0.33708900  1
  C  215  1  0.84424100  0.53804800  0.33849400  1
  C  216  1  0.86030200  0.56852300  0.34673500  1
  C  217  1  0.83289600  0.59495400  0.35322800  1
  C  218  1  0.75351700  0.64511300  0.34597800  1
  C  219  1  0.75384700  0.67166300  0.36113700  1
  C  220  1  0.75450000  0.65877700  0.38206600  1
  C  221  1  0.75439300  0.62342700  0.38118400  1
  C  222  1  0.75469600  0.67670400  0.40189000  1
  C  223  1  0.75473900  0.65850100  0.42146800  1
  C  224  1  0.75472500  0.62293300  0.42154700  1
  C  225  1  0.75460000  0.60496800  0.40119900  1
  C  226  1  0.75351400  0.65289700  0.32324000  1
  C  227  1  0.75297300  0.68744000  0.31655600  1
  C  228  1  0.75291900  0.71328100  0.33239700  1
  C  229  1  0.75367800  0.70569000  0.35474800  1
  C  242  1  0.75371700  0.61210600  0.35779700  1
  C  247  1  0.21738600  0.45227000  0.35183300  1
  C  248  1  0.23187100  0.48321000  0.34378600  1
  C  249  1  0.27472400  0.48379700  0.34372400  1
  C  250  1  0.28960400  0.45299100  0.35169000  1
  C  251  1  0.33305500  0.44772800  0.35323100  1
  C  252  1  0.36049700  0.47412100  0.34667400  1
  C  253  1  0.34428400  0.50454800  0.33844300  1
  C  254  1  0.30156000  0.50975000  0.33704700  1
  C  255  1  0.20473500  0.50868700  0.33706000  1
  C  256  1  0.16216800  0.50303700  0.33867300  1
  C  257  1  0.14548500  0.47302100  0.34762200  1
  C  258  1  0.17381800  0.44703300  0.35413300  1
  C  259  1  0.25487900  0.39790300  0.34564600  1
  C  260  1  0.25505300  0.37149400  0.36080700  1
  C  261  1  0.25456600  0.38484900  0.38152700  1
  C  262  1  0.25433200  0.42010100  0.38091800  1
  C  263  1  0.25461800  0.36682600  0.40102700  1
  C  264  1  0.25436000  0.38499100  0.42046600  1
  C  265  1  0.25450200  0.42121400  0.42158500  1
  C  266  1  0.25444500  0.43852300  0.40100400  1
  C  267  1  0.25535200  0.38985400  0.32295900  1
  C  268  1  0.25621900  0.35523200  0.31641700  1
  C  269  1  0.25630700  0.32950700  0.33233200  1
  C  270  1  0.25555900  0.33734600  0.35462600  1
  C  283  1  0.25391800  0.43087700  0.35752700  1
  C  288  1  0.29178100  0.45197400  0.65718600  1
  C  289  1  0.27731800  0.48293700  0.66527400  1
  C  290  1  0.23450100  0.48356400  0.66533800  1
  C  291  1  0.21969000  0.45273100  0.65732600  1
  C  292  1  0.17624100  0.44762700  0.65589200  1
  C  293  1  0.14886800  0.47403500  0.66242700  1
  C  294  1  0.16493600  0.50449200  0.67069300  1
  C  295  1  0.20771600  0.50958300  0.67207900  1
  C  296  1  0.30436600  0.50846700  0.67206300  1
  C  297  1  0.34693700  0.50292100  0.67044800  1
  C  298  1  0.36368300  0.47292200  0.66151900  1
  C  299  1  0.33540100  0.44689100  0.65496800  1
  C  300  1  0.25431700  0.39739200  0.66320300  1
  C  301  1  0.25416000  0.37084700  0.64804000  1
  C  302  1  0.25472500  0.38373800  0.62711100  1
  C  303  1  0.25493100  0.41908800  0.62799000  1
  C  304  1  0.25462500  0.36580600  0.60729100  1
  C  305  1  0.25466000  0.38399900  0.58771200  1
  C  306  1  0.25464900  0.41956700  0.58761800  1
  C  307  1  0.25477400  0.43753900  0.60796800  1
  C  308  1  0.25386800  0.38959800  0.68594100  1
  C  309  1  0.25296400  0.35506000  0.69262400  1
  C  310  1  0.25284600  0.32922900  0.67677500  1
  C  311  1  0.25363100  0.33682000  0.65442400  1
  C  324  1  0.25529600  0.43039400  0.65138500  1
  C  329  1  0.25452900  0.09719000  0.98040400  1
  C  331  1  0.25441500  0.13638200  0.01039500  1
  C  332  1  0.25449800  0.10999800  0.02634400  1
  C  334  1  0.25455400  0.07053500  0.99627200  1
  C  336  1  0.25461900  0.03647200  0.99098500  1
  C  339  1  0.25438000  0.09057700  0.95756900  1
  C  341  1  0.25519800  0.11865100  0.04857200  1
  C  343  1  0.75457500  0.94534100  0.02878000  1
  C  345  1  0.75441800  0.90612400  0.99879200  1
  C  346  1  0.75449000  0.93249500  0.98283600  1
  C  348  1  0.75458500  0.97197700  0.01290700  1
  C  350  1  0.75461800  0.00602500  0.01819600  1
  C  353  1  0.75426200  0.95191200  0.05161900  1
  C  355  1  0.75519700  0.92383400  0.96060700  1
  C  357  1  0.75454100  0.59717000  0.48041000  1
  C  359  1  0.75444000  0.63638900  0.51037300  1
  C  360  1  0.75451700  0.61000400  0.52631900  1
  C  362  1  0.75457700  0.57052400  0.49627500  1
  C  364  1  0.75464100  0.53645900  0.49099700  1
  C  367  1  0.75438600  0.59053100  0.45759100  1
  C  369  1  0.75522100  0.61864400  0.54853000  1
  C  371  1  0.25450700  0.44533000  0.52876200  1
  C  373  1  0.25442300  0.40611800  0.49879200  1
  C  374  1  0.25451600  0.43250900  0.48284900  1
  C  376  1  0.25455500  0.47198100  0.51290000  1
  C  378  1  0.25463900  0.50603600  0.51819000  1
  C  381  1  0.25440900  0.45195100  0.55158400  1
  C  383  1  0.25522400  0.42386800  0.46063700  1
  C  385  1  0.03828200  0.04433100  0.15814500  1
  C  387  1  0.00806700  0.99540200  0.17587000  1
  C  388  1  0.97143500  0.99736500  0.16315700  1
  C  390  1  0.00082300  0.04744500  0.14584000  1
  C  392  1  0.99348100  0.07337500  0.13090400  1
  C  395  1  0.06920100  0.06965000  0.15705900  1
  C  397  1  0.93699500  0.97616400  0.16705200  1
  C  399  1  0.47087100  0.04432200  0.85104300  1
  C  401  1  0.50108400  0.99539900  0.83330900  1
  C  402  1  0.53771500  0.99736300  0.84602000  1
  C  404  1  0.50834600  0.04744600  0.86333800  1
  C  406  1  0.51575200  0.07349600  0.87817900  1
  C  409  1  0.43995700  0.06965100  0.85212500  1
  C  411  1  0.57215100  0.97616900  0.84211800  1
  C  413  1  0.97089900  0.99815200  0.85102000  1
  C  415  1  0.00109800  0.04710300  0.83331400  1
  C  416  1  0.03772200  0.04516700  0.84604100  1
  C  418  1  0.00834700  0.99505000  0.86333000  1
  C  420  1  0.01568200  0.96910000  0.87824800  1
  C  423  1  0.93995800  0.97284200  0.85211900  1
  C  425  1  0.07217900  0.06632300  0.84209200  1
  C  427  1  0.53825100  0.99810400  0.15820000  1
  C  429  1  0.50811900  0.04713200  0.17584800  1
  C  430  1  0.47153800  0.04527000  0.16307800  1
  C  432  1  0.50082600  0.99505300  0.14585900  1
  C  434  1  0.49343900  0.96909000  0.13095700  1
  C  437  1  0.56922800  0.97281700  0.15707100  1
  C  439  1  0.43711400  0.06651600  0.16698000  1
  C  441  1  0.53828800  0.54433900  0.65816700  1
  C  443  1  0.50806100  0.49538100  0.67586500  1
  C  444  1  0.47146400  0.49729100  0.66311700  1
  C  446  1  0.50082900  0.54744100  0.64585000  1
  C  448  1  0.49348700  0.57337800  0.63091300  1
  C  451  1  0.56924500  0.56964600  0.65706000  1
  C  453  1  0.43707600  0.47601900  0.66700400  1
  C  455  1  0.97089500  0.54431100  0.35104400  1
  C  457  1  0.00112400  0.49538300  0.33333333  1
  C  458  1  0.03773400  0.49729900  0.34605300  1
  C  460  1  0.00838000  0.54743300  0.36333800  1
  C  462  1  0.01576800  0.57348200  0.37819000  1
  C  465  1  0.93996500  0.56963900  0.35213700  1
  C  467  1  0.07211300  0.47602700  0.34216000  1
  C  469  1  0.47105500  0.49797900  0.35096100  1
  C  471  1  0.50109500  0.54709900  0.33333333  1
  C  472  1  0.53769600  0.54522400  0.34608300  1
  C  474  1  0.50841800  0.49500900  0.36332500  1
  C  476  1  0.51572200  0.46909600  0.37825400  1
  C  479  1  0.43998000  0.47279800  0.35212200  1
  C  481  1  0.57209000  0.56646800  0.34216100  1
  C  483  1  0.03826100  0.49813100  0.65819800  1
  C  485  1  0.00813800  0.54715700  0.67584500  1
  C  486  1  0.97157100  0.54533000  0.66305800  1
  C  488  1  0.00083600  0.49508200  0.64585500  1
  C  490  1  0.99346700  0.46912200  0.63094500  1
  C  493  1  0.06922200  0.47283400  0.65707600  1
  C  495  1  0.93720300  0.56665000  0.66695000  1
  C  497  1  0.24890100  0.30364100  0.26572600  1
  C  499  1  0.27604200  0.24699800  0.26352900  1
  C  500  1  0.25839200  0.24110600  0.24260200  1
  C  502  1  0.23056600  0.29826900  0.24464200  1
  C  504  1  0.20708600  0.32286000  0.23406400  1
  C  507  1  0.24810600  0.33556200  0.27624600  1
  C  509  1  0.26273900  0.20855000  0.23330600  1
  C  511  1  0.26031700  0.30361800  0.74342300  1
  C  513  1  0.23314400  0.24698100  0.74566900  1
  C  514  1  0.25072500  0.24110500  0.76661800  1
  C  516  1  0.27862600  0.29826400  0.76452000  1
  C  518  1  0.30205700  0.32288100  0.77510700  1
  C  521  1  0.26112500  0.33553200  0.73287600  1
  C  523  1  0.24643000  0.20852300  0.77591700  1
  C  525  1  0.74886900  0.73885200  0.74345900  1
  C  527  1  0.77603000  0.79548600  0.74565100  1
  C  528  1  0.75847700  0.80135900  0.76660500  1
  C  530  1  0.73053100  0.74423100  0.76454000  1
  C  532  1  0.70701100  0.71964700  0.77510000  1
  C  535  1  0.74803300  0.70694500  0.73292500  1
  C  537  1  0.76270600  0.83384300  0.77588400  1
  C  539  1  0.76027200  0.73886200  0.26574400  1
  C  541  1  0.73313100  0.79550700  0.26351300  1
  C  542  1  0.75068500  0.80137700  0.24255600  1
  C  544  1  0.77859400  0.74422100  0.24465400  1
  C  546  1  0.80207000  0.71962400  0.23407700  1
  C  549  1  0.76110500  0.70695300  0.27630000  1
  C  551  1  0.74635600  0.83394900  0.23324700  1
  N  38  1  0.25384600  0.10440600  0.06786800  1
  N  39  1  0.10835300  0.06758500  0.15990800  1
  N  40  1  0.40325700  0.06346600  0.15583800  1
  N  41  1  0.25800900  0.19782800  0.21357800  1
  N  79  1  0.25460200  0.11221000  0.94204100  1
  N  80  1  0.40079600  0.06760500  0.84928000  1
  N  81  1  0.10592800  0.06359900  0.85336900  1
  N  82  1  0.25107100  0.19786200  0.79567300  1
  N  120  1  0.75387400  0.93807600  0.94130800  1
  N  121  1  0.60589700  0.97899300  0.85337500  1
  N  122  1  0.90079400  0.97483100  0.84927500  1
  N  123  1  0.75811000  0.84483900  0.79555600  1
  N  161  1  0.75465400  0.93011400  0.06705000  1
  N  162  1  0.90324300  0.97896300  0.15579600  1
  N  163  1  0.60838500  0.97485900  0.15994000  1
  N  164  1  0.75108600  0.84460600  0.21349600  1
  N  202  1  0.75383200  0.60436600  0.56781000  1
  N  203  1  0.60840500  0.56768000  0.65994000  1
  N  204  1  0.90333400  0.56341700  0.65583900  1
  N  205  1  0.75256200  0.69999700  0.71259200  1
  N  243  1  0.75466900  0.61219000  0.44209300  1
  N  244  1  0.90078900  0.56770300  0.34927700  1
  N  245  1  0.60593800  0.56349800  0.35333100  1
  N  246  1  0.75665000  0.69987800  0.29662800  1
  N  284  1  0.25385800  0.43814100  0.44135600  1
  N  285  1  0.10592000  0.47900500  0.35336300  1
  N  286  1  0.40101500  0.47594300  0.34906500  1
  N  287  1  0.25260000  0.34250800  0.29658000  1
  N  325  1  0.25459000  0.43024900  0.56705600  1
  N  326  1  0.40326200  0.47896900  0.65580400  1
  N  327  1  0.10839100  0.47482000  0.65991700  1
  N  328  1  0.25664900  0.34258600  0.71254400  1
  N  330  1  0.25446200  0.12932200  0.98858600  1
  N  333  1  0.25459800  0.07819400  0.01820400  1
  N  344  1  0.75448600  0.91320900  0.02059800  1
  N  347  1  0.75460300  0.96430000  0.99097500  1
  N  358  1  0.75448000  0.62931500  0.48857200  1
  N  361  1  0.75462400  0.57819300  0.51820200  1
  N  372  1  0.25445300  0.41319000  0.52059500  1
  N  375  1  0.25461800  0.46431700  0.49097200  1
  N  386  1  0.03938500  0.01832000  0.17295500  1
  N  389  1  0.96985600  0.02429800  0.14919700  1
  N  400  1  0.46976400  0.01831300  0.83623000  1
  N  403  1  0.53931300  0.02430700  0.85997000  1
  N  414  1  0.96977900  0.02417700  0.83622000  1
  N  417  1  0.03930900  0.01820200  0.85997700  1
  N  428  1  0.53938700  0.02414700  0.17298600  1
  N  431  1  0.46993700  0.01828800  0.14915600  1
  N  442  1  0.53937100  0.51832000  0.67297300  1
  N  445  1  0.46989400  0.52424300  0.64916900  1
  N  456  1  0.96980600  0.51830700  0.33622900  1
  N  459  1  0.03932700  0.52425600  0.36000000  1
  N  470  1  0.46985300  0.52409100  0.33621400  1
  N  473  1  0.53929100  0.51826200  0.36002000  1
  N  484  1  0.03939700  0.52416500  0.67298800  1
  N  487  1  0.96996700  0.51834500  0.64913400  1
  N  498  1  0.27104300  0.27716900  0.27400600  1
  N  501  1  0.23610000  0.26758700  0.23432500  1
  N  512  1  0.23817300  0.27713400  0.73516400  1
  N  515  1  0.27305300  0.26760000  0.77486000  1
  N  526  1  0.77099200  0.76532600  0.73516700  1
  N  529  1  0.73610600  0.77490300  0.77486200  1
  N  540  1  0.73815400  0.76535100  0.27401400  1
  N  543  1  0.77301600  0.77488500  0.23431300  1
  O  337  1  0.25457700  0.01449400  0.00497900  1
  O  351  1  0.75457900  0.02799700  0.00419700  1
  O  365  1  0.75460000  0.51449200  0.50499800  1
  O  379  1  0.25459900  0.52801600  0.50419600  1
  O  393  1  0.96142800  0.07525000  0.12040700  1
  O  407  1  0.54768700  0.07519500  0.88879500  1
  O  421  1  0.04770000  0.96722500  0.88877400  1
  O  435  1  0.46144100  0.96726500  0.12040800  1
  O  449  1  0.46144600  0.57526100  0.62040600  1
  O  463  1  0.04771100  0.57522500  0.38879500  1
  O  477  1  0.54774100  0.46722700  0.38877900  1
  O  491  1  0.96146000  0.46725900  0.62040900  1
  O  505  1  0.19198000  0.31838900  0.21598200  1
  O  519  1  0.31722600  0.31839200  0.79317400  1
  O  533  1  0.69195000  0.72408300  0.79319700  1
  O  547  1  0.81719000  0.72409000  0.21599500  1
