# generated using pymatgen
data_H9(C8N)2
_symmetry_space_group_name_H-M   'P 1'
_cell_length_a   38.97902400
_cell_length_b   38.97902400
_cell_length_c   38.97902400
_cell_angle_alpha   109.47122063
_cell_angle_beta   109.47122063
_cell_angle_gamma   109.47122063
_symmetry_Int_Tables_number   1
_chemical_formula_structural   H9(C8N)2
_chemical_formula_sum   'H216 C384 N48'
_cell_volume   45590.14684005
_cell_formula_units_Z   24
loop_
 _symmetry_equiv_pos_site_id
 _symmetry_equiv_pos_as_xyz
  1  'x, y, z'
loop_
 _atom_site_type_symbol
 _atom_site_label
 _atom_site_symmetry_multiplicity
 _atom_site_fract_x
 _atom_site_fract_y
 _atom_site_fract_z
 _atom_site_occupancy
  C  1  1  0.52336550  0.76331900  0.02184450  1
  C  2  1  0.52251950  0.77454200  0.06029650  1
  C  3  1  0.56066650  0.80058000  0.09924850  1
  C  4  1  0.59865450  0.81742900  0.09925450  1
  C  5  1  0.60086650  0.80639900  0.06201350  1
  C  6  1  0.56269550  0.77910600  0.02278350  1
  C  7  1  0.48343300  0.75947250  0.05883050  1
  C  8  1  0.56239000  0.76680750  0.98418250  1
  C  10  1  0.48479200  0.73649300  0.98253600  1
  C  11  1  0.44558800  0.72251700  0.98192500  1
  C  12  1  0.40735100  0.69777750  0.94304850  1
  C  13  1  0.40879950  0.68452550  0.90555700  1
  C  14  1  0.44687850  0.69612900  0.90500450  1
  C  15  1  0.48532600  0.72398000  0.94387600  1
  C  16  1  0.44563850  0.73440800  0.02034950  1
  C  18  1  0.52453950  0.73947250  0.94555900  1
  C  27  1  0.98847400  0.50442350  0.74596850  1
  C  28  1  0.98931450  0.54371900  0.75804950  1
  C  29  1  0.95116450  0.54451850  0.74595900  1
  C  30  1  0.91317600  0.50652850  0.72477150  1
  C  31  1  0.91098067  0.46709017  0.71151350  1
  C  32  1  0.94914500  0.46602550  0.72240150  1
  C  33  1  0.02839800  0.58134300  0.78207300  1
  C  34  1  0.94945800  0.42773500  0.71039800  1
  C  36  1  0.02705050  0.50369550  0.75772800  1
  C  37  1  0.06625100  0.54229350  0.78296950  1
  C  38  1  0.10449100  0.54166250  0.79646750  1
  C  39  1  0.10305650  0.50273100  0.78180250  1
  C  40  1  0.06498400  0.46409400  0.75531400  1
  C  41  1  0.02652400  0.46450150  0.74467450  1
  C  42  1  0.06619500  0.58066500  0.79481200  1
  C  44  1  0.98731400  0.42696850  0.72091950  1
  C  53  1  0.76433900  0.73657350  0.75404750  1
  C  54  1  0.79155250  0.72533450  0.74196300  1
  C  55  1  0.80446650  0.69929800  0.75407350  1
  C  56  1  0.78770400  0.68252350  0.77529650  1
  C  57  1  0.76148850  0.69355150  0.78853000  1
  C  58  1  0.74953800  0.72083400  0.77764200  1
  C  59  1  0.80513950  0.74038350  0.71792600  1
  C  60  1  0.72325967  0.73315667  0.78965900  1
  C  62  1  0.75183050  0.76337200  0.74226950  1
  C  63  1  0.76517750  0.77732450  0.71701800  1
  C  64  1  0.75104850  0.80206800  0.70351950  1
  C  65  1  0.72675200  0.81526850  0.71815650  1
  C  66  1  0.71457150  0.80364750  0.74461100  1
  C  67  1  0.72568700  0.77589300  0.75532100  1
  C  68  1  0.79170700  0.76542750  0.70517550  1
  C  70  1  0.71194300  0.76046450  0.77910950  1
  C  79  1  0.74742450  0.99562250  0.47819400  1
  C  80  1  0.72020300  0.95631200  0.43975300  1
  C  81  1  0.70726100  0.95548400  0.40079200  1
  C  82  1  0.72403650  0.99345700  0.40076150  1
  C  83  1  0.75023350  0.03292600  0.43798850  1
  C  84  1  0.76220850  0.03400500  0.47723150  1
  C  85  1  0.70663450  0.91869800  0.44123550  1
  C  86  1  0.78849850  0.07231000  0.51582250  1
  C  88  1  0.75996400  0.99637300  0.51751200  1
  C  89  1  0.74664600  0.95778500  0.51813800  1
  C  90  1  0.76082400  0.95843350  0.55701850  1
  C  91  1  0.78509850  0.99737600  0.59450550  1
  C  92  1  0.79726350  0.03599800  0.59504150  1
  C  93  1  0.78611850  0.03557700  0.55616250  1
  C  94  1  0.72010250  0.91940100  0.47972150  1
  C  96  1  0.79985050  0.07309850  0.55445900  1
  C  105  1  0.50150300  0.97813400  0.74149100  1
  C  106  1  0.46220900  0.93968650  0.71423650  1
  C  107  1  0.46140150  0.90073300  0.70130850  1
  C  108  1  0.49938100  0.90072450  0.71816750  1
  C  109  1  0.53883300  0.93796400  0.74441600  1
  C  110  1  0.53989400  0.97719550  0.75634950  1
  C  111  1  0.42458850  0.94115300  0.70062250  1
  C  112  1  0.57818850  0.01579700  0.78267350  1
  C  114  1  0.50223800  0.01744400  0.75399700  1
  C  115  1  0.46364350  0.01805450  0.74062500  1
  C  116  1  0.46427700  0.05692850  0.75477850  1
  C  117  1  0.50321400  0.09442350  0.77905350  1
  C  118  1  0.54184600  0.09497850  0.79125750  1
  C  119  1  0.54143200  0.05610550  0.78017350  1
  C  120  1  0.42527100  0.97962950  0.71406250  1
  C  122  1  0.57896150  0.05442250  0.79398000  1
  C  131  1  0.24254400  0.25407050  0.75849550  1
  C  132  1  0.23133100  0.24200800  0.78573100  1
  C  133  1  0.20531850  0.25414000  0.79867150  1
  C  134  1  0.18849200  0.27530850  0.78186050  1
  C  135  1  0.19950167  0.28854100  0.75563067  1
  C  136  1  0.22678000  0.27763900  0.74367300  1
  C  137  1  0.24638200  0.21796900  0.79931400  1
  C  138  1  0.23907200  0.28962900  0.71736700  1
  C  140  1  0.26933750  0.24229050  0.74597900  1
  C  141  1  0.28329450  0.21704200  0.75932350  1
  C  142  1  0.30800750  0.20351950  0.74516200  1
  C  143  1  0.32123650  0.21819100  0.72089750  1
  C  144  1  0.30965700  0.24468950  0.70876350  1
  C  145  1  0.28185050  0.25533850  0.71982900  1
  C  146  1  0.27141650  0.20521100  0.78586850  1
  C  148  1  0.26639100  0.27909550  0.70605850  1
  C  157  1  0.01028000  0.24596900  0.98253100  1
  C  158  1  0.04958150  0.25807050  0.98338100  1
  C  159  1  0.05039400  0.24602400  0.94523900  1
  C  160  1  0.01240550  0.22480500  0.90724150  1
  C  161  1  0.97295550  0.21154600  0.90503150  1
  C  162  1  0.97188850  0.22239950  0.94319800  1
  C  163  1  0.08720050  0.28207650  0.02246900  1
  C  164  1  0.93358950  0.21037150  0.94349800  1
  C  166  1  0.00954150  0.25770500  0.02110350  1
  C  167  1  0.04813750  0.28292750  0.06031000  1
  C  168  1  0.04750050  0.29638300  0.09855050  1
  C  169  1  0.00856200  0.28174600  0.09710500  1
  C  170  1  0.96993050  0.25532800  0.05902650  1
  C  171  1  0.97034450  0.24464850  0.02056700  1
  C  172  1  0.08651150  0.29478350  0.06026000  1
  C  174  1  0.93281550  0.22089100  0.98134950  1
  C  183  1  0.26920050  0.52180850  0.51740800  1
  C  184  1  0.28044050  0.56024900  0.51653850  1
  C  185  1  0.30647300  0.59920900  0.55467200  1
  C  186  1  0.32326200  0.59923700  0.59267600  1
  C  187  1  0.31220200  0.56200950  0.59491650  1
  C  188  1  0.28494050  0.52276800  0.55675250  1
  C  189  1  0.26540200  0.55876700  0.47744200  1
  C  190  1  0.27262600  0.48417750  0.55646750  1
  C  192  1  0.24240450  0.48249250  0.47884300  1
  C  193  1  0.22846250  0.48186450  0.43962800  1
  C  194  1  0.20374800  0.44298250  0.40140050  1
  C  195  1  0.19051300  0.40549650  0.40285750  1
  C  196  1  0.20209250  0.40496050  0.44094500  1
  C  197  1  0.22988550  0.44384000  0.47939550  1
  C  198  1  0.24035800  0.52028000  0.43966000  1
  C  200  1  0.24532750  0.44554300  0.51861950  1
  C  209  1  0.76002450  0.25852300  0.23664950  1
  C  210  1  0.74796250  0.28576200  0.22544350  1
  C  211  1  0.76007850  0.29869400  0.19941750  1
  C  212  1  0.78122500  0.28186200  0.18256900  1
  C  213  1  0.79442850  0.25561450  0.19355600  1
  C  214  1  0.78356900  0.24368100  0.22085900  1
  C  215  1  0.72394850  0.29936500  0.24052050  1
  C  216  1  0.79555450  0.21736950  0.23314400  1
  C  218  1  0.74826600  0.24602150  0.26346150  1
  C  219  1  0.72303950  0.25938650  0.27744600  1
  C  220  1  0.70954100  0.24524650  0.30218350  1
  C  221  1  0.72420600  0.22096800  0.31539700  1
  C  222  1  0.75063750  0.20877200  0.30374550  1
  C  223  1  0.76129800  0.21985550  0.27595450  1
  C  224  1  0.71121200  0.28593550  0.26557350  1
  C  226  1  0.78502800  0.20606100  0.26046600  1
  C  235  1  0.48408650  0.24151300  0.49560650  1
  C  236  1  0.44563200  0.21428100  0.45631500  1
  C  237  1  0.40668300  0.20134350  0.45551550  1
  C  238  1  0.40668550  0.21817500  0.49350450  1
  C  239  1  0.44392900  0.24437450  0.53295750  1
  C  240  1  0.48315650  0.25633650  0.53400400  1
  C  241  1  0.44708850  0.20069150  0.41868600  1
  C  242  1  0.52176150  0.28264200  0.57229450  1
  C  244  1  0.52339000  0.25402900  0.49633100  1
  C  245  1  0.52399200  0.24068750  0.45773050  1
  C  246  1  0.56286150  0.25485350  0.45835700  1
  C  247  1  0.60036000  0.27910950  0.49728850  1
  C  248  1  0.60092300  0.29124400  0.53592400  1
  C  249  1  0.56205750  0.28017800  0.53552050  1
  C  250  1  0.48556400  0.21414200  0.41936300  1
  C  252  1  0.56038150  0.29395150  0.57305600  1
  C  261  1  0.02775450  0.01744350  0.26335300  1
  C  262  1  0.06620350  0.01659350  0.27460400  1
  C  263  1  0.10515550  0.05473900  0.30065250  1
  C  264  1  0.10516750  0.09273750  0.31742100  1
  C  265  1  0.06792650  0.09494850  0.30635700  1
  C  266  1  0.02869450  0.05677750  0.27909000  1
  C  267  1  0.06473950  0.97750700  0.25956050  1
  C  268  1  0.99009500  0.05648683  0.26677083  1
  C  270  1  0.98844550  0.97887000  0.23654050  1
  C  271  1  0.98783500  0.93966250  0.22259250  1
  C  272  1  0.94895850  0.90142450  0.19784800  1
  C  273  1  0.91146800  0.90287100  0.18461700  1
  C  274  1  0.91091400  0.94094900  0.19619500  1
  C  275  1  0.94978350  0.97940400  0.22400550  1
  C  276  1  0.02626000  0.93971250  0.23450250  1
  C  278  1  0.95146950  0.01862200  0.23944350  1
  C  287  1  0.75185300  0.48256800  0.00439500  1
  C  288  1  0.76396150  0.48344300  0.04370650  1
  C  289  1  0.75190850  0.44531400  0.04454250  1
  C  290  1  0.73069650  0.40730600  0.00656750  1
  C  291  1  0.71741700  0.40506550  0.96710050  1
  C  292  1  0.72827300  0.44322300  0.96601300  1
  C  293  1  0.78798200  0.52253950  0.08131650  1
  C  294  1  0.71624250  0.44350300  0.92770450  1
  C  296  1  0.76360050  0.52113050  0.00363600  1
  C  297  1  0.78884550  0.56034700  0.04222050  1
  C  298  1  0.80232550  0.59857550  0.04156400  1
  C  299  1  0.78767100  0.59711650  0.00261950  1
  C  300  1  0.76123650  0.55902650  0.96399900  1
  C  301  1  0.75054150  0.52057350  0.96442800  1
  C  302  1  0.80070600  0.56032000  0.08060600  1
  C  304  1  0.72677150  0.48134550  0.92691000  1
  C  625  1  0.74302750  0.87119600  0.14581750  1
  C  626  1  0.78601000  0.89633650  0.16086950  1
  C  627  1  0.80046500  0.90323850  0.13364050  1
  C  628  1  0.76972900  0.88544900  0.09116000  1
  C  629  1  0.72650400  0.86055350  0.07609750  1
  C  630  1  0.71267000  0.85195150  0.10300050  1
  C  635  1  0.67138700  0.82393550  0.08923950  1
  C  637  1  0.84282550  0.91826950  0.14514200  1
  C  639  1  0.76880500  0.40871350  0.63400750  1
  C  640  1  0.72582000  0.38079450  0.61617750  1
  C  641  1  0.71135850  0.33911800  0.60866350  1
  C  642  1  0.74208850  0.32736950  0.62162800  1
  C  643  1  0.78531750  0.35552700  0.63997250  1
  C  644  1  0.79917250  0.39627800  0.64521850  1
  C  649  1  0.84046150  0.42379150  0.65849700  1
  C  651  1  0.66900150  0.30825550  0.58134300  1
  C  653  1  0.78193800  0.63048600  0.86772500  1
  C  654  1  0.77179750  0.60518300  0.88539750  1
  C  655  1  0.73665350  0.59682450  0.89141700  1
  C  656  1  0.71118900  0.61349500  0.87727400  1
  C  657  1  0.72113350  0.63861850  0.85917900  1
  C  658  1  0.75745650  0.64852000  0.85528450  1
  C  663  1  0.77146550  0.67643500  0.84181350  1
  C  665  1  0.73272600  0.58156200  0.91849400  1
  C  667  1  0.72970050  0.09168750  0.35435100  1
  C  668  1  0.73983900  0.11951450  0.33920550  1
  C  669  1  0.77504450  0.16063600  0.36599550  1
  C  670  1  0.80061150  0.17190200  0.40808950  1
  C  671  1  0.79066700  0.14383050  0.42323550  1
  C  672  1  0.75424750  0.10367400  0.39683650  1
  C  677  1  0.74031650  0.07610750  0.41068000  1
  C  679  1  0.77909400  0.19171050  0.35474150  1
  C  681  1  0.59708850  0.85408650  0.72563300  1
  C  682  1  0.62502750  0.83903550  0.73569600  1
  C  683  1  0.66681400  0.86632700  0.76963300  1
  C  684  1  0.67865650  0.90887550  0.79418500  1
  C  685  1  0.65049350  0.92394400  0.78438350  1
  C  686  1  0.60964450  0.89696400  0.74904650  1
  C  691  1  0.58212900  0.91071700  0.73475900  1
  C  693  1  0.69763000  0.85477750  0.77305650  1
  C  695  1  0.13461800  0.36582400  0.77458800  1
  C  696  1  0.10947700  0.38366550  0.76449650  1
  C  697  1  0.10268200  0.39133600  0.73043800  1
  C  698  1  0.12057100  0.37849600  0.70581300  1
  C  699  1  0.14544300  0.36013800  0.71562800  1
  C  700  1  0.15390500  0.35474950  0.75104250  1
  C  705  1  0.18193500  0.34150400  0.76531800  1
  C  707  1  0.08767500  0.41868900  0.72694800  1
  C  709  1  0.91430350  0.13263500  0.76279650  1
  C  710  1  0.88647050  0.11492350  0.71981800  1
  C  711  1  0.84520150  0.10862400  0.70541850  1
  C  712  1  0.83379500  0.12255550  0.73621650  1
  C  713  1  0.86184950  0.14068700  0.77943450  1
  C  714  1  0.90217650  0.14484400  0.79324550  1
  C  719  1  0.92966500  0.15829400  0.83461800  1
  C  721  1  0.81422500  0.08148500  0.66308000  1
  C  723  1  0.37525900  0.64561750  0.73733350  1
  C  724  1  0.40054450  0.66074350  0.78029900  1
  C  725  1  0.40900650  0.63395850  0.79460600  1
  C  726  1  0.39252100  0.59188450  0.76375950  1
  C  727  1  0.36742600  0.57675450  0.72054550  1
  C  728  1  0.35736200  0.60314950  0.70681250  1
  C  733  1  0.32959850  0.58932000  0.66540450  1
  C  735  1  0.42432750  0.64518600  0.83692750  1
  C  737  1  0.87225000  0.27499600  0.12919700  1
  C  738  1  0.89004650  0.26489800  0.10401050  1
  C  739  1  0.89723250  0.23052450  0.09675400  1
  C  740  1  0.88399700  0.20564050  0.11426850  1
  C  741  1  0.86570750  0.21548300  0.13920550  1
  C  742  1  0.86081750  0.25119700  0.14814450  1
  C  747  1  0.84751000  0.26539750  0.17614150  1
  C  749  1  0.92448900  0.22688200  0.08165100  1
  C  751  1  0.36007950  0.22536400  0.59129350  1
  C  752  1  0.34501000  0.23545400  0.61921000  1
  C  753  1  0.37223600  0.26957550  0.66090550  1
  C  754  1  0.41473200  0.29425050  0.67267350  1
  C  755  1  0.42980600  0.28443250  0.64451850  1
  C  756  1  0.40289550  0.24896350  0.60374900  1
  C  761  1  0.41668000  0.23471650  0.57624350  1
  C  763  1  0.36073200  0.27311050  0.69176150  1
  C  765  1  0.15146950  0.23721300  0.36964850  1
  C  766  1  0.16660150  0.28018350  0.39493200  1
  C  767  1  0.13974750  0.29455150  0.40312400  1
  C  768  1  0.09757600  0.26372850  0.38632650  1
  C  769  1  0.08242900  0.22051750  0.36122350  1
  C  770  1  0.10892450  0.20673800  0.35147950  1
  C  775  1  0.09505100  0.16536900  0.32355600  1
  C  777  1  0.15109350  0.33688750  0.41835500  1
  C  779  1  0.63832400  0.26268900  0.90841400  1
  C  780  1  0.62059300  0.21971300  0.88056700  1
  C  781  1  0.61443700  0.20536300  0.83935600  1
  C  782  1  0.62855950  0.23617650  0.82801800  1
  C  783  1  0.64672750  0.27939700  0.85610650  1
  C  784  1  0.65069100  0.29316900  0.89635700  1
  C  789  1  0.66432300  0.33457000  0.92393600  1
  C  791  1  0.58735650  0.16303750  0.80830500  1
  C  961  1  0.24290750  0.61849750  0.91052700  1
  C  962  1  0.28606150  0.64491400  0.92714950  1
  C  963  1  0.29992300  0.67226650  0.91226550  1
  C  964  1  0.26888750  0.67351400  0.88157750  1
  C  965  1  0.22573450  0.64708650  0.86494100  1
  C  966  1  0.21187600  0.61827600  0.87836600  1
  C  971  1  0.16991150  0.58721350  0.85821300  1
  C  973  1  0.34185550  0.69395100  0.92302250  1
  C  989  1  0.79795550  0.88151650  0.61857300  1
  C  990  1  0.78811900  0.85504550  0.63524750  1
  C  991  1  0.74586700  0.82767150  0.62170050  1
  C  992  1  0.71396450  0.82645200  0.58941750  1
  C  993  1  0.72379800  0.85298950  0.57281250  1
  C  994  1  0.76604150  0.88180250  0.58780100  1
  C  999  1  0.77699200  0.91289850  0.57694150  1
  C  1001  1  0.73490000  0.80583100  0.64181200  1
  C  1017  1  0.33235700  0.08941950  0.70797250  1
  C  1018  1  0.35885550  0.07276650  0.71777500  1
  C  1019  1  0.38762400  0.08768100  0.76001400  1
  C  1020  1  0.38733650  0.11843700  0.79194450  1
  C  1021  1  0.36085400  0.13510600  0.78214400  1
  C  1022  1  0.33354100  0.12164350  0.73990350  1
  C  1027  1  0.31175650  0.14180750  0.72897200  1
  C  1029  1  0.41874650  0.07685700  0.77094250  1
  C  1045  1  0.17934050  0.38135800  0.26297750  1
  C  1046  1  0.15280800  0.36464400  0.21982900  1
  C  1047  1  0.12414150  0.37822350  0.20598500  1
  C  1048  1  0.12457900  0.41057650  0.23703150  1
  C  1049  1  0.15104200  0.42722450  0.28018050  1
  C  1050  1  0.17825600  0.41220300  0.29402300  1
  C  1055  1  0.20009600  0.42311950  0.33599250  1
  C  1057  1  0.09303150  0.35807100  0.16403750  1
  C  1073  1  0.62444300  0.29204650  0.38151050  1
  C  1074  1  0.64116100  0.28224550  0.35507650  1
  C  1075  1  0.62766250  0.24000700  0.32772250  1
  C  1076  1  0.59540100  0.20807800  0.32650400  1
  C  1077  1  0.57869650  0.21787700  0.35295050  1
  C  1078  1  0.59364450  0.26011500  0.38175250  1
  C  1083  1  0.58272300  0.27103950  0.41280050  1
  C  1085  1  0.64784800  0.22906300  0.30596400  1
  C  1101  1  0.91637100  0.73699850  0.11841950  1
  C  1102  1  0.93299100  0.78014700  0.14485900  1
  C  1103  1  0.91814300  0.79399000  0.17225700  1
  C  1104  1  0.88750450  0.76294250  0.17353600  1
  C  1105  1  0.87081450  0.71979450  0.14702900  1
  C  1106  1  0.88421250  0.70595450  0.11818800  1
  C  1111  1  0.86408000  0.66399150  0.08712350  1
  C  1113  1  0.92898150  0.83593750  0.19405000  1
  C  1129  1  0.24281900  0.11517550  0.32318350  1
  C  1130  1  0.28597650  0.13192150  0.34968600  1
  C  1131  1  0.29989100  0.11847250  0.37846350  1
  C  1132  1  0.26887750  0.08600600  0.37794950  1
  C  1133  1  0.22571700  0.06924300  0.35143200  1
  C  1134  1  0.21181000  0.08436400  0.32433700  1
  C  1139  1  0.16995300  0.07408350  0.30322050  1
  C  1141  1  0.34169550  0.13931050  0.41019800  1
  C  1157  1  0.79795900  0.41393550  0.17694350  1
  C  1158  1  0.78820750  0.43061600  0.15046150  1
  C  1159  1  0.74599000  0.41565200  0.12157600  1
  C  1160  1  0.71402950  0.38504300  0.12196750  1
  C  1161  1  0.72377500  0.36831150  0.14839750  1
  C  1162  1  0.76599000  0.38161200  0.17562100  1
  C  1167  1  0.77684850  0.36084300  0.19669950  1
  C  1169  1  0.73513000  0.42587700  0.08995500  1
  C  1185  1  0.32900000  0.73691750  0.61499950  1
  C  1186  1  0.35549300  0.78007650  0.63173150  1
  C  1187  1  0.38437800  0.79398450  0.61839150  1
  C  1188  1  0.38398550  0.76296600  0.58604650  1
  C  1189  1  0.35747950  0.71980800  0.56929850  1
  C  1190  1  0.33026900  0.70590550  0.58431250  1
  C  1195  1  0.30915600  0.66406400  0.57407700  1
  C  1197  1  0.41607700  0.83580700  0.63921400  1
  C  1213  1  0.18281400  0.29202450  0.91384950  1
  C  1214  1  0.15629050  0.28228300  0.93048950  1
  C  1215  1  0.12741450  0.24006400  0.91554250  1
  C  1216  1  0.12786250  0.20809800  0.88499750  1
  C  1217  1  0.15433700  0.21783700  0.86830900  1
  C  1218  1  0.18154600  0.26004850  0.88158750  1
  C  1223  1  0.20268900  0.27089950  0.86086350  1
  C  1225  1  0.09574950  0.22921200  0.92571150  1
  C  1241  1  0.62101000  0.82309400  0.23701600  1
  C  1242  1  0.63767750  0.84952650  0.28017300  1
  C  1243  1  0.62435200  0.87842550  0.29407950  1
  C  1244  1  0.59207850  0.87810400  0.26305650  1
  C  1245  1  0.57539350  0.85165800  0.21989850  1
  C  1246  1  0.59039600  0.82443550  0.20600050  1
  C  1251  1  0.58024850  0.80341650  0.16417600  1
  C  1253  1  0.64511700  0.91007250  0.33591050  1
  C  1269  1  0.91968900  0.67686900  0.79200700  1
  C  1270  1  0.93635100  0.65036750  0.78226750  1
  C  1271  1  0.92145050  0.62153550  0.74004800  1
  C  1272  1  0.89092900  0.62200550  0.70808350  1
  C  1273  1  0.87421450  0.64845550  0.71781900  1
  C  1274  1  0.88744850  0.67561900  0.76002950  1
  C  1279  1  0.86669700  0.69672450  0.77087050  1
  C  1281  1  0.93163550  0.58988450  0.72918800  1
  H  9  1  0.62587650  0.83823150  0.12764500  1
  H  17  1  0.38094250  0.66607750  0.87754500  1
  H  19  1  0.41805050  0.72474500  0.02083750  1
  H  20  1  0.48193200  0.76719450  0.08587950  1
  H  21  1  0.52598550  0.73113550  0.91847200  1
  H  22  1  0.58996850  0.77727500  0.98374750  1
  H  35  1  0.88594850  0.50769100  0.71834250  1
  H  43  1  0.13091750  0.50258650  0.79122100  1
  H  45  1  0.09377950  0.60874250  0.81274900  1
  H  46  1  0.02989350  0.60989200  0.79131950  1
  H  47  1  0.98587000  0.39843600  0.71112900  1
  H  48  1  0.92188050  0.39971800  0.69325650  1
  H  61  1  0.79534150  0.66176900  0.78177350  1
  H  69  1  0.71719300  0.83371650  0.70874450  1
  H  71  1  0.80184400  0.77507500  0.68723600  1
  H  72  1  0.82444050  0.73263350  0.70867600  1
  H  73  1  0.69319150  0.76880050  0.78889200  1
  H  74  1  0.71239800  0.72273000  0.80681300  1
  H  87  1  0.71641300  0.99227100  0.37236000  1
  H  95  1  0.79468300  0.99753950  0.62252050  1
  H  97  1  0.70999650  0.89133150  0.47924700  1
  H  98  1  0.68734050  0.89014000  0.41419350  1
  H  99  1  0.81861350  0.10163800  0.58153850  1
  H  100  1  0.79935850  0.10031850  0.51624100  1
  H  113  1  0.49820700  0.87233150  0.71057350  1
  H  121  1  0.50336650  0.12243150  0.78862500  1
  H  123  1  0.39719550  0.97914100  0.70390550  1
  H  124  1  0.39603700  0.91410150  0.68128350  1
  H  125  1  0.60749450  0.08150950  0.81275600  1
  H  126  1  0.60620050  0.01623100  0.79358350  1
  H  139  1  0.16770550  0.28174300  0.78946850  1
  H  147  1  0.33967800  0.20877550  0.71132950  1
  H  149  1  0.28106550  0.18727150  0.79600200  1
  H  150  1  0.23866200  0.20874650  0.81864250  1
  H  151  1  0.27472950  0.28888100  0.68730950  1
  H  152  1  0.22863500  0.30677200  0.70649700  1
  H  165  1  0.01356650  0.21835750  0.88001200  1
  H  173  1  0.00840800  0.29114300  0.12496200  1
  H  175  1  0.11458500  0.31270350  0.08784750  1
  H  176  1  0.11575350  0.29134250  0.02397300  1
  H  177  1  0.90428050  0.21110800  0.97990050  1
  H  178  1  0.90557600  0.19323750  0.91591650  1
  H  191  1  0.34404400  0.62763800  0.61989300  1
  H  199  1  0.17208550  0.37748200  0.37500450  1
  H  201  1  0.23072400  0.52075300  0.41206400  1
  H  202  1  0.27315000  0.58581100  0.47592800  1
  H  203  1  0.23698850  0.41846300  0.52008050  1
  H  204  1  0.28306250  0.48375900  0.58405750  1
  H  217  1  0.78765750  0.28947050  0.16178000  1
  H  225  1  0.71479700  0.21140050  0.33384150  1
  H  227  1  0.69329350  0.29608950  0.27524500  1
  H  228  1  0.71473150  0.31870100  0.23280950  1
  H  229  1  0.79479850  0.18729550  0.26878200  1
  H  230  1  0.81266900  0.20647350  0.22267650  1
  H  243  1  0.37829750  0.21058450  0.49234000  1
  H  251  1  0.62836500  0.28868500  0.49743300  1
  H  253  1  0.48507050  0.20401700  0.39128450  1
  H  254  1  0.42003750  0.18137850  0.39013900  1
  H  255  1  0.58747250  0.31270300  0.60158750  1
  H  256  1  0.52220200  0.29351900  0.60031200  1
  H  269  1  0.13356100  0.11996900  0.33818400  1
  H  277  1  0.88345700  0.87501300  0.16616900  1
  H  279  1  0.02674750  0.91212450  0.22486200  1
  H  280  1  0.09178950  0.97600450  0.26731800  1
  H  281  1  0.92438350  0.02006950  0.23109200  1
  H  282  1  0.98966250  0.08405750  0.27719000  1
  H  295  1  0.72427950  0.38009500  0.00775850  1
  H  303  1  0.79708100  0.62496700  0.00245500  1
  H  305  1  0.81864450  0.58791600  0.10867350  1
  H  306  1  0.79725850  0.52405950  0.10987700  1
  H  307  1  0.71698800  0.47988350  0.89836950  1
  H  308  1  0.69910450  0.41591300  0.89969950  1
  H  631  1  0.77877700  0.88838600  0.06999700  1
  H  632  1  0.80681600  0.90689250  0.19134050  1
  H  633  1  0.73436500  0.86546900  0.16630500  1
  H  634  1  0.70559200  0.84652550  0.04479750  1
  H  636  1  0.66733750  0.80678350  0.10318300  1
  H  638  1  0.84895150  0.90682900  0.12231950  1
  H  645  1  0.73303600  0.29715750  0.61553550  1
  H  646  1  0.70503200  0.39048900  0.60594400  1
  H  647  1  0.77748200  0.43788900  0.63700100  1
  H  648  1  0.80622950  0.34514100  0.64689150  1
  H  650  1  0.84453200  0.44179600  0.64540800  1
  H  652  1  0.66281250  0.27927650  0.56378800  1
  H  659  1  0.68633050  0.60952500  0.88230350  1
  H  660  1  0.79227700  0.59551250  0.89657250  1
  H  661  1  0.80873450  0.63711700  0.86576650  1
  H  662  1  0.70305350  0.65160900  0.85116850  1
  H  664  1  0.80252800  0.69383150  0.85490650  1
  H  666  1  0.72136550  0.59306750  0.93603200  1
  H  673  1  0.82549700  0.20177650  0.42899650  1
  H  674  1  0.71932150  0.11026400  0.30908550  1
  H  675  1  0.70286750  0.06295550  0.33418900  1
  H  676  1  0.80878250  0.15387700  0.45429450  1
  H  678  1  0.70924200  0.05812100  0.39700700  1
  H  680  1  0.79044450  0.22057750  0.37765900  1
  H  687  1  0.70893600  0.93008000  0.81813500  1
  H  688  1  0.61527700  0.80850250  0.71587350  1
  H  689  1  0.56786000  0.83354950  0.69953550  1
  H  690  1  0.66094900  0.95528450  0.80152050  1
  H  692  1  0.56412950  0.89673550  0.70366000  1
  H  694  1  0.72659900  0.87754950  0.78441650  1
  H  701  1  0.11772200  0.38470300  0.68177500  1
  H  702  1  0.09882850  0.39380300  0.78436050  1
  H  703  1  0.14020150  0.36272650  0.80070800  1
  H  704  1  0.15954100  0.35333150  0.69840750  1
  H  706  1  0.19906650  0.35459900  0.79641450  1
  H  708  1  0.09905150  0.43624500  0.71552650  1
  H  715  1  0.80384000  0.11732000  0.72720100  1
  H  716  1  0.89585150  0.10391300  0.69898550  1
  H  717  1  0.94314050  0.13478150  0.77140600  1
  H  718  1  0.85172150  0.14851400  0.80042250  1
  H  720  1  0.94765450  0.14521750  0.83889800  1
  H  722  1  0.78530050  0.06392900  0.65698150  1
  H  729  1  0.39653600  0.57098000  0.77270800  1
  H  730  1  0.41011950  0.69084700  0.80118250  1
  H  731  1  0.36855700  0.66577400  0.72878000  1
  H  732  1  0.35451800  0.54571050  0.69951950  1
  H  734  1  0.31219800  0.60299250  0.66109150  1
  H  736  1  0.41278400  0.62225250  0.84286550  1
  H  743  1  0.88984050  0.18135200  0.11107050  1
  H  744  1  0.90052350  0.28495450  0.09367400  1
  H  745  1  0.86956150  0.30135600  0.13515650  1
  H  746  1  0.85857550  0.19802900  0.15300050  1
  H  748  1  0.86060050  0.29647950  0.19337500  1
  H  750  1  0.94206100  0.21552750  0.09313650  1
  H  757  1  0.43589900  0.31833900  0.70289900  1
  H  758  1  0.31451550  0.21555600  0.60949750  1
  H  759  1  0.33956750  0.19920750  0.56210100  1
  H  760  1  0.46111400  0.30170600  0.65492300  1
  H  762  1  0.40269750  0.20361400  0.55825250  1
  H  764  1  0.38351450  0.28452900  0.72073950  1
  H  771  1  0.07664600  0.27272050  0.39017550  1
  H  772  1  0.19678800  0.30103800  0.40470500  1
  H  773  1  0.17168700  0.22863150  0.36312650  1
  H  774  1  0.05133450  0.19951150  0.34812200  1
  H  776  1  0.10875600  0.16109950  0.30619250  1
  H  778  1  0.12821150  0.34290800  0.40685250  1
  H  785  1  0.62339500  0.22719600  0.79808600  1
  H  786  1  0.60946650  0.19885400  0.88987950  1
  H  787  1  0.64038550  0.27127550  0.93721600  1
  H  788  1  0.65464300  0.30039650  0.84600950  1
  H  790  1  0.65125700  0.33887050  0.94194550  1
  H  792  1  0.56983600  0.15702500  0.77940800  1
  H  967  1  0.27733150  0.69222250  0.86926400  1
  H  968  1  0.30721650  0.64237650  0.94878700  1
  H  969  1  0.23445950  0.59766550  0.92070900  1
  H  970  1  0.20457450  0.64769450  0.84136700  1
  H  972  1  0.16214950  0.56928350  0.87061400  1
  H  974  1  0.34957450  0.71404750  0.91277100  1
  H  995  1  0.68293700  0.80774000  0.57912500  1
  H  996  1  0.81227600  0.85752650  0.65890450  1
  H  997  1  0.82897450  0.90236050  0.63100500  1
  H  998  1  0.69963850  0.85239850  0.55103700  1
  H  1000  1  0.80734150  0.93083650  0.58718400  1
  H  1002  1  0.70455550  0.78572450  0.62942100  1
  H  1023  1  0.40810900  0.13076850  0.82296450  1
  H  1024  1  0.35832300  0.05107100  0.69360100  1
  H  1025  1  0.31370350  0.07920650  0.67695400  1
  H  1026  1  0.36331000  0.15872500  0.80631900  1
  H  1028  1  0.29161650  0.12942900  0.69864050  1
  H  1030  1  0.43667900  0.08707000  0.80128600  1
  H  1051  1  0.10387350  0.42089900  0.22860150  1
  H  1052  1  0.15326200  0.34093150  0.19866550  1
  H  1053  1  0.19789950  0.36890300  0.27140650  1
  H  1054  1  0.14870450  0.44905850  0.30135700  1
  H  1056  1  0.22022550  0.41290950  0.34372000  1
  H  1058  1  0.07507400  0.37046050  0.15632650  1
  H  1079  1  0.58512400  0.17705600  0.30778700  1
  H  1080  1  0.66483050  0.30641700  0.35758450  1
  H  1081  1  0.63681950  0.32306250  0.40233000  1
  H  1082  1  0.55693050  0.19370100  0.35235050  1
  H  1084  1  0.59292500  0.30137450  0.43074150  1
  H  1086  1  0.63546950  0.19872000  0.28585550  1
  H  1107  1  0.87521150  0.77137300  0.19226650  1
  H  1108  1  0.95462750  0.80131050  0.14233100  1
  H  1109  1  0.92651800  0.72857050  0.09755250  1
  H  1110  1  0.84727750  0.69861700  0.14766050  1
  H  1112  1  0.87648300  0.65624650  0.06919450  1
  H  1114  1  0.91872250  0.84365050  0.21413700  1
  H  1135  1  0.27732550  0.07579450  0.39875500  1
  H  1136  1  0.30707850  0.15581800  0.34938050  1
  H  1137  1  0.23436250  0.12774250  0.30475300  1
  H  1138  1  0.20460450  0.04754450  0.35395300  1
  H  1140  1  0.16241100  0.08556400  0.28427000  1
  H  1142  1  0.34911900  0.12795000  0.42930400  1
  H  1163  1  0.68302250  0.37260100  0.10106550  1
  H  1164  1  0.81242350  0.45215700  0.15090450  1
  H  1165  1  0.82896100  0.42398200  0.19544200  1
  H  1166  1  0.69956050  0.34459150  0.14578300  1
  H  1168  1  0.80730300  0.37222350  0.21553150  1
  H  1170  1  0.70469000  0.41429300  0.07087400  1
  H  1191  1  0.40486750  0.77141200  0.57591550  1
  H  1192  1  0.35509050  0.80118450  0.65553400  1
  H  1193  1  0.31048300  0.72847050  0.62748950  1
  H  1194  1  0.36008900  0.69869450  0.54769750  1
  H  1196  1  0.29023950  0.65653950  0.58559500  1
  H  1198  1  0.43518950  0.84324000  0.62786450  1
  H  1219  1  0.10697300  0.17709300  0.87257100  1
  H  1220  1  0.15669150  0.30650000  0.95197950  1
  H  1221  1  0.20130500  0.32302400  0.92387900  1
  H  1222  1  0.15177000  0.19361850  0.84463550  1
  H  1224  1  0.22158100  0.30134350  0.87227150  1
  H  1226  1  0.07664150  0.19876650  0.91408700  1
  H  1247  1  0.58196500  0.89900150  0.27150350  1
  H  1248  1  0.66142950  0.84907400  0.30128750  1
  H  1249  1  0.63349200  0.80456600  0.22857100  1
  H  1250  1  0.55385800  0.85433000  0.19879100  1
  H  1252  1  0.59187300  0.78458850  0.15671150  1
  H  1254  1  0.63373550  0.92913800  0.34339250  1
  H  1275  1  0.87853200  0.60114450  0.67707450  1
  H  1276  1  0.95782300  0.65075050  0.80648250  1
  H  1277  1  0.92968100  0.69532200  0.82300300  1
  H  1278  1  0.85055600  0.64590250  0.69359850  1
  H  1280  1  0.87808900  0.71563800  0.80130500  1
  H  1282  1  0.92002950  0.57079550  0.69874000  1
  N  23  1  0.63944900  0.82554800  0.06712500  1
  N  24  1  0.56354350  0.81312600  0.13693850  1
  N  25  1  0.44265100  0.68359800  0.86664700  1
  N  26  1  0.36914950  0.68400500  0.93904550  1
  N  49  1  0.87238350  0.43360500  0.69205450  1
  N  50  1  0.94828250  0.57932800  0.75560450  1
  N  51  1  0.06922000  0.42995600  0.74693400  1
  N  52  1  0.14269600  0.57585700  0.82090500  1
  N  75  1  0.74760100  0.67450850  0.80810650  1
  N  76  1  0.82965050  0.68679000  0.74445150  1
  N  77  1  0.68887500  0.81632050  0.75307250  1
  N  78  1  0.76083000  0.81585200  0.67910100  1
  N  101  1  0.76415100  0.06637500  0.43281100  1
  N  102  1  0.68210950  0.92066400  0.36310750  1
  N  103  1  0.82299150  0.07015350  0.63340200  1
  N  104  1  0.75104850  0.92424100  0.56103250  1
  N  127  1  0.57230750  0.93285650  0.75846600  1
  N  128  1  0.42658350  0.86304650  0.67614500  1
  N  129  1  0.57598900  0.13333600  0.81703000  1
  N  130  1  0.43007850  0.06093000  0.74499450  1
  N  153  1  0.18035600  0.30797400  0.74160100  1
  N  154  1  0.19278350  0.24448850  0.82382700  1
  N  155  1  0.32228400  0.25308300  0.68301600  1
  N  156  1  0.32178550  0.17909050  0.75492400  1
  N  179  1  0.93948950  0.19197350  0.86641400  1
  N  180  1  0.08520850  0.25564400  0.94236550  1
  N  181  1  0.93577250  0.24690200  0.06323050  1
  N  182  1  0.08169850  0.32080300  0.13675450  1
  N  205  1  0.33130100  0.56718700  0.63354200  1
  N  206  1  0.31901900  0.63689900  0.55754700  1
  N  207  1  0.18952250  0.36660150  0.43673000  1
  N  208  1  0.18997950  0.43896000  0.36319250  1
  N  231  1  0.81391250  0.24163150  0.17443900  1
  N  232  1  0.75042700  0.32385550  0.18689350  1
  N  233  1  0.75900450  0.18299000  0.31631850  1
  N  234  1  0.68511650  0.25501600  0.31596450  1
  N  257  1  0.43882000  0.25843050  0.56643050  1
  N  258  1  0.36899400  0.17621250  0.42069650  1
  N  259  1  0.63929700  0.31699400  0.57006100  1
  N  260  1  0.56686950  0.24509000  0.42416350  1
  N  283  1  0.07307950  0.13356250  0.32542700  1
  N  284  1  0.14284650  0.05762650  0.31317300  1
  N  285  1  0.87254750  0.93672950  0.18358100  1
  N  286  1  0.94495200  0.86322150  0.18407250  1
  N  309  1  0.69787200  0.36643850  0.93364650  1
  N  310  1  0.76154750  0.44244950  0.07936300  1
  N  311  1  0.75282650  0.56322650  0.92984200  1
  N  312  1  0.82676050  0.63678450  0.07575100  1
