# generated using pymatgen
data_Eu2H36(C17O4)3
_symmetry_space_group_name_H-M   'P 1'
_cell_length_a   11.19823000
_cell_length_b   13.16265000
_cell_length_c   23.77952000
_cell_angle_alpha   94.30773000
_cell_angle_beta   101.75175000
_cell_angle_gamma   111.21312000
_symmetry_Int_Tables_number   1
_chemical_formula_structural   Eu2H36(C17O4)3
_chemical_formula_sum   'Eu4 H72 C102 O24'
_cell_volume   3156.26565542
_cell_formula_units_Z   2
loop_
 _symmetry_equiv_pos_site_id
 _symmetry_equiv_pos_as_xyz
  1  'x, y, z'
loop_
 _atom_site_type_symbol
 _atom_site_label
 _atom_site_symmetry_multiplicity
 _atom_site_fract_x
 _atom_site_fract_y
 _atom_site_fract_z
 _atom_site_occupancy
  Eu  Eu1  1  0.38512000  0.31801000  0.52251000  1.0
  Eu  Eu2  1  0.62692000  0.58841000  0.96140000  1.0
  Eu  Eu3  1  0.61504000  0.68216000  0.47752000  1.0
  Eu  Eu4  1  0.37088000  0.41057000  0.03864000  1.0
  H  H1  1  0.63064000  0.33856000  0.12053000  1.0
  H  H2  1  0.74064000  0.28441000  0.20867000  1.0
  H  H3  1  0.89300000  0.27004000  0.30284000  1.0
  H  H4  1  0.06720000  0.30195000  0.39414000  1.0
  H  H5  1  0.32983000  0.59003000  0.34338000  1.0
  H  H6  1  0.23899000  0.50538000  0.18710000  1.0
  H  H7  1  0.34361000  0.62902000  0.23640000  1.0
  H  H8  1  0.24192000  0.63552000  0.17009000  1.0
  H  H9  1  0.14913000  0.74628000  0.22855000  1.0
  H  H10  1  0.25170000  0.73883000  0.29425000  1.0
  H  H11  1  0.07773000  0.69397000  0.28608000  1.0
  H  H12  1  0.98843000  0.61884000  0.12969000  1.0
  H  H13  1  0.49112000  0.62729000  0.18049000  1.0
  H  H14  1  0.62030000  0.72143000  0.28272000  1.0
  H  H15  1  0.77787000  0.85055000  0.37529000  1.0
  H  H16  1  0.96407000  0.98976000  0.45206000  1.0
  H  H17  1  0.15790000  0.13487000  0.32170000  1.0
  H  H18  1  0.06704000  0.86996000  0.22840000  1.0
  H  H19  1  0.16246000  0.00977000  0.22505000  1.0
  H  H20  1  0.04718000  0.92144000  0.16132000  1.0
  H  H21  1  0.93996000  0.06513000  0.15025000  1.0
  H  H22  1  0.05641000  0.14883000  0.21462000  1.0
  H  H23  1  0.88412000  0.10990000  0.20874000  1.0
  H  H24  1  0.78319000  0.85529000  0.10967000  1.0
  H  H25  1  0.55193000  0.02429000  0.54793000  1.0
  H  H26  1  0.60368000  0.88016000  0.59845000  1.0
  H  H27  1  0.64275000  0.74598000  0.66980000  1.0
  H  H28  1  0.68545000  0.65331000  0.75573000  1.0
  H  H29  1  0.57744000  0.86854000  0.86196000  1.0
  H  H30  1  0.60677000  0.07171000  0.85905000  1.0
  H  H31  1  0.57414000  0.15887000  0.80983000  1.0
  H  H32  1  0.71057000  0.11884000  0.81107000  1.0
  H  H33  1  0.30839000  0.87818000  0.74285000  1.0
  H  H34  1  0.33762000  0.01597000  0.77175000  1.0
  H  H35  1  0.37087000  0.92650000  0.81935000  1.0
  H  H36  1  0.45910000  0.14636000  0.69957000  1.0
  H  H37  1  0.36879000  0.66044000  0.88002000  1.0
  H  H38  1  0.25955000  0.71519000  0.79191000  1.0
  H  H39  1  0.10736000  0.72981000  0.69745000  1.0
  H  H40  1  0.93309000  0.69807000  0.60617000  1.0
  H  H41  1  0.67022000  0.41004000  0.65674000  1.0
  H  H42  1  0.76087000  0.49456000  0.81298000  1.0
  H  H43  1  0.65616000  0.37088000  0.76377000  1.0
  H  H44  1  0.75797000  0.36448000  0.83007000  1.0
  H  H45  1  0.85074000  0.25359000  0.77162000  1.0
  H  H46  1  0.74814000  0.26087000  0.70588000  1.0
  H  H47  1  0.92213000  0.30589000  0.71411000  1.0
  H  H48  1  0.01039000  0.38018000  0.87021000  1.0
  H  H49  1  0.50871000  0.37254000  0.81986000  1.0
  H  H50  1  0.37987000  0.27874000  0.71761000  1.0
  H  H51  1  0.22235000  0.14943000  0.62480000  1.0
  H  H52  1  0.03620000  0.01052000  0.54795000  1.0
  H  H53  1  0.84217000  0.86520000  0.67828000  1.0
  H  H54  1  0.93304000  0.13006000  0.77157000  1.0
  H  H55  1  0.83750000  0.99027000  0.77493000  1.0
  H  H56  1  0.95282000  0.07858000  0.83865000  1.0
  H  H57  1  0.05995000  0.93492000  0.84975000  1.0
  H  H58  1  0.94351000  0.85109000  0.78542000  1.0
  H  H59  1  0.11582000  0.89004000  0.79132000  1.0
  H  H60  1  0.21628000  0.14404000  0.89036000  1.0
  H  H61  1  0.44856000  0.97603000  0.45219000  1.0
  H  H62  1  0.39657000  0.12005000  0.40166000  1.0
  H  H63  1  0.35776000  0.25420000  0.33053000  1.0
  H  H64  1  0.31365000  0.34639000  0.24451000  1.0
  H  H65  1  0.42225000  0.13171000  0.13818000  1.0
  H  H66  1  0.39317000  0.92855000  0.14103000  1.0
  H  H67  1  0.42579000  0.84130000  0.19018000  1.0
  H  H68  1  0.28939000  0.88136000  0.18902000  1.0
  H  H69  1  0.69171000  0.12186000  0.25725000  1.0
  H  H70  1  0.66221000  0.98405000  0.22828000  1.0
  H  H71  1  0.62918000  0.07364000  0.18072000  1.0
  H  H72  1  0.54083000  0.85372000  0.30044000  1.0
  C  C1  1  0.73503000  0.51544000  0.06927000  1.0
  C  C2  1  0.80338000  0.48194000  0.12084000  1.0
  C  C3  1  0.73349000  0.38740000  0.14275000  1.0
  C  C4  1  0.79499000  0.35719000  0.19183000  1.0
  C  C5  1  0.92723000  0.42371000  0.21971000  1.0
  C  C6  1  0.01217000  0.41625000  0.27294000  1.0
  C  C7  1  0.98715000  0.34012000  0.31168000  1.0
  C  C8  1  0.08425000  0.35727000  0.36232000  1.0
  C  C9  1  0.20704000  0.44740000  0.37358000  1.0
  C  C10  1  0.30900000  0.46504000  0.42860000  1.0
  C  C11  1  0.23376000  0.52179000  0.33382000  1.0
  C  C12  1  0.13563000  0.50698000  0.28418000  1.0
  C  C13  1  0.13695000  0.57961000  0.23718000  1.0
  C  C14  1  0.24642000  0.58705000  0.20555000  1.0
  C  C15  1  0.15462000  0.69674000  0.26338000  1.0
  C  C16  1  0.99826000  0.51860000  0.19767000  1.0
  C  C17  1  0.93717000  0.54688000  0.14796000  1.0
  C  C18  1  0.55217000  0.67980000  0.07996000  1.0
  C  C19  1  0.62913000  0.73843000  0.14024000  1.0
  C  C20  1  0.58327000  0.69926000  0.18860000  1.0
  C  C21  1  0.65501000  0.75079000  0.24505000  1.0
  C  C22  1  0.77433000  0.84243000  0.25260000  1.0
  C  C23  1  0.86657000  0.91297000  0.30533000  1.0
  C  C24  1  0.86159000  0.91101000  0.36379000  1.0
  C  C25  1  0.96468000  0.98952000  0.40641000  1.0
  C  C26  1  0.07126000  0.06939000  0.39103000  1.0
  C  C27  1  0.18104000  0.15248000  0.43712000  1.0
  C  C28  1  0.07497000  0.07199000  0.33225000  1.0
  C  C29  1  0.97310000  0.99371000  0.28960000  1.0
  C  C30  1  0.95615000  0.97722000  0.22392000  1.0
  C  C31  1  0.06513000  0.94221000  0.20869000  1.0
  C  C32  1  0.95871000  0.08159000  0.19787000  1.0
  C  C33  1  0.82234000  0.88064000  0.20407000  1.0
  C  C34  1  0.74991000  0.82898000  0.14805000  1.0
  C  C35  1  0.46906000  0.17646000  0.58897000  1.0
  C  C36  1  0.50175000  0.09253000  0.62067000  1.0
  C  C37  1  0.54301000  0.01792000  0.59235000  1.0
  C  C38  1  0.57164000  0.93741000  0.62041000  1.0
  C  C39  1  0.56075000  0.93306000  0.67804000  1.0
  C  C40  1  0.58686000  0.86087000  0.71829000  1.0
  C  C41  1  0.62855000  0.77277000  0.71156000  1.0
  C  C42  1  0.65234000  0.72126000  0.75940000  1.0
  C  C43  1  0.63449000  0.75665000  0.81343000  1.0
  C  C44  1  0.65900000  0.70331000  0.86527000  1.0
  C  C45  1  0.59011000  0.84330000  0.81965000  1.0
  C  C46  1  0.56600000  0.89444000  0.77233000  1.0
  C  C47  1  0.51761000  0.98847000  0.76896000  1.0
  C  C48  1  0.60813000  0.09083000  0.81496000  1.0
  C  C49  1  0.37460000  0.94964000  0.77613000  1.0
  C  C50  1  0.52125000  0.00913000  0.70706000  1.0
  C  C51  1  0.49082000  0.08792000  0.67847000  1.0
  C  C52  1  0.26303000  0.48331000  0.93094000  1.0
  C  C53  1  0.19541000  0.51720000  0.87940000  1.0
  C  C54  1  0.26592000  0.61180000  0.85769000  1.0
  C  C55  1  0.20491000  0.64228000  0.80858000  1.0
  C  C56  1  0.07270000  0.57596000  0.78052000  1.0
  C  C57  1  0.98793000  0.58361000  0.72727000  1.0
  C  C58  1  0.01312000  0.65981000  0.68859000  1.0
  C  C59  1  0.91603000  0.64272000  0.63793000  1.0
  C  C60  1  0.79313000  0.55268000  0.62656000  1.0
  C  C61  1  0.69119000  0.53507000  0.57147000  1.0
  C  C62  1  0.76630000  0.47826000  0.66627000  1.0
  C  C63  1  0.86432000  0.49297000  0.71592000  1.0
  C  C64  1  0.86274000  0.42021000  0.76287000  1.0
  C  C65  1  0.75340000  0.41286000  0.79457000  1.0
  C  C66  1  0.84517000  0.30307000  0.73676000  1.0
  C  C67  1  0.00129000  0.48100000  0.80239000  1.0
  C  C68  1  0.06178000  0.45234000  0.85208000  1.0
  C  C69  1  0.44735000  0.31962000  0.92034000  1.0
  C  C70  1  0.37053000  0.26107000  0.86002000  1.0
  C  C71  1  0.41660000  0.30051000  0.81172000  1.0
  C  C72  1  0.34501000  0.24919000  0.75522000  1.0
  C  C73  1  0.22568000  0.15751000  0.74750000  1.0
  C  C74  1  0.13353000  0.08706000  0.69471000  1.0
  C  C75  1  0.13854000  0.08902000  0.63626000  1.0
  C  C76  1  0.03548000  0.01059000  0.59360000  1.0
  C  C77  1  0.92890000  0.93068000  0.60897000  1.0
  C  C78  1  0.81916000  0.84759000  0.56290000  1.0
  C  C79  1  0.92511000  0.92807000  0.66773000  1.0
  C  C80  1  0.02693000  0.00631000  0.71040000  1.0
  C  C81  1  0.04374000  0.02267000  0.77605000  1.0
  C  C82  1  0.93485000  0.05777000  0.79128000  1.0
  C  C83  1  0.04119000  0.91835000  0.80214000  1.0
  C  C84  1  0.17750000  0.11915000  0.79597000  1.0
  C  C85  1  0.24974000  0.17056000  0.85205000  1.0
  C  C86  1  0.53089000  0.82344000  0.41104000  1.0
  C  C87  1  0.49832000  0.90751000  0.37938000  1.0
  C  C88  1  0.45733000  0.98230000  0.40775000  1.0
  C  C89  1  0.42873000  0.06285000  0.37971000  1.0
  C  C90  1  0.43955000  0.06716000  0.32207000  1.0
  C  C91  1  0.41330000  0.13934000  0.28186000  1.0
  C  C92  1  0.37156000  0.22737000  0.28869000  1.0
  C  C93  1  0.34710000  0.27864000  0.24083000  1.0
  C  C94  1  0.36464000  0.24324000  0.18675000  1.0
  C  C95  1  0.33876000  0.29600000  0.13484000  1.0
  C  C96  1  0.40955000  0.15691000  0.18049000  1.0
  C  C97  1  0.43398000  0.10581000  0.22778000  1.0
  C  C98  1  0.48241000  0.01176000  0.23110000  1.0
  C  C99  1  0.39182000  0.90937000  0.18511000  1.0
  C  C100  1  0.62540000  0.05048000  0.22392000  1.0
  C  C101  1  0.47893000  0.99106000  0.29302000  1.0
  C  C102  1  0.50921000  0.91217000  0.32158000  1.0
  O  O1  1  0.80321000  0.57846000  0.03966000  1.0
  O  O2  1  0.60775000  0.47997000  0.05657000  1.0
  O  O3  1  0.43029000  0.51989000  0.42923000  1.0
  O  O4  1  0.27224000  0.42469000  0.47204000  1.0
  O  O5  1  0.60555000  0.70743000  0.03807000  1.0
  O  O6  1  0.43839000  0.60300000  0.07403000  1.0
  O  O7  1  0.28622000  0.21406000  0.42338000  1.0
  O  O8  1  0.16871000  0.16242000  0.48944000  1.0
  O  O9  1  0.48528000  0.18230000  0.53725000  1.0
  O  O10  1  0.42442000  0.24059000  0.61379000  1.0
  O  O11  1  0.66763000  0.60901000  0.86042000  1.0
  O  O12  1  0.66602000  0.75294000  0.91526000  1.0
  O  O13  1  0.19456000  0.41989000  0.96032000  1.0
  O  O14  1  0.39031000  0.51893000  0.94381000  1.0
  O  O15  1  0.56995000  0.48011000  0.57077000  1.0
  O  O16  1  0.72792000  0.57547000  0.52804000  1.0
  O  O17  1  0.39441000  0.29237000  0.96240000  1.0
  O  O18  1  0.56111000  0.39624000  0.92604000  1.0
  O  O19  1  0.71405000  0.78593000  0.57665000  1.0
  O  O20  1  0.83148000  0.83767000  0.51057000  1.0
  O  O21  1  0.51458000  0.81764000  0.46276000  1.0
  O  O22  1  0.57543000  0.75925000  0.38621000  1.0
  O  O23  1  0.32765000  0.38931000  0.13944000  1.0
  O  O24  1  0.33296000  0.24674000  0.08492000  1.0
