# generated using pymatgen
data_H27C38(NO)4
_symmetry_space_group_name_H-M   'P 1'
_cell_length_a   10.02473333
_cell_length_b   29.73630000
_cell_length_c   29.73760000
_cell_angle_alpha   89.96660000
_cell_angle_beta   90.00000000
_cell_angle_gamma   90.00000000
_symmetry_Int_Tables_number   1
_chemical_formula_structural   H27C38(NO)4
_chemical_formula_sum   'H54 C76 N8 O8'
_cell_volume   8864.73178782
_cell_formula_units_Z   2
loop_
 _symmetry_equiv_pos_site_id
 _symmetry_equiv_pos_as_xyz
  1  'x, y, z'
loop_
 _atom_site_type_symbol
 _atom_site_label
 _atom_site_symmetry_multiplicity
 _atom_site_fract_x
 _atom_site_fract_y
 _atom_site_fract_z
 _atom_site_occupancy
  C  1  1  0.96560700  0.12435100  0.92175500  1
  C  2  1  0.96357700  0.09380900  0.88686300  1
  C  3  1  0.95479900  0.05059500  0.90518000  1
  C  5  1  0.95936200  0.10045700  0.96218600  1
  C  6  1  0.95969200  0.12022400  0.00569800  1
  C  7  1  0.96047500  0.09610500  0.04684600  1
  C  9  1  0.96112800  0.03958900  0.09638400  1
  C  10  1  0.96229500  0.07987600  0.12053300  1
  C  11  1  0.96157100  0.11477700  0.08994400  1
  C  12  1  0.95836000  0.99564100  0.11490300  1
  C  13  1  0.95417500  0.95510900  0.08960900  1
  C  15  1  0.94922700  0.90513400  0.03269000  1
  C  16  1  0.94107700  0.88141800  0.07321300  1
  C  17  1  0.94455400  0.91199300  0.10805500  1
  C  18  1  0.94749200  0.88525200  0.98918500  1
  C  19  1  0.94772600  0.90949300  0.94805200  1
  C  21  1  0.94772000  0.96612300  0.89846500  1
  C  22  1  0.94414500  0.92581200  0.87437400  1
  C  23  1  0.94587100  0.89090700  0.90492100  1
  C  24  1  0.94993500  0.01008000  0.87982200  1
  C  25  1  0.94897300  0.01368600  0.83209400  1
  C  26  1  0.06524000  0.00412300  0.80706200  1
  C  27  1  0.06322400  0.00644400  0.75987300  1
  C  28  1  0.94594600  0.01927400  0.73673400  1
  C  29  1  0.83084100  0.03007100  0.76200500  1
  C  30  1  0.83168900  0.02667000  0.80917400  1
  C  31  1  0.94529300  0.83744800  0.98658900  1
  C  32  1  0.06189200  0.81249300  0.99594100  1
  C  33  1  0.05972300  0.76527500  0.99432300  1
  C  34  1  0.94177100  0.74198800  0.98254700  1
  C  35  1  0.82598300  0.76713700  0.97227700  1
  C  36  1  0.82709000  0.81435800  0.97493000  1
  C  37  1  0.95413100  0.99215800  0.16252700  1
  C  38  1  0.83048100  0.99111200  0.18515300  1
  C  39  1  0.82628100  0.98781700  0.23227800  1
  C  40  1  0.94511200  0.98599600  0.25797700  1
  C  41  1  0.06859600  0.98667500  0.23481500  1
  C  42  1  0.07325400  0.98971100  0.18765400  1
  C  43  1  0.95617600  0.16790100  0.00837900  1
  C  44  1  0.83253100  0.19052600  0.00930800  1
  C  45  1  0.07529600  0.19306500  0.01044200  1
  C  46  1  0.07058700  0.24025800  0.01301700  1
  C  47  1  0.94706300  0.26340800  0.01367500  1
  C  48  1  0.82827600  0.23767600  0.01216300  1
  C  75  1  0.94082800  0.69439200  0.98035500  1
  C  76  1  0.94474800  0.02167300  0.68915100  1
  C  77  1  0.93965100  0.31111900  0.01653100  1
  C  78  1  0.93787100  0.98296800  0.30567700  1
  C  83  1  0.02740800  0.99819200  0.37966100  1
  C  84  1  0.14201400  0.98413500  0.40341200  1
  C  85  1  0.14233900  0.97989400  0.45083600  1
  C  86  1  0.02409600  0.99132700  0.47481300  1
  C  87  1  0.91105200  0.00714900  0.45127000  1
  C  88  1  0.91269700  0.01047500  0.40423900  1
  C  91  1  0.01518400  0.98910900  0.52230800  1
  C  92  1  0.06508600  0.02604000  0.54695700  1
  C  93  1  0.05896100  0.02623800  0.59404200  1
  C  94  1  0.00309200  0.98953800  0.61742700  1
  C  95  1  0.95582100  0.95224400  0.59275100  1
  C  96  1  0.95922800  0.95140900  0.54512800  1
  C  101  1  0.26665600  0.96301800  0.47261000  1
  C  102  1  0.90423900  0.91227600  0.51949700  1
  C  115  1  0.02920300  0.38511800  0.00143500  1
  C  116  1  0.14364000  0.40877400  0.01576400  1
  C  117  1  0.14388500  0.45617100  0.02030600  1
  C  118  1  0.02570900  0.48021600  0.00892200  1
  C  119  1  0.91285400  0.45678500  0.99281700  1
  C  120  1  0.91460000  0.40977700  0.98918200  1
  C  123  1  0.01659500  0.52768500  0.01153800  1
  C  124  1  0.06589200  0.55270500  0.97473500  1
  C  125  1  0.05908900  0.59977900  0.97486000  1
  C  126  1  0.00324300  0.62277400  0.01177800  1
  C  127  1  0.95668400  0.59774600  0.04896000  1
  C  128  1  0.96066400  0.55012000  0.04944800  1
  C  133  1  0.26803600  0.47782200  0.03745500  1
  C  134  1  0.90609500  0.52408600  0.08841000  1
  H  49  1  0.73690300  0.25304400  0.01232000  1
  H  50  1  0.74493200  0.17287900  0.00793300  1
  H  51  1  0.15880300  0.25730300  0.01559900  1
  H  52  1  0.16594900  0.17721500  0.01026500  1
  H  53  1  0.97205600  0.15840900  0.91767000  1
  H  54  1  0.96835000  0.10240700  0.85362600  1
  H  55  1  0.94485400  0.03233600  0.97159800  1
  H  56  1  0.96685400  0.97318900  0.02320100  1
  H  57  1  0.96167300  0.14811200  0.09828500  1
  H  58  1  0.96223500  0.08378700  0.15467500  1
  H  59  1  0.74291700  0.99283200  0.16751600  1
  H  60  1  0.73495700  0.98766800  0.24766900  1
  H  61  1  0.16392000  0.99002900  0.17181000  1
  H  62  1  0.15682800  0.98394400  0.25183100  1
  H  63  1  0.93902200  0.90354200  0.14132100  1
  H  64  1  0.93188000  0.84745200  0.07743500  1
  H  65  1  0.94205600  0.92180300  0.84025900  1
  H  66  1  0.94466900  0.85761300  0.89645700  1
  H  67  1  0.14885600  0.82851000  0.00426000  1
  H  68  1  0.14602900  0.74812400  0.00097700  1
  H  69  1  0.74138200  0.83178000  0.96808700  1
  H  70  1  0.73885800  0.75127500  0.96389100  1
  H  71  1  0.74628900  0.03375300  0.82666700  1
  H  72  1  0.74413500  0.03913300  0.74624700  1
  H  73  1  0.14908700  0.99940900  0.74263200  1
  H  74  1  0.15156000  0.99490000  0.82298500  1
  H  89  1  0.82620700  0.01630600  0.46814800  1
  H  90  1  0.82994200  0.02240600  0.38803700  1
  H  97  1  0.10650800  0.05312000  0.53086000  1
  H  98  1  0.09748500  0.05304300  0.61123900  1
  H  99  1  0.91526600  0.92592400  0.61015000  1
  H  100  1  0.22561400  0.97554200  0.38556200  1
  H  104  1  0.98019500  0.89956200  0.49634500  1
  H  105  1  0.82047100  0.92427700  0.49937100  1
  H  106  1  0.93101200  0.85986000  0.55936200  1
  H  108  1  0.25370800  0.95687200  0.50854500  1
  H  109  1  0.29479700  0.93101000  0.45716200  1
  H  110  1  0.45258100  0.98288800  0.48026700  1
  H  112  1  0.10866800  0.01589800  0.32089200  1
  H  114  1  0.02933900  0.96115200  0.67793300  1
  H  121  1  0.82803800  0.47372600  0.98371700  1
  H  122  1  0.83192300  0.39365600  0.97709900  1
  H  129  1  0.10716000  0.53688500  0.94748400  1
  H  130  1  0.09689300  0.61726500  0.94810200  1
  H  131  1  0.91604500  0.61488500  0.07541600  1
  H  132  1  0.22715900  0.39087200  0.02436100  1
  H  136  1  0.98236000  0.50092500  0.10092600  1
  H  137  1  0.82251600  0.50395200  0.07629400  1
  H  138  1  0.93257900  0.56354900  0.14109900  1
  H  140  1  0.25511800  0.51373400  0.04372000  1
  H  141  1  0.29571500  0.46219900  0.06944000  1
  H  142  1  0.45426200  0.48551400  0.01790100  1
  H  144  1  0.11046300  0.32641800  0.98366000  1
  H  146  1  0.02987600  0.68322600  0.04017900  1
  N  4  1  0.95319700  0.05650400  0.95035900  1
  N  8  1  0.96055900  0.05105900  0.05246100  1
  N  14  1  0.95720700  0.94907800  0.04445100  1
  N  20  1  0.94921700  0.95456200  0.94239200  1
  N  111  1  0.03114800  0.00095900  0.33379000  1
  N  113  1  0.00068000  0.98891500  0.66331200  1
  N  143  1  0.03288500  0.33926200  0.99852300  1
  N  145  1  0.99980200  0.66863900  0.01259100  1
  O  79  1  0.87120000  0.67480900  0.94655900  1
  O  80  1  0.83425600  0.95950300  0.32324700  1
  O  81  1  0.83606200  0.32868300  0.03999900  1
  O  82  1  0.87636800  0.05585800  0.66970700  1
  O  103  1  0.85447200  0.87523100  0.54543700  1
  O  107  1  0.37115700  0.99526600  0.46653400  1
  O  135  1  0.85615300  0.54965200  0.12565600  1
  O  139  1  0.37295800  0.47187800  0.00534300  1
