# generated using pymatgen
data_H58C93N4
_symmetry_space_group_name_H-M   'P 1'
_cell_length_a   25.77650000
_cell_length_b   25.77650000
_cell_length_c   49.97870000
_cell_angle_alpha   90.08500000
_cell_angle_beta   89.80950000
_cell_angle_gamma   90.00000000
_symmetry_Int_Tables_number   1
_chemical_formula_structural   H58C93N4
_chemical_formula_sum   'H116 C186 N8'
_cell_volume   33207.02520772
_cell_formula_units_Z   2
loop_
 _symmetry_equiv_pos_site_id
 _symmetry_equiv_pos_as_xyz
  1  'x, y, z'
loop_
 _atom_site_type_symbol
 _atom_site_label
 _atom_site_symmetry_multiplicity
 _atom_site_fract_x
 _atom_site_fract_y
 _atom_site_fract_z
 _atom_site_occupancy
  H  73  1  0.21029900  0.95081200  0.18614000  1
  H  74  1  0.27721100  0.95096900  0.15319800  1
  H  75  1  0.12559200  0.05939700  0.14063300  1
  H  76  1  0.19212200  0.05906800  0.10750100  1
  H  77  1  0.28390000  0.08649700  0.10078200  1
  H  78  1  0.34980900  0.08590300  0.06702500  1
  H  79  1  0.29331600  0.92311500  0.10612200  1
  H  80  1  0.36000200  0.92290200  0.07277600  1
  H  81  1  0.44732900  0.00439200  0.09817200  1
  H  82  1  0.54560400  0.00394600  0.09818200  1
  H  83  1  0.49694400  0.00380300  0.02049900  1
  H  84  1  0.49706000  0.00350700  0.97372500  1
  H  85  1  0.29887100  0.00369600  0.02258400  1
  H  86  1  0.29906000  0.00347400  0.97174000  1
  H  87  1  0.36147700  0.08448900  0.92117900  1
  H  88  1  0.29529800  0.08463500  0.88780400  1
  H  89  1  0.34949600  0.92169100  0.92736400  1
  H  90  1  0.28408400  0.92143800  0.89357800  1
  H  91  1  0.44840000  0.00324900  0.89604200  1
  H  92  1  0.54666800  0.00399700  0.89605100  1
  H  93  1  0.69493900  0.00395900  0.02248800  1
  H  94  1  0.69513500  0.00386600  0.97164300  1
  H  95  1  0.63380300  0.92301500  0.92107900  1
  H  96  1  0.70042200  0.92343100  0.88769300  1
  H  97  1  0.64439200  0.08592400  0.92754000  1
  H  98  1  0.71025400  0.08672500  0.89376300  1
  H  99  1  0.80200400  0.05903800  0.88691700  1
  H  100  1  0.86847100  0.05959300  0.85375400  1
  H  101  1  0.78327000  0.95197500  0.80771600  1
  H  102  1  0.71644300  0.95188400  0.84070400  1
  H  103  1  0.63317400  0.08513800  0.07286600  1
  H  104  1  0.69938400  0.08521500  0.10623000  1
  H  105  1  0.80065400  0.94900000  0.10786700  1
  H  106  1  0.86653300  0.94880900  0.14110500  1
  H  107  1  0.78147200  0.05836500  0.18625300  1
  H  108  1  0.71518400  0.05805200  0.15321200  1
  H  109  1  0.70923100  0.92185000  0.10082000  1
  H  110  1  0.64383300  0.92216400  0.06703700  1
  H  111  1  0.19281100  0.94940100  0.88647700  1
  H  112  1  0.12686000  0.94952600  0.85327000  1
  H  113  1  0.27944300  0.05684100  0.84085900  1
  H  114  1  0.21311100  0.05746600  0.80784900  1
  H  187  1  0.94393500  0.79125500  0.68624800  1
  H  188  1  0.94392800  0.72450600  0.65328400  1
  H  189  1  0.05296100  0.87577800  0.64057700  1
  H  190  1  0.05246900  0.80941700  0.60742400  1
  H  191  1  0.07966900  0.71763900  0.60067200  1
  H  192  1  0.07908300  0.65182700  0.56693300  1
  H  193  1  0.91624900  0.70850400  0.60626200  1
  H  194  1  0.91604400  0.64189700  0.57293200  1
  H  195  1  0.99726500  0.55428100  0.59818400  1
  H  196  1  0.99694700  0.45600600  0.59816600  1
  H  197  1  0.99725300  0.50500900  0.52049700  1
  H  198  1  0.99749300  0.50504500  0.47372500  1
  H  199  1  0.99691800  0.70306400  0.52262200  1
  H  200  1  0.99698900  0.70306600  0.47178000  1
  H  201  1  0.07801100  0.64131300  0.42097400  1
  H  202  1  0.07769400  0.70771200  0.38764200  1
  H  203  1  0.91515700  0.65235800  0.42768700  1
  H  204  1  0.91445100  0.71799100  0.39396000  1
  H  205  1  0.99722900  0.55406100  0.39605700  1
  H  206  1  0.99810200  0.45579700  0.39603300  1
  H  207  1  0.99762900  0.30699800  0.52245000  1
  H  208  1  0.99782100  0.30698900  0.47160400  1
  H  209  1  0.91676800  0.36899500  0.42128800  1
  H  210  1  0.91671100  0.30262400  0.38784600  1
  H  211  1  0.07963100  0.35746300  0.42720500  1
  H  212  1  0.07996500  0.29183600  0.39335800  1
  H  213  1  0.05184500  0.20032400  0.38644500  1
  H  214  1  0.05168200  0.13399600  0.35327100  1
  H  215  1  0.94410500  0.22000500  0.30779700  1
  H  216  1  0.94475200  0.28670600  0.34078700  1
  H  217  1  0.07853000  0.36875100  0.57272100  1
  H  218  1  0.07859800  0.30245200  0.60610000  1
  H  219  1  0.94264100  0.20086700  0.60791700  1
  H  220  1  0.94255400  0.13483300  0.64113500  1
  H  221  1  0.05167800  0.22004900  0.68613800  1
  H  222  1  0.05125100  0.28649200  0.65311800  1
  H  223  1  0.91527200  0.29227600  0.60090800  1
  H  224  1  0.91560000  0.35777200  0.56710700  1
  H  225  1  0.94201800  0.80951600  0.38692900  1
  H  226  1  0.94149200  0.87561600  0.35374100  1
  H  227  1  0.04945500  0.72361500  0.34075300  1
  H  228  1  0.04940000  0.79007700  0.30774900  1
  H  254  1  0.91670900  0.88781400  0.68967000  1
  H  255  1  0.91653700  0.95480900  0.72216800  1
  H  256  1  0.08036200  0.88840600  0.68933800  1
  H  257  1  0.08011800  0.95561100  0.72174800  1
  H  258  1  0.07972800  0.05664100  0.72203600  1
  H  259  1  0.07918500  0.12361500  0.68960800  1
  H  260  1  0.91555000  0.12241200  0.68999600  1
  H  261  1  0.91616400  0.05530000  0.72232600  1
  H  262  1  0.94910800  0.08729600  0.77276800  1
  H  263  1  0.88173200  0.08763300  0.80515100  1
  H  264  1  0.87948300  0.92400200  0.80417000  1
  H  265  1  0.94664600  0.92374500  0.77170900  1
  H  266  1  0.04717400  0.92316100  0.77219000  1
  H  267  1  0.05012800  0.08669700  0.77190300  1
  H  268  1  0.11699600  0.08581800  0.80431000  1
  H  269  1  0.11417400  0.92220600  0.80452700  1
  H  295  1  0.87792000  0.08556700  0.18981000  1
  H  296  1  0.94478300  0.08603800  0.22222000  1
  H  297  1  0.87875200  0.92193600  0.18990400  1
  H  298  1  0.94579700  0.92247900  0.22222600  1
  H  299  1  0.04664400  0.92290100  0.22196000  1
  H  300  1  0.11375500  0.92321100  0.18944400  1
  H  301  1  0.11271900  0.08686000  0.18946000  1
  H  302  1  0.04544900  0.08648000  0.22187800  1
  H  303  1  0.07810800  0.05348900  0.27220000  1
  H  304  1  0.07912600  0.12084200  0.30450600  1
  H  305  1  0.91550200  0.12384900  0.30442200  1
  H  306  1  0.91456200  0.05663000  0.27203800  1
  H  307  1  0.91397300  0.95558100  0.27279600  1
  H  308  1  0.07751900  0.95298200  0.27153500  1
  H  309  1  0.07724400  0.88614600  0.30400700  1
  H  310  1  0.91362400  0.88852700  0.30519400  1
  C  1  1  0.46979500  0.00422100  0.08128500  1
  C  2  1  0.52336300  0.00399000  0.08129300  1
  C  3  1  0.54057300  0.00393600  0.05474400  1
  C  5  1  0.45293900  0.00402200  0.05473400  1
  C  6  1  0.40009100  0.00407200  0.04654200  1
  C  7  1  0.38307100  0.00383100  0.01953500  1
  C  9  1  0.38323000  0.00333100  0.97467700  1
  C  10  1  0.33164300  0.00347300  0.98333000  1
  C  11  1  0.33154900  0.00365100  0.01094900  1
  C  12  1  0.40046200  0.00320700  0.94764800  1
  C  13  1  0.45343100  0.00342000  0.93948000  1
  C  15  1  0.54106500  0.00375000  0.93949000  1
  C  16  1  0.52420500  0.00379400  0.91293800  1
  C  17  1  0.47063700  0.00340200  0.91293200  1
  C  18  1  0.59391700  0.00401900  0.94767800  1
  C  19  1  0.61093700  0.00398900  0.97468700  1
  C  21  1  0.61077100  0.00376500  0.01954700  1
  C  22  1  0.66235700  0.00389200  0.01089500  1
  C  23  1  0.66245800  0.00390700  0.98327600  1
  C  24  1  0.59353800  0.00377300  0.04657400  1
  C  25  1  0.63231100  0.00365300  0.06689100  1
  C  26  1  0.65524100  0.95670000  0.07527300  1
  C  27  1  0.69407000  0.95673000  0.09501900  1
  C  28  1  0.71116500  0.00352000  0.10705200  1
  C  29  1  0.68765800  0.05036200  0.09852100  1
  C  30  1  0.64893200  0.05053000  0.07871800  1
  C  31  1  0.75091000  0.00348100  0.12705100  1
  C  32  1  0.74713900  0.03524000  0.15013100  1
  C  33  1  0.78629100  0.03538200  0.16971300  1
  C  34  1  0.83074400  0.00354200  0.16709400  1
  C  35  1  0.83457300  0.97167500  0.14409400  1
  C  36  1  0.79552400  0.97175100  0.12445800  1
  C  37  1  0.63289200  0.00442500  0.92735400  1
  C  38  1  0.64962700  0.95770500  0.91535000  1
  C  39  1  0.68860400  0.95816000  0.89555500  1
  C  40  1  0.71219500  0.00514400  0.88722600  1
  C  41  1  0.69498200  0.05177400  0.89942600  1
  C  42  1  0.65590000  0.05151600  0.91916200  1
  C  43  1  0.75220400  0.00546800  0.86726700  1
  C  44  1  0.74851800  0.97437900  0.84396300  1
  C  45  1  0.78799200  0.97445900  0.82442800  1
  C  46  1  0.83265200  0.00586000  0.82734200  1
  C  47  1  0.83636500  0.03709000  0.85056400  1
  C  48  1  0.79699000  0.03679400  0.87015100  1
  C  49  1  0.36168600  0.00307900  0.92733100  1
  C  50  1  0.34544200  0.04992600  0.91540200  1
  C  51  1  0.30672800  0.04979800  0.89559600  1
  C  52  1  0.28284600  0.00302900  0.88716300  1
  C  53  1  0.29951900  0.95627000  0.89931500  1
  C  54  1  0.33836900  0.95619800  0.91905300  1
  C  55  1  0.24312400  0.00306500  0.86715700  1
  C  56  1  0.19816300  0.97187300  0.86983700  1
  C  57  1  0.15908300  0.97196800  0.85021500  1
  C  58  1  0.16322400  0.00350400  0.82715500  1
  C  59  1  0.20805000  0.03476800  0.82444000  1
  C  60  1  0.24723100  0.03444700  0.84400500  1
  C  61  1  0.36111500  0.00437800  0.06686300  1
  C  62  1  0.33820700  0.05143500  0.07524900  1
  C  63  1  0.34424800  0.95756700  0.07865000  1
  C  64  1  0.30523700  0.95790400  0.09842700  1
  C  65  1  0.28174200  0.00484900  0.10695200  1
  C  66  1  0.29908700  0.05157100  0.09496500  1
  C  67  1  0.24168900  0.00503700  0.12689100  1
  C  68  1  0.19701100  0.03655100  0.12414400  1
  C  69  1  0.15760900  0.03673200  0.14371800  1
  C  70  1  0.16116200  0.00514200  0.16676600  1
  C  71  1  0.20569200  0.97353700  0.16954100  1
  C  72  1  0.24520200  0.97358900  0.15002700  1
  C  115  1  0.99722600  0.53189100  0.58129300  1
  C  116  1  0.99706300  0.47832200  0.58128300  1
  C  117  1  0.99721500  0.46123400  0.55473000  1
  C  119  1  0.99719200  0.54886900  0.55474600  1
  C  120  1  0.99726800  0.60175400  0.54657200  1
  C  121  1  0.99719000  0.61887800  0.51956600  1
  C  123  1  0.99694700  0.61888100  0.47471100  1
  C  124  1  0.99696500  0.67043700  0.48336700  1
  C  125  1  0.99699700  0.67043100  0.51098500  1
  C  126  1  0.99697800  0.60175300  0.44768100  1
  C  127  1  0.99734900  0.54882400  0.43949400  1
  C  129  1  0.99778400  0.46119000  0.43947600  1
  C  130  1  0.99786200  0.47817600  0.41292800  1
  C  131  1  0.99741500  0.53174400  0.41294000  1
  C  132  1  0.99802200  0.40829700  0.44764300  1
  C  133  1  0.99789000  0.39117700  0.47465300  1
  C  135  1  0.99741500  0.39117800  0.51951200  1
  C  136  1  0.99763000  0.33962300  0.51085900  1
  C  137  1  0.99778900  0.33962300  0.48323900  1
  C  138  1  0.99721000  0.40830600  0.54654200  1
  C  139  1  0.99706700  0.36945500  0.56685300  1
  C  140  1  0.95011900  0.34640900  0.57529900  1
  C  141  1  0.95014300  0.30752700  0.59505300  1
  C  142  1  0.99692100  0.29050100  0.60703000  1
  C  143  1  0.04375500  0.31410800  0.59842500  1
  C  144  1  0.04392900  0.35290800  0.57862400  1
  C  145  1  0.99688900  0.25070000  0.62703300  1
  C  146  1  0.02854400  0.25448300  0.65006900  1
  C  147  1  0.02876000  0.21523700  0.66963500  1
  C  148  1  0.99708500  0.17068800  0.66704800  1
  C  149  1  0.96527200  0.16687500  0.64410800  1
  C  150  1  0.96531400  0.20599700  0.62447600  1
  C  151  1  0.99820000  0.36941000  0.42730700  1
  C  152  1  0.95135400  0.35300700  0.41544200  1
  C  153  1  0.95153000  0.31416500  0.39561100  1
  C  154  1  0.99835800  0.29038700  0.38708900  1
  C  155  1  0.04511300  0.30723600  0.39916600  1
  C  156  1  0.04513700  0.34619300  0.41893700  1
  C  157  1  0.99835900  0.25051500  0.36708700  1
  C  158  1  0.96706700  0.25447300  0.34393700  1
  C  159  1  0.96673200  0.21508800  0.32439000  1
  C  160  1  0.99787500  0.17022000  0.32714500  1
  C  161  1  0.02932100  0.16623800  0.35020300  1
  C  162  1  0.02943900  0.20552600  0.36980200  1
  C  163  1  0.99661600  0.64061700  0.42737900  1
  C  164  1  0.04334500  0.65718300  0.41531100  1
  C  165  1  0.04294900  0.69603400  0.39554100  1
  C  166  1  0.99601500  0.71971000  0.38728700  1
  C  167  1  0.94938000  0.70268700  0.39956300  1
  C  168  1  0.94958000  0.66372000  0.41926900  1
  C  169  1  0.99574900  0.75956900  0.36732300  1
  C  170  1  0.96437800  0.80437000  0.37018000  1
  C  171  1  0.96408700  0.84353100  0.35056900  1
  C  172  1  0.99539000  0.83962400  0.32734100  1
  C  173  1  0.02688400  0.79498200  0.32446800  1
  C  174  1  0.02694000  0.75571200  0.34401900  1
  C  175  1  0.99754000  0.64065000  0.56689700  1
  C  176  1  0.04460300  0.66346200  0.57520900  1
  C  177  1  0.95071400  0.65757600  0.57875000  1
  C  178  1  0.95104100  0.69655900  0.59850700  1
  C  179  1  0.99800300  0.71994200  0.60696200  1
  C  180  1  0.04473600  0.70252400  0.59491700  1
  C  181  1  0.99821200  0.75994300  0.62689500  1
  C  182  1  0.02988300  0.80452600  0.62410600  1
  C  183  1  0.03016000  0.84383500  0.64369000  1
  C  184  1  0.99852200  0.84028200  0.66680400  1
  C  185  1  0.96673100  0.79585400  0.66961500  1
  C  186  1  0.96668700  0.75643700  0.65008700  1
  C  229  1  0.12349400  0.00391300  0.80726500  1
  C  230  1  0.10384800  0.05108100  0.79706400  1
  C  231  1  0.06424300  0.05146500  0.77774400  1
  C  232  1  0.04378800  0.00496600  0.76668500  1
  C  233  1  0.06235200  0.95798800  0.77803400  1
  C  234  1  0.10156000  0.95731100  0.79756100  1
  C  235  1  0.99824100  0.00545000  0.74710700  1
  C  236  1  0.95276300  0.00557200  0.76687700  1
  C  237  1  0.93240700  0.95886400  0.77775200  1
  C  238  1  0.89262100  0.95887000  0.79709600  1
  C  239  1  0.87268100  0.00585700  0.80749500  1
  C  240  1  0.89457500  0.05266100  0.79802500  1
  C  241  1  0.93400100  0.05235700  0.77847800  1
  C  242  1  0.99799800  0.05109000  0.72754200  1
  C  243  1  0.99832900  0.96006900  0.72732200  1
  C  244  1  0.95161800  0.94026400  0.71624300  1
  C  245  1  0.95157600  0.90059000  0.69687300  1
  C  246  1  0.99854900  0.88020900  0.68666500  1
  C  247  1  0.04539700  0.90157000  0.69633500  1
  C  248  1  0.04513500  0.94088300  0.71590300  1
  C  249  1  0.04458200  0.07111600  0.71630700  1
  C  250  1  0.04439600  0.11077800  0.69698100  1
  C  251  1  0.99731700  0.13091300  0.68694900  1
  C  252  1  0.95059800  0.10942900  0.69683700  1
  C  253  1  0.95108300  0.07016100  0.71636900  1
  C  270  1  0.99539000  0.87943300  0.30745500  1
  C  271  1  0.04237400  0.89924200  0.29698200  1
  C  272  1  0.04239400  0.93881200  0.27761200  1
  C  273  1  0.99569500  0.95913700  0.26680900  1
  C  274  1  0.94890600  0.94049000  0.27845600  1
  C  275  1  0.94859900  0.90126300  0.29801900  1
  C  276  1  0.99579100  0.00456300  0.24711100  1
  C  277  1  0.99629400  0.05015400  0.26676700  1
  C  278  1  0.94980500  0.07074900  0.27786000  1
  C  279  1  0.95022600  0.11054200  0.29716800  1
  C  280  1  0.99742500  0.13026300  0.30729700  1
  C  281  1  0.04401500  0.10816800  0.29758100  1
  C  282  1  0.04329900  0.06874800  0.27807800  1
  C  283  1  0.04118200  0.00467100  0.22728600  1
  C  284  1  0.95015700  0.00430200  0.22758400  1
  C  285  1  0.93024800  0.05090500  0.21644200  1
  C  286  1  0.89064500  0.05076500  0.19712100  1
  C  287  1  0.87043200  0.00371200  0.18700900  1
  C  288  1  0.89178500  0.95696800  0.19681100  1
  C  289  1  0.93100300  0.95740900  0.21634000  1
  C  290  1  0.06112100  0.95800500  0.21610100  1
  C  291  1  0.10087100  0.95804700  0.19673300  1
  C  292  1  0.12114100  0.00506300  0.18661300  1
  C  293  1  0.09962400  0.05186500  0.19637900  1
  C  294  1  0.06026500  0.05151800  0.21595300  1
  N  4  1  0.49685100  0.00390900  0.03970500  1
  N  8  1  0.41246800  0.00358800  0.99708700  1
  N  14  1  0.49715300  0.00354500  0.95451900  1
  N  20  1  0.58153600  0.00386000  0.99713500  1
  N  118  1  0.99721500  0.50502600  0.53970500  1
  N  122  1  0.99711300  0.58955800  0.49711700  1
  N  128  1  0.99755500  0.50503300  0.45451800  1
  N  134  1  0.99762200  0.42049300  0.49710300  1
