# generated using pymatgen
data_V4H54C67O20
_symmetry_space_group_name_H-M   'P 1'
_cell_length_a   6.93892000
_cell_length_b   17.48575000
_cell_length_c   19.47443000
_cell_angle_alpha   71.41618000
_cell_angle_beta   89.27917000
_cell_angle_gamma   89.37393000
_symmetry_Int_Tables_number   1
_chemical_formula_structural   V4H54C67O20
_chemical_formula_sum   'V4 H54 C67 O20'
_cell_volume   2239.43491972
_cell_formula_units_Z   1
loop_
 _symmetry_equiv_pos_site_id
 _symmetry_equiv_pos_as_xyz
  1  'x, y, z'
loop_
 _atom_site_type_symbol
 _atom_site_label
 _atom_site_symmetry_multiplicity
 _atom_site_fract_x
 _atom_site_fract_y
 _atom_site_fract_z
 _atom_site_occupancy
  V  V0  1  0.06463000  0.49062000  0.50156000  1
  V  V1  1  0.56406000  0.50938000  0.49844000  1
  V  V2  1  0.67053000  0.00937000  0.99845000  1
  V  V3  1  0.17107000  0.99045000  0.00169000  1
  H  H4  1  0.54706000  0.70381000  0.30467000  1
  H  H5  1  0.56612000  0.81499000  0.19145000  1
  H  H6  1  0.18775000  0.79654000  0.19578000  1
  H  H7  1  0.16870000  0.68541000  0.30900000  1
  H  H8  1  0.75469000  0.54077000  0.72080000  1
  H  H9  1  0.90185000  0.96400000  0.65199000  1
  H  H10  1  0.93234000  0.96815000  0.77407000  1
  H  H11  1  0.83230000  0.75560000  0.95364000  1
  H  H12  1  0.74883000  0.54591000  0.84284000  1
  H  H13  1  0.10363000  0.18782000  0.09361000  1
  H  H14  1  0.65578000  0.09331000  0.17745000  1
  H  H15  1  0.80815000  0.13645000  0.27107000  1
  H  H16  1  0.80327000  0.21724000  0.35320000  1
  H  H17  1  0.64006000  0.31507000  0.40187000  1
  H  H18  1  0.08212000  0.40955000  0.32122000  1
  H  H19  1  0.94366000  0.37639000  0.22170000  1
  H  H20  1  0.14974000  0.24046000  0.65436000  1
  H  H21  1  0.17422000  0.12869000  0.76842000  1
  H  H22  1  0.55349000  0.37747000  0.73194000  1
  H  H23  1  0.56587000  0.50183000  0.06808000  1
  H  H24  1  0.63995000  0.58824000  0.09322000  1
  H  H25  1  0.38907000  0.57470000  0.07688000  1
  H  H26  1  0.53581000  0.68032000  0.97231000  1
  H  H27  1  0.45938000  0.59483000  0.94728000  1
  H  H28  1  0.79487000  0.53960000  0.96195000  1
  H  H29  1  0.88030000  0.62238000  0.98624000  1
  H  H30  1  0.02709000  0.47577000  0.06710000  1
  H  H31  1  0.25094000  0.41940000  0.07584000  1
  H  H32  1  0.16330000  0.47569000  0.98748000  1
  H  H33  1  0.10419000  0.32602000  0.01844000  1
  H  H34  1  0.89190000  0.38657000  0.99912000  1
  H  H35  1  0.84773000  0.26049000  0.10822000  1
  H  H36  1  0.79934000  0.35210000  0.12554000  1
  H  H37  1  0.66362000  0.27496000  0.00507000  1
  H  H38  1  0.59139000  0.37863000  0.95727000  1
  H  H39  1  0.43965000  0.31461000  0.02707000  1
  H  H40  1  0.32935000  0.33366000  0.89848000  1
  H  H41  1  0.36650000  0.23027000  0.95308000  1
  H  H42  1  0.69041000  0.22827000  0.89433000  1
  H  H43  1  0.67187000  0.33333333  0.84796000  1
  H  H44  1  0.34720000  0.83067000  0.56205000  1
  H  H45  1  0.28078000  0.75539000  0.64703000  1
  H  H46  1  0.50029000  0.74454000  0.60126000  1
  H  H47  1  0.25087000  0.65247000  0.58357000  1
  H  H48  1  0.32367000  0.72525000  0.49970000  1
  H  H49  1  0.97839000  0.72090000  0.49248000  1
  H  H50  1  0.03847000  0.81107000  0.50674000  1
  H  H51  1  0.89859000  0.95695000  0.39762000  1
  H  H52  1  0.76598000  0.03504000  0.42121000  1
  H  H53  1  0.01731000  0.04889000  0.39579000  1
  H  H54  1  0.98074000  0.01479000  0.52821000  1
  H  H55  1  0.10850000  0.93634000  0.50581000  1
  H  H56  1  0.76367000  0.86586000  0.51516000  1
  H  H57  1  0.68186000  0.93958000  0.55226000  1
  C  C58  1  0.35028000  0.41507000  0.41818000  1
  C  C59  1  0.34475000  0.38316000  0.61513000  1
  C  C60  1  0.83930000  0.58635000  0.58059000  1
  C  C61  1  0.84500000  0.61697000  0.38483000  1
  C  C62  1  0.68786000  0.72343000  0.28157000  1
  C  C63  1  0.69890000  0.78724000  0.21645000  1
  C  C64  1  0.87859000  0.81478000  0.18419000  1
  C  C65  1  0.04695000  0.77692000  0.21886000  1
  C  C66  1  0.03591000  0.71314000  0.28399000  1
  C  C67  1  0.85621000  0.68549000  0.31617000  1
  C  C68  1  0.79511000  0.60387000  0.70083000  1
  C  C69  1  0.84589000  0.63825000  0.62783000  1
  C  C70  1  0.90616000  0.72008000  0.60165000  1
  C  C71  1  0.88040000  0.76984000  0.64726000  1
  C  C72  1  0.85088000  0.73108000  0.72291000  1
  C  C73  1  0.80960000  0.64805000  0.74917000  1
  C  C74  1  0.88028000  0.85609000  0.62156000  1
  C  C75  1  0.89816000  0.89863000  0.67146000  1
  C  C76  1  0.89362000  0.85914000  0.74612000  1
  C  C77  1  0.86071000  0.77536000  0.77248000  1
  C  C78  1  0.83640000  0.73623000  0.84820000  1
  C  C79  1  0.79678000  0.65216000  0.87360000  1
  C  C80  1  0.78141000  0.60983000  0.82350000  1
  C  C81  1  0.90857000  0.90357000  0.79452000  1
  C  C82  1  0.88838000  0.86574000  0.86920000  1
  C  C83  1  0.85096000  0.78269000  0.89578000  1
  C  C84  1  0.22058000  0.18629000  0.13016000  1
  C  C85  1  0.37791000  0.13487000  0.13077000  1
  C  C86  1  0.53314000  0.13241000  0.17709000  1
  C  C87  1  0.53013000  0.17874000  0.22394000  1
  C  C88  1  0.37111000  0.22991000  0.22371000  1
  C  C89  1  0.21690000  0.23591000  0.17505000  1
  C  C90  1  0.68457000  0.17496000  0.27085000  1
  C  C91  1  0.68196000  0.22114000  0.31770000  1
  C  C92  1  0.52448000  0.27173000  0.31868000  1
  C  C93  1  0.36835000  0.27600000  0.27158000  1
  C  C94  1  0.20987000  0.32660000  0.27226000  1
  C  C95  1  0.06086000  0.33445000  0.22285000  1
  C  C96  1  0.06555000  0.29223000  0.17237000  1
  C  C97  1  0.52024000  0.31816000  0.36586000  1
  C  C98  1  0.35947000  0.36712000  0.36785000  1
  C  C99  1  0.20502000  0.37078000  0.32092000  1
  C  C100  1  0.24393000  0.24633000  0.69630000  1
  C  C101  1  0.25775000  0.18265000  0.76160000  1
  C  C102  1  0.37891000  0.18780000  0.81738000  1
  C  C103  1  0.48212000  0.26037000  0.80741000  1
  C  C104  1  0.47380000  0.32223000  0.74007000  1
  C  C105  1  0.35488000  0.31593000  0.68445000  1
  C  C106  1  0.39034000  0.11780000  0.88527000  1
  C  C107  1  0.38527000  0.08512000  0.08175000  1
  C  C108  1  0.88986000  0.88311000  0.11536000  1
  C  C109  1  0.89600000  0.91435000  0.91887000  1
  C  C110  1  0.77023000  0.60495000  0.95319000  1
  C  C111  1  0.56568000  0.61569000  0.97959000  1
  C  C112  1  0.53902000  0.56699000  0.05945000  1
  C  C113  1  0.91778000  0.31543000  0.11250000  1
  C  C114  1  0.00787000  0.36474000  0.03922000  1
  C  C115  1  0.11894000  0.43842000  0.04294000  1
  C  C116  1  0.58576000  0.27721000  0.86894000  1
  C  C117  1  0.44048000  0.28801000  0.92545000  1
  C  C118  1  0.54063000  0.31580000  0.98227000  1
  C  C119  1  0.03461000  0.74583000  0.53402000  1
  C  C120  1  0.24446000  0.71744000  0.55144000  1
  C  C121  1  0.34849000  0.76527000  0.59300000  1
  C  C122  1  0.81321000  0.90511000  0.54625000  1
  C  C123  1  0.96539000  0.96585000  0.50373000  1
  C  C124  1  0.90770000  0.00392000  0.42468000  1
  O  O125  1  0.50567000  0.41571000  0.58628000  1
  O  O126  1  0.18064000  0.43007000  0.43979000  1
  O  O127  1  0.00568000  0.58429000  0.41372000  1
  O  O128  1  0.17626000  0.40629000  0.58733000  1
  O  O129  1  0.00127000  0.56034000  0.56231000  1
  O  O130  1  0.51008000  0.43966000  0.43769000  1
  O  O131  1  0.33767000  0.55057000  0.49162000  1
  O  O132  1  0.67128000  0.56993000  0.56021000  1
  O  O133  1  0.67566000  0.59371000  0.41267000  1
  O  O134  1  0.84089000  0.44943000  0.50838000  1
  O  O135  1  0.22506000  0.06047000  0.06220000  1
  O  O136  1  0.55912000  0.09373000  0.91265000  1
  O  O137  1  0.73387000  0.93963000  0.93772000  1
  O  O138  1  0.55452000  0.06996000  0.06018000  1
  O  O139  1  0.72923000  0.91569000  0.08631000  1
  O  O140  1  0.22970000  0.08441000  0.91362000  1
  O  O141  1  0.39740000  0.94951000  0.00833000  1
  O  O142  1  0.05924000  0.90616000  0.08744000  1
  O  O143  1  0.06385000  0.92993000  0.93990000  1
  O  O144  1  0.89433000  0.05049000  0.99168000  1
