# generated using pymatgen
data_H7(C3N)4
_symmetry_space_group_name_H-M   'P 1'
_cell_length_a   10.06013333
_cell_length_b   15.30650000
_cell_length_c   15.30650000
_cell_angle_alpha   90.00000000
_cell_angle_beta   90.00000000
_cell_angle_gamma   90.00000000
_symmetry_Int_Tables_number   1
_chemical_formula_structural   H7(C3N)4
_chemical_formula_sum   'H14 C24 N8'
_cell_volume   2356.97799756
_cell_formula_units_Z   2
loop_
 _symmetry_equiv_pos_site_id
 _symmetry_equiv_pos_as_xyz
  1  'x, y, z'
loop_
 _atom_site_type_symbol
 _atom_site_label
 _atom_site_symmetry_multiplicity
 _atom_site_fract_x
 _atom_site_fract_y
 _atom_site_fract_z
 _atom_site_occupancy
  C  1  1  0.99172100  0.02683900  0.02700300  1
  C  2  1  0.96233700  0.00734300  0.11569500  1
  C  3  1  0.96079700  0.07255200  0.18090400  1
  C  4  1  0.99378100  0.15877600  0.15823500  1
  C  5  1  0.02599300  0.18080500  0.07173400  1
  C  6  1  0.02253400  0.11520600  0.00695700  1
  C  10  1  0.99010200  0.96093800  0.96108800  1
  C  11  1  0.01774800  0.87204800  0.98077400  1
  C  12  1  0.01954700  0.80687400  0.91552000  1
  C  13  1  0.98804400  0.82975200  0.82910600  1
  C  14  1  0.95721800  0.91644000  0.80691800  1
  C  15  1  0.96075800  0.98117800  0.87255800  1
  C  23  1  0.88386100  0.07267500  0.44948300  1
  C  25  1  0.88683300  0.99977900  0.58594700  1
  C  27  1  0.88315400  0.91575400  0.45551100  1
  C  28  1  0.88696700  0.99220000  0.40391500  1
  C  30  1  0.89981400  0.00474200  0.67668000  1
  C  33  1  0.90088800  0.98660000  0.31268900  1
  C  35  1  0.09839800  0.53825600  0.91598400  1
  C  37  1  0.09693700  0.40176400  0.98887400  1
  C  39  1  0.09612600  0.53224500  0.07289900  1
  C  40  1  0.09261900  0.58377800  0.99641200  1
  C  42  1  0.08546500  0.31093800  0.98383800  1
  C  45  1  0.07687200  0.67487600  0.00185700  1
  H  7  1  0.93311900  0.94588000  0.13274600  1
  H  8  1  0.05129700  0.13170200  0.94526600  1
  H  9  1  0.99428400  0.20632300  0.20548200  1
  H  16  1  0.04626700  0.85488600  0.04233700  1
  H  17  1  0.98755600  0.78252400  0.78154400  1
  H  18  1  0.93311900  0.04305200  0.85591800  1
  H  29  1  0.88512700  0.13104800  0.41711000  1
  H  31  1  0.88606600  0.85506800  0.42764900  1
  H  32  1  0.90330200  0.06458900  0.70621000  1
  H  34  1  0.90345700  0.92663200  0.28328000  1
  H  41  1  0.09745000  0.57060900  0.85759600  1
  H  43  1  0.09110200  0.56005000  0.13355300  1
  H  44  1  0.08303500  0.28146200  0.92394100  1
  H  46  1  0.07362200  0.70432800  0.06179700  1
  N  19  1  0.92815500  0.93159200  0.72209800  1
  N  20  1  0.04827400  0.72186400  0.92972200  1
  N  21  1  0.05571900  0.26554900  0.05674900  1
  N  22  1  0.93123500  0.05848600  0.26579700  1
  N  24  1  0.88435200  0.07427600  0.53798800  1
  N  26  1  0.88604800  0.92158200  0.54382000  1
  N  36  1  0.09983300  0.44975100  0.91440200  1
  N  38  1  0.09516800  0.44392100  0.06705700  1
