# generated using pymatgen
data_SiH32C52(N2O3)4
_symmetry_space_group_name_H-M   'P 1'
_cell_length_a   10.00780000
_cell_length_b   18.92770000
_cell_length_c   18.92690000
_cell_angle_alpha   89.81500000
_cell_angle_beta   90.00000000
_cell_angle_gamma   90.00000000
_symmetry_Int_Tables_number   1
_chemical_formula_structural   SiH32C52(N2O3)4
_chemical_formula_sum   'Si1 H32 C52 N8 O12'
_cell_volume   3585.20245534
_cell_formula_units_Z   1
loop_
 _symmetry_equiv_pos_site_id
 _symmetry_equiv_pos_as_xyz
  1  'x, y, z'
loop_
 _atom_site_type_symbol
 _atom_site_label
 _atom_site_symmetry_multiplicity
 _atom_site_fract_x
 _atom_site_fract_y
 _atom_site_fract_z
 _atom_site_occupancy
  C  1  1  0.73378000  0.83370500  0.99163000  1
  C  2  1  0.70779700  0.88013250  0.93456300  1
  C  3  1  0.60663500  0.93153600  0.93879200  1
  C  4  1  0.52398900  0.93679400  0.99931800  1
  C  5  1  0.55316150  0.89211700  0.05738400  1
  C  6  1  0.65461700  0.84094100  0.05318800  1
  C  8  1  0.50921100  0.07029050  0.02450400  1
  C  9  1  0.55863100  0.08069250  0.09379800  1
  C  10  1  0.65570500  0.13259800  0.10772900  1
  C  11  1  0.71332600  0.17263200  0.05240600  1
  C  12  1  0.66613700  0.16120450  0.98297600  1
  C  13  1  0.56677600  0.11067250  0.96920700  1
  C  14  1  0.32113700  0.01455250  0.93360600  1
  C  15  1  0.29158000  0.98415100  0.06408800  1
  C  16  1  0.23352000  0.03784050  0.10587500  1
  C  17  1  0.11629200  0.02514550  0.14497400  1
  C  18  1  0.04933000  0.95922450  0.14202700  1
  C  19  1  0.10783300  0.90575150  0.10014800  1
  C  20  1  0.22480300  0.91823450  0.06104900  1
  C  21  1  0.29451900  0.95879850  0.88600800  1
  C  22  1  0.20426300  0.96787750  0.82987600  1
  C  23  1  0.13511700  0.03233900  0.82022800  1
  C  24  1  0.15655400  0.08698700  0.86958100  1
  C  25  1  0.24761350  0.07810500  0.92549200  1
  C  41  1  0.93391000  0.94487150  0.18439500  1
  C  42  1  0.04859900  0.04205850  0.76141400  1
  C  43  1  0.80882700  0.22627200  0.06716800  1
  C  45  1  0.82956600  0.77834800  0.98441600  1
  C  50  1  0.01655900  0.03076650  0.63436400  1
  C  51  1  0.87881550  0.01572000  0.62780800  1
  C  52  1  0.81619200  0.01721850  0.56124600  1
  C  53  1  0.88958600  0.03501900  0.49999900  1
  C  54  1  0.02769550  0.05131700  0.50579400  1
  C  55  1  0.08901900  0.04894400  0.57295400  1
  C  57  1  0.83332900  0.02455150  0.43208600  1
  C  58  1  0.81022300  0.08206650  0.38568000  1
  C  59  1  0.80322000  0.06930200  0.31210800  1
  C  60  1  0.82463600  0.00122150  0.28293100  1
  C  61  1  0.83369150  0.94409450  0.33137600  1
  C  62  1  0.83900400  0.95546050  0.40454200  1
  C  78  1  0.93829600  0.68005750  0.03907600  1
  C  79  1  0.87347800  0.63049000  0.08298300  1
  C  80  1  0.90314900  0.55834950  0.07777300  1
  C  81  1  0.00043700  0.53389000  0.02949700  1
  C  82  1  0.07138700  0.58349900  0.98736600  1
  C  83  1  0.03965700  0.65631300  0.99296200  1
  C  85  1  0.00946500  0.45962400  0.01940000  1
  C  86  1  0.95026700  0.42788600  0.95909200  1
  C  87  1  0.92808400  0.35404200  0.95886800  1
  C  88  1  0.95836500  0.31186600  0.01838500  1
  C  89  1  0.02379000  0.34330850  0.07631900  1
  C  90  1  0.04871900  0.41636850  0.07686900  1
  H  26  1  0.08089700  0.06521400  0.17586200  1
  H  27  1  0.27343400  0.08758350  0.10728100  1
  H  28  1  0.06459600  0.85705250  0.09636500  1
  H  29  1  0.25893600  0.87833200  0.02935500  1
  H  30  1  0.33771300  0.91016800  0.89213600  1
  H  31  1  0.18730000  0.92607650  0.79687400  1
  H  32  1  0.10782200  0.13430300  0.86463000  1
  H  33  1  0.25856700  0.11894250  0.96041300  1
  H  34  1  0.53958700  0.10316200  0.91763400  1
  H  35  1  0.70185000  0.19035550  0.94146800  1
  H  36  1  0.68696200  0.13944400  0.15869500  1
  H  37  1  0.52532800  0.05047850  0.13518900  1
  H  38  1  0.50086000  0.89570050  0.10370300  1
  H  39  1  0.59359600  0.96453000  0.89635800  1
  H  40  1  0.76335200  0.87739200  0.88922600  1
  H  44  1  0.66648550  0.80758900  0.09529800  1
  H  56  1  0.18957900  0.05826600  0.57659000  1
  H  63  1  0.79595650  0.11208050  0.27915400  1
  H  64  1  0.84930800  0.89374150  0.31456800  1
  H  65  1  0.82543850  0.99862250  0.67065700  1
  H  66  1  0.86148700  0.91345150  0.43673500  1
  H  67  1  0.71825000  0.00207350  0.55738100  1
  H  75  1  0.85617900  0.04091550  0.18611200  1
  H  77  1  0.17493200  0.99985950  0.69081400  1
  H  84  1  0.08830300  0.69213600  0.96157200  1
  H  91  1  0.87715500  0.33213150  0.91744000  1
  H  92  1  0.04517700  0.31398800  0.12039400  1
  H  93  1  0.79802600  0.64619750  0.11591400  1
  H  94  1  0.08681400  0.43854100  0.12185900  1
  H  95  1  0.84781700  0.52350000  0.10721700  1
  H  103  1  0.91958100  0.21619000  0.97888100  1
  H  105  1  0.88076750  0.76844050  0.08690900  1
  N  68  1  0.10421600  0.06551000  0.44428000  1
  N  69  1  0.80265900  0.15128250  0.41358800  1
  N  74  1  0.85258300  0.99595300  0.21118500  1
  N  76  1  0.08550000  0.01993250  0.69588600  1
  N  96  1  0.17164200  0.55926700  0.94056500  1
  N  97  1  0.90365800  0.47068250  0.90266200  1
  N  102  1  0.90846800  0.24468900  0.02132500  1
  N  104  1  0.89530000  0.74855700  0.04021600  1
  O  46  1  0.94014600  0.08415200  0.76925800  1
  O  47  1  0.89303750  0.87700100  0.19136900  1
  O  48  1  0.78397500  0.26664550  0.12471600  1
  O  49  1  0.83967300  0.74832150  0.91968400  1
  O  70  1  0.69130950  0.17886200  0.40015200  1
  O  71  1  0.19338600  0.01971800  0.43502200  1
  O  72  1  0.15838400  0.12532400  0.44698500  1
  O  73  1  0.89275900  0.19058100  0.38908800  1
  O  98  1  0.77883900  0.46718400  0.89629000  1
  O  99  1  0.28397100  0.58373850  0.95719800  1
  O  100  1  0.14731300  0.57686100  0.87778600  1
  O  101  1  0.95634650  0.45324300  0.84502400  1
  Si  7  1  0.41215400  0.00152400  0.00601700  1
