# generated using pymatgen
data_H13C18(N2O)2
_symmetry_space_group_name_H-M   'P 1'
_cell_length_a   9.99653333
_cell_length_b   15.18230000
_cell_length_c   15.18230000
_cell_angle_alpha   90.00000000
_cell_angle_beta   90.00000000
_cell_angle_gamma   90.00000000
_symmetry_Int_Tables_number   1
_chemical_formula_structural   H13C18(N2O)2
_chemical_formula_sum   'H26 C36 N8 O4'
_cell_volume   2304.22325849
_cell_formula_units_Z   2
loop_
 _symmetry_equiv_pos_site_id
 _symmetry_equiv_pos_as_xyz
  1  'x, y, z'
loop_
 _atom_site_type_symbol
 _atom_site_label
 _atom_site_symmetry_multiplicity
 _atom_site_fract_x
 _atom_site_fract_y
 _atom_site_fract_z
 _atom_site_occupancy
  C  1  1  0.94192400  0.94602200  0.96143100  1
  C  2  1  0.90183100  0.96589000  0.87328200  1
  C  3  1  0.84071400  0.90360700  0.81636700  1
  C  4  1  0.81741200  0.81873500  0.85135500  1
  C  5  1  0.87146700  0.79057100  0.93246900  1
  C  6  1  0.93171200  0.85563300  0.98609500  1
  C  10  1  0.99585800  0.01046800  0.02134200  1
  C  11  1  0.04446000  0.09393500  0.99302100  1
  C  12  1  0.10642700  0.15481500  0.05054000  1
  C  13  1  0.11803900  0.13178200  0.14018000  1
  C  14  1  0.05380200  0.05679300  0.17562000  1
  C  15  1  0.99675800  0.99684400  0.11445700  1
  C  19  1  0.03736700  0.05080000  0.26871100  1
  C  20  1  0.13509000  0.24288400  0.02525600  1
  C  21  1  0.86958500  0.69920400  0.95354300  1
  C  22  1  0.81486600  0.91721200  0.72501100  1
  C  27  1  0.93623700  0.98760300  0.40006700  1
  C  28  1  0.88424500  0.06387800  0.44245700  1
  C  29  1  0.85562500  0.06426800  0.53420900  1
  C  30  1  0.87252200  0.98745500  0.58609300  1
  C  31  1  0.91710600  0.91053600  0.54169900  1
  C  32  1  0.94522200  0.91003500  0.45105400  1
  C  34  1  0.76992500  0.21210500  0.52248000  1
  C  35  1  0.79495400  0.21111700  0.43055000  1
  C  39  1  0.70837800  0.28671900  0.57006200  1
  C  43  1  0.76468300  0.28311000  0.36801700  1
  C  51  1  0.97944700  0.56892300  0.00990800  1
  C  52  1  0.87088500  0.50935900  0.01891200  1
  C  53  1  0.88999600  0.41726600  0.00932400  1
  C  54  1  0.01925100  0.38104600  0.99503300  1
  C  55  1  0.12808300  0.44077200  0.99318500  1
  C  56  1  0.10899200  0.53217500  0.00173600  1
  C  58  1  0.65597500  0.39339400  0.04012700  1
  C  59  1  0.63760400  0.48521200  0.05174550  1
  C  63  1  0.54898400  0.32699500  0.04918400  1
  C  67  1  0.51040100  0.52928500  0.07472700  1
  H  7  1  0.91077900  0.02848200  0.85041300  1
  H  8  1  0.97031600  0.83541900  0.04488300  1
  H  9  1  0.77618400  0.77209500  0.81120000  1
  H  16  1  0.04387400  0.11022900  0.92789500  1
  H  17  1  0.15612200  0.17781600  0.18248400  1
  H  18  1  0.94495200  0.94476700  0.13933000  1
  H  37  1  0.98270300  0.85350600  0.42379300  1
  H  38  1  0.93811300  0.85438500  0.57612900  1
  H  40  1  0.69791700  0.27242600  0.64023600  1
  H  41  1  0.60906500  0.30009400  0.54339200  1
  H  42  1  0.77062700  0.34533100  0.56302700  1
  H  44  1  0.72050800  0.34047900  0.39982300  1
  H  45  1  0.69472400  0.25940900  0.31816400  1
  H  46  1  0.85670500  0.30391500  0.33540500  1
  H  48  1  0.97455600  0.92707800  0.28475500  1
  H  50  1  0.86110200  0.04437600  0.70587000  1
  H  61  1  0.19026500  0.57245900  0.99405100  1
  H  62  1  0.22239000  0.41874750  0.97955100  1
  H  64  1  0.58689100  0.26043700  0.03807300  1
  H  65  1  0.47064700  0.33993300  0.00087900  1
  H  66  1  0.50670400  0.32974100  0.11538700  1
  H  68  1  0.42782100  0.48324200  0.08313800  1
  H  69  1  0.48355200  0.57561400  0.02268500  1
  H  70  1  0.52284000  0.56561400  0.13621200  1
  H  72  1  0.04414300  0.69380300  0.01697000  1
  H  74  1  0.95447300  0.25884200  0.97124200  1
  N  33  1  0.80052600  0.13834900  0.56906600  1
  N  36  1  0.85007200  0.13703000  0.39597000  1
  N  47  1  0.97489100  0.98445800  0.31336800  1
  N  49  1  0.85091800  0.98840300  0.67552900  1
  N  57  1  0.78110000  0.36472400  0.02045400  1
  N  60  1  0.74623700  0.53782200  0.04085300  1
  N  71  1  0.96499300  0.65860000  0.00413200  1
  N  73  1  0.03462100  0.29149200  0.98784300  1
  O  23  1  0.09555600  0.11391800  0.31946600  1
  O  24  1  0.78945600  0.64697300  0.90338900  1
  O  25  1  0.74731200  0.85333800  0.68057700  1
  O  26  1  0.22929200  0.28530300  0.07373300  1
