# generated using pymatgen
data_H28C39N8
_symmetry_space_group_name_H-M   'P 1'
_cell_length_a   42.43170000
_cell_length_b   42.43170000
_cell_length_c   55.19260000
_cell_angle_alpha   90.00000000
_cell_angle_beta   90.00000000
_cell_angle_gamma   90.00000000
_symmetry_Int_Tables_number   1
_chemical_formula_structural   H28C39N8
_chemical_formula_sum   'H224 C312 N64'
_cell_volume   99371.47057811
_cell_formula_units_Z   8
loop_
 _symmetry_equiv_pos_site_id
 _symmetry_equiv_pos_as_xyz
  1  'x, y, z'
loop_
 _atom_site_type_symbol
 _atom_site_label
 _atom_site_symmetry_multiplicity
 _atom_site_fract_x
 _atom_site_fract_y
 _atom_site_fract_z
 _atom_site_occupancy
  H  26  1  0.03183700  0.27594500  0.42260000  1
  H  27  1  0.03731200  0.27903900  0.37974300  1
  H  28  1  0.93406100  0.26137100  0.41429700  1
  H  29  1  0.93951000  0.26501400  0.37183600  1
  H  30  1  0.94969100  0.31869600  0.34475500  1
  H  31  1  0.95504300  0.37435500  0.34082700  1
  H  32  1  0.05282200  0.36323300  0.33046100  1
  H  33  1  0.04753400  0.30814000  0.33490900  1
  H  34  1  0.02465400  0.27089400  0.29890800  1
  H  35  1  0.06072700  0.23408800  0.28183300  1
  H  36  1  0.06008200  0.18279600  0.34723500  1
  H  37  1  0.02400800  0.21877100  0.36388200  1
  H  38  1  0.96511800  0.21333000  0.34983300  1
  H  39  1  0.96179100  0.28935000  0.30078300  1
  H  40  1  0.92398900  0.26203300  0.27735600  1
  H  41  1  0.92770500  0.18570100  0.32623800  1
  H  44  1  0.02790800  0.41447100  0.32297300  1
  H  45  1  0.95914900  0.25253300  0.45359200  1
  H  47  1  0.07972600  0.15920700  0.30963900  1
  H  49  1  0.89392900  0.21465200  0.26874800  1
  H  75  1  0.95584000  0.71921500  0.42288700  1
  H  76  1  0.94945100  0.71642500  0.38014500  1
  H  77  1  0.05460800  0.71879800  0.41393600  1
  H  78  1  0.04812600  0.71568200  0.37142500  1
  H  79  1  0.03746700  0.66884000  0.34007700  1
  H  80  1  0.03050600  0.61316900  0.33956900  1
  H  81  1  0.93202800  0.62602500  0.34078900  1
  H  82  1  0.93908400  0.68116300  0.34150400  1
  H  83  1  0.95860000  0.71393600  0.30072700  1
  H  84  1  0.92302500  0.75079300  0.28313000  1
  H  85  1  0.93360900  0.80966400  0.34411900  1
  H  86  1  0.96900500  0.77332100  0.36135300  1
  H  87  1  0.02745600  0.77180100  0.35221000  1
  H  88  1  0.02049600  0.70156100  0.29856200  1
  H  89  1  0.05769600  0.72905000  0.27455300  1
  H  90  1  0.06442800  0.79941400  0.32829600  1
  H  93  1  0.95316300  0.57382600  0.34474200  1
  H  94  1  0.03089800  0.73299500  0.45330000  1
  H  96  1  0.91032700  0.82970100  0.30658800  1
  H  98  1  0.09080300  0.77482700  0.26740900  1
  H  124  1  0.71317000  0.03227900  0.92226900  1
  H  125  1  0.71002600  0.03770000  0.87941000  1
  H  126  1  0.72725100  0.93441700  0.91405200  1
  H  127  1  0.72354700  0.93981400  0.87158800  1
  H  128  1  0.67010300  0.94994100  0.84443400  1
  H  129  1  0.61443700  0.95529800  0.84059100  1
  H  130  1  0.62552500  0.05310300  0.83037400  1
  H  131  1  0.68063300  0.04780300  0.83473600  1
  H  132  1  0.71773300  0.02493900  0.79863300  1
  H  133  1  0.75455200  0.06085100  0.78140800  1
  H  134  1  0.80631700  0.06000700  0.84657800  1
  H  135  1  0.77025500  0.02411700  0.86339900  1
  H  136  1  0.77538500  0.96526500  0.84964500  1
  H  137  1  0.69952900  0.96215100  0.80044800  1
  H  138  1  0.72686000  0.92433800  0.77703800  1
  H  139  1  0.80302500  0.92784200  0.82608200  1
  H  142  1  0.57426900  0.02818400  0.82288100  1
  H  143  1  0.73654400  0.95967900  0.95329300  1
  H  145  1  0.82972400  0.07956400  0.80866900  1
  H  147  1  0.77421600  0.89417600  0.76851800  1
  H  173  1  0.26929600  0.95619100  0.92321500  1
  H  174  1  0.27196900  0.94973800  0.88047500  1
  H  175  1  0.27045400  0.05494100  0.91420300  1
  H  176  1  0.27343700  0.04839400  0.87168800  1
  H  177  1  0.31991900  0.03777600  0.84006400  1
  H  178  1  0.37559400  0.03079200  0.83950100  1
  H  179  1  0.36271200  0.93233400  0.84135100  1
  H  180  1  0.30757900  0.93940700  0.84211000  1
  H  181  1  0.27502300  0.95857600  0.80114600  1
  H  182  1  0.23818100  0.92295400  0.78357500  1
  H  183  1  0.17893400  0.93419300  0.84427500  1
  H  184  1  0.21526000  0.96962700  0.86149300  1
  H  185  1  0.21712500  0.02808900  0.85262200  1
  H  186  1  0.28699800  0.02042100  0.79874200  1
  H  187  1  0.25952300  0.05756100  0.77467100  1
  H  188  1  0.18952900  0.06502400  0.82864000  1
  H  191  1  0.41493800  0.95346200  0.84498100  1
  H  192  1  0.25621900  0.03141500  0.95359900  1
  H  194  1  0.15908600  0.91061200  0.80681500  1
  H  196  1  0.21394200  0.09092000  0.76758000  1
  H  222  1  0.95983700  0.28094100  0.60444700  1
  H  223  1  0.95277600  0.27895900  0.64721600  1
  H  224  1  0.05769900  0.26856100  0.61399400  1
  H  225  1  0.05066700  0.26710000  0.65633700  1
  H  226  1  0.03970500  0.31893900  0.68364800  1
  H  227  1  0.03399300  0.37451500  0.68764100  1
  H  228  1  0.93603400  0.36290100  0.69650100  1
  H  229  1  0.94168800  0.30786200  0.69195000  1
  H  230  1  0.96437600  0.27046500  0.72821600  1
  H  231  1  0.92616600  0.23519000  0.74418900  1
  H  232  1  0.92726200  0.18435400  0.67853300  1
  H  233  1  0.96550500  0.21901300  0.66296400  1
  H  234  1  0.02491400  0.21359800  0.67723100  1
  H  235  1  0.02726900  0.28897500  0.72690400  1
  H  236  1  0.06609500  0.26226900  0.74973700  1
  H  237  1  0.06343200  0.18650800  0.70028600  1
  H  240  1  0.96052300  0.41430800  0.70440300  1
  H  241  1  0.03665300  0.28175400  0.57437600  1
  H  243  1  0.89445700  0.16612100  0.71111200  1
  H  245  1  0.10166100  0.21796400  0.75524500  1
  H  271  1  0.02964500  0.71673600  0.60375200  1
  H  272  1  0.03741400  0.71877700  0.64636400  1
  H  273  1  0.93151900  0.70941800  0.61485600  1
  H  274  1  0.93939900  0.71132500  0.65717000  1
  H  275  1  0.95076800  0.66858500  0.69007800  1
  H  276  1  0.95813800  0.61301400  0.69074300  1
  H  277  1  0.05620100  0.62643800  0.68439600  1
  H  278  1  0.04872100  0.68152400  0.68357600  1
  H  279  1  0.03106900  0.71347900  0.72571000  1
  H  280  1  0.06796000  0.74964500  0.74232300  1
  H  281  1  0.05392600  0.80988300  0.68250900  1
  H  282  1  0.01717200  0.77404700  0.66622200  1
  H  283  1  0.95839000  0.77045000  0.67421900  1
  H  284  1  0.96918800  0.70307400  0.72966200  1
  H  285  1  0.93096000  0.72987200  0.75322100  1
  H  286  1  0.92032200  0.79739700  0.69772400  1
  H  289  1  0.03551400  0.57396700  0.68324800  1
  H  290  1  0.95240400  0.70530800  0.57453200  1
  H  292  1  0.08599000  0.82752300  0.71582100  1
  H  294  1  0.89098700  0.77099000  0.75709300  1
  H  320  1  0.28088400  0.02890200  0.10462700  1
  H  321  1  0.27914000  0.03603300  0.14738800  1
  H  322  1  0.26780000  0.93114600  0.11429300  1
  H  323  1  0.26658100  0.93824700  0.15662400  1
  H  324  1  0.31882800  0.94921500  0.18377100  1
  H  325  1  0.37441600  0.95489300  0.18775200  1
  H  326  1  0.36285900  0.05283900  0.19672800  1
  H  327  1  0.30783800  0.04723000  0.19216500  1
  H  328  1  0.27046500  0.02438900  0.22848700  1
  H  329  1  0.23659000  0.06426700  0.24398900  1
  H  330  1  0.18598300  0.06404100  0.17823100  1
  H  331  1  0.21924600  0.02411600  0.16309300  1
  H  332  1  0.21330900  0.96444200  0.17764600  1
  H  333  1  0.28901500  0.96139000  0.22700500  1
  H  334  1  0.26228300  0.92251800  0.24978500  1
  H  335  1  0.18621200  0.92586000  0.20063800  1
  H  338  1  0.41423800  0.02829700  0.20463800  1
  H  339  1  0.28034200  0.95191800  0.07459700  1
  H  341  1  0.17657600  0.10561100  0.20864800  1
  H  343  1  0.21781300  0.88720700  0.25538200  1
  H  369  1  0.71605200  0.95924500  0.10356800  1
  H  370  1  0.71829100  0.95155500  0.14618300  1
  H  371  1  0.70948900  0.05744200  0.11455700  1
  H  372  1  0.71158100  0.04964300  0.15688300  1
  H  373  1  0.66851700  0.03824600  0.18959300  1
  H  374  1  0.61294100  0.03089400  0.19032500  1
  H  375  1  0.62633400  0.93277000  0.18452100  1
  H  376  1  0.68142500  0.94022400  0.18362100  1
  H  377  1  0.71354200  0.95813800  0.22555200  1
  H  378  1  0.74967100  0.92117700  0.24212700  1
  H  379  1  0.80961700  0.93475400  0.18207300  1
  H  380  1  0.77382000  0.97159000  0.16582300  1
  H  381  1  0.77049500  0.03045000  0.17410100  1
  H  382  1  0.70280300  0.01997600  0.22935200  1
  H  383  1  0.72959200  0.05817000  0.25294200  1
  H  384  1  0.79744400  0.06848500  0.19764800  1
  H  387  1  0.57388700  0.95351600  0.18304600  1
  H  388  1  0.70413700  0.03624000  0.07429200  1
  H  390  1  0.82733200  0.90275200  0.21540800  1
  H  392  1  0.77082300  0.09798000  0.25692600  1
  H  399  1  0.18198900  0.15925200  0.23792000  1
  H  401  1  0.14679700  0.05890200  0.26772400  1
  H  402  1  0.10689100  0.06984200  0.27128300  1
  H  403  1  0.13335200  0.07281900  0.29607600  1
  H  412  1  0.80102400  0.82461000  0.24124400  1
  H  414  1  0.83930900  0.92706700  0.26384900  1
  H  415  1  0.87964700  0.91661700  0.26439100  1
  H  416  1  0.85684100  0.91505900  0.29131300  1
  H  425  1  0.82714100  0.18488300  0.73957600  1
  H  427  1  0.92868300  0.14829700  0.76534000  1
  H  428  1  0.91826900  0.10809100  0.76773600  1
  H  429  1  0.91606800  0.13301700  0.79350000  1
  H  438  1  0.16433600  0.80114900  0.74162500  1
  H  440  1  0.06182400  0.83939200  0.76414400  1
  H  441  1  0.07223800  0.87974100  0.76463000  1
  H  442  1  0.07380900  0.85699900  0.79158300  1
  H  451  1  0.82487400  0.83154600  0.79934900  1
  H  453  1  0.83049000  0.92829900  0.75441700  1
  H  454  1  0.86883700  0.92202600  0.74307800  1
  H  455  1  0.83557600  0.91083600  0.72559600  1
  H  464  1  0.16750600  0.15772200  0.79800200  1
  H  466  1  0.15605800  0.05843800  0.75712900  1
  H  467  1  0.11736000  0.06536400  0.74677400  1
  H  468  1  0.14998300  0.07424500  0.72785700  1
  H  477  1  0.15750400  0.82119800  0.29794800  1
  H  479  1  0.05829300  0.83277600  0.25698900  1
  H  480  1  0.06523100  0.87151400  0.24672700  1
  H  481  1  0.07415300  0.83896000  0.22774800  1
  H  490  1  0.83132000  0.16391500  0.29938300  1
  H  492  1  0.92817900  0.15837800  0.25458300  1
  H  493  1  0.92194300  0.12004400  0.24320700  1
  H  494  1  0.91078400  0.15332800  0.22573500  1
  H  503  1  0.95381800  0.52175200  0.36040400  1
  H  505  1  0.04370200  0.54688800  0.31079700  1
  H  506  1  0.04148200  0.51279600  0.29250700  1
  H  507  1  0.06562600  0.51303600  0.31875500  1
  H  516  1  0.46707500  0.95410800  0.86048900  1
  H  518  1  0.44180000  0.04392000  0.81085000  1
  H  519  1  0.47585000  0.04168900  0.79251200  1
  H  520  1  0.47566300  0.06585900  0.81874600  1
  H  529  1  0.03540800  0.52174500  0.66803700  1
  H  531  1  0.94446200  0.54690000  0.71647300  1
  H  532  1  0.94627400  0.51281700  0.73479800  1
  H  533  1  0.92272100  0.51304600  0.70823500  1
  H  542  1  0.52164100  0.95365100  0.16793100  1
  H  544  1  0.54684800  0.04442300  0.21654500  1
  H  545  1  0.51280300  0.04251800  0.23490700  1
  H  546  1  0.51296800  0.06618200  0.20840100  1
  H  555  1  0.03480400  0.30177700  0.53451900  1
  H  557  1  0.94648600  0.23553100  0.55503800  1
  H  558  1  0.94865700  0.21164300  0.52887700  1
  H  559  1  0.92385400  0.24530700  0.52924200  1
  H  568  1  0.95239900  0.68862200  0.53428400  1
  H  570  1  0.04305400  0.75161800  0.55498000  1
  H  571  1  0.04177500  0.77558100  0.52882800  1
  H  572  1  0.06536800  0.74105900  0.52920300  1
  H  581  1  0.68644000  0.03496400  0.03409600  1
  H  583  1  0.75397400  0.94765300  0.05478800  1
  H  584  1  0.77783400  0.95010800  0.02863000  1
  H  585  1  0.74452900  0.92482800  0.02902000  1
  H  594  1  0.29960400  0.95253100  0.03470600  1
  H  596  1  0.23799000  0.04414300  0.05524700  1
  H  597  1  0.21401100  0.04317600  0.02909300  1
  H  598  1  0.24888000  0.06625400  0.02944700  1
  C  1  1  0.92123100  0.22112600  0.29946400  1
  C  2  1  0.93175200  0.25169200  0.29303200  1
  C  3  1  0.95397600  0.26817900  0.30721900  1
  C  4  1  0.96661500  0.25547200  0.32896300  1
  C  5  1  0.95607300  0.22456300  0.33499300  1
  C  6  1  0.93388200  0.20797000  0.32091300  1
  C  7  1  0.99386100  0.27093000  0.34306100  1
  C  8  1  0.02155500  0.25055600  0.33402000  1
  C  9  1  0.03273500  0.22392300  0.34710600  1
  C  10  1  0.05388600  0.20199900  0.33702400  1
  C  11  1  0.06493800  0.20507300  0.31297100  1
  C  12  1  0.05438100  0.23148700  0.29961600  1
  C  13  1  0.03302200  0.25332500  0.30984200  1
  C  14  1  0.99764800  0.30658000  0.33876300  1
  C  15  1  0.98945400  0.27003600  0.37070200  1
  C  16  1  0.01529800  0.27514100  0.38667700  1
  C  17  1  0.01210500  0.27344700  0.41210300  1
  C  18  1  0.98246400  0.26762300  0.42296100  1
  C  19  1  0.95618600  0.26481600  0.40733900  1
  C  20  1  0.95956100  0.26656000  0.38200100  1
  C  21  1  0.97164700  0.32757100  0.34130000  1
  C  22  1  0.97478600  0.36065300  0.33922000  1
  C  23  1  0.00445700  0.37481400  0.33488400  1
  C  24  1  0.03066000  0.35426600  0.33307600  1
  C  25  1  0.02739400  0.32130500  0.33533700  1
  C  42  1  0.97831100  0.26392100  0.44792800  1
  C  43  1  0.90038400  0.20466600  0.28431900  1
  C  46  1  0.08290300  0.18076100  0.30289900  1
  C  48  1  0.00877900  0.40742900  0.33191400  1
  C  50  1  0.06566000  0.76690800  0.29900800  1
  C  51  1  0.05236200  0.73795800  0.29130900  1
  C  52  1  0.03051200  0.72135700  0.30576400  1
  C  53  1  0.02110600  0.73222900  0.32900800  1
  C  54  1  0.03435900  0.76158400  0.33630300  1
  C  55  1  0.05622900  0.77826000  0.32198900  1
  C  56  1  0.99364400  0.71730400  0.34311500  1
  C  57  1  0.96642400  0.73810400  0.33391400  1
  C  58  1  0.95842100  0.76699100  0.34546000  1
  C  59  1  0.93763700  0.78898800  0.33502900  1
  C  60  1  0.92385400  0.78371900  0.31205800  1
  C  61  1  0.93143600  0.75515500  0.30018700  1
  C  62  1  0.95247900  0.73326300  0.31073900  1
  C  63  1  0.98909600  0.68172200  0.33914000  1
  C  64  1  0.99802300  0.71824600  0.37072900  1
  C  65  1  0.97188900  0.71721400  0.38687100  1
  C  66  1  0.97559900  0.71861400  0.41225300  1
  C  67  1  0.00590600  0.71998800  0.42288100  1
  C  68  1  0.03214800  0.71863000  0.40711300  1
  C  69  1  0.02823500  0.71710600  0.38180500  1
  C  70  1  0.01495600  0.66031300  0.33924100  1
  C  71  1  0.01089300  0.62719600  0.33910000  1
  C  72  1  0.98049100  0.61343100  0.33951500  1
  C  73  1  0.95459800  0.63452600  0.33985700  1
  C  74  1  0.95880700  0.66749200  0.33994600  1
  C  91  1  0.01070900  0.72340800  0.44777800  1
  C  92  1  0.08601000  0.78373500  0.28370500  1
  C  95  1  0.90590600  0.80764600  0.30140800  1
  C  97  1  0.97499100  0.58075700  0.34092600  1
  C  99  1  0.76767600  0.92146000  0.79923600  1
  C  100  1  0.73715200  0.93204400  0.79274600  1
  C  101  1  0.72064800  0.95425900  0.80693300  1
  C  102  1  0.73329600  0.96684400  0.82871500  1
  C  103  1  0.76417900  0.95625500  0.83478100  1
  C  104  1  0.78077500  0.93404500  0.82072600  1
  C  105  1  0.71786900  0.99413400  0.84277100  1
  C  106  1  0.73824100  0.02179600  0.83367900  1
  C  107  1  0.76504400  0.03285000  0.84663400  1
  C  108  1  0.78701300  0.05388400  0.83645100  1
  C  109  1  0.78380300  0.06496800  0.81242100  1
  C  110  1  0.75725700  0.05449800  0.79918000  1
  C  111  1  0.73539900  0.03324100  0.80950200  1
  C  112  1  0.68221400  0.99791000  0.83848600  1
  C  113  1  0.71880000  0.98978600  0.87041200  1
  C  114  1  0.71383700  0.01568000  0.88636200  1
  C  115  1  0.71552700  0.01251500  0.91178800  1
  C  116  1  0.72124600  0.98286700  0.92266600  1
  C  117  1  0.72389300  0.95654700  0.90707500  1
  C  118  1  0.72211600  0.95989100  0.88173600  1
  C  119  1  0.66122100  0.97190600  0.84102300  1
  C  120  1  0.62813400  0.97504500  0.83899300  1
  C  121  1  0.61395400  0.00472300  0.83472800  1
  C  122  1  0.63450000  0.03093400  0.83294000  1
  C  123  1  0.66746800  0.02766300  0.83515000  1
  C  140  1  0.72501700  0.97875700  0.94762400  1
  C  141  1  0.78415500  0.90060500  0.78411300  1
  C  144  1  0.80804900  0.08289500  0.80221500  1
  C  146  1  0.58133200  0.00905300  0.83180900  1
  C  148  1  0.22184500  0.06586900  0.79922200  1
  C  149  1  0.25069200  0.05238900  0.79148200  1
  C  150  1  0.26728800  0.03057400  0.80597100  1
  C  151  1  0.25650600  0.02138100  0.82929100  1
  C  152  1  0.22726500  0.03482400  0.83664200  1
  C  153  1  0.21059800  0.05666400  0.82229000  1
  C  154  1  0.27144300  0.99393200  0.84341400  1
  C  155  1  0.25065000  0.96671600  0.83419900  1
  C  156  1  0.22167600  0.95887500  0.84568400  1
  C  157  1  0.19968100  0.93809100  0.83524600  1
  C  158  1  0.20506900  0.92409700  0.81236800  1
  C  159  1  0.23371600  0.93154400  0.80056400  1
  C  160  1  0.25561300  0.95258300  0.81111100  1
  C  161  1  0.30703500  0.98940000  0.83945400  1
  C  162  1  0.27049800  0.99831300  0.87102800  1
  C  163  1  0.27134400  0.97218900  0.88718500  1
  C  164  1  0.27001500  0.97593300  0.91256800  1
  C  165  1  0.26891000  0.00626000  0.92318400  1
  C  166  1  0.27043900  0.03247300  0.90739600  1
  C  167  1  0.27189800  0.02852600  0.88208800  1
  C  168  1  0.32844100  0.01525600  0.83936500  1
  C  169  1  0.36155500  0.01117800  0.83920500  1
  C  170  1  0.37531900  0.98078100  0.83976500  1
  C  171  1  0.35421600  0.95489500  0.84030700  1
  C  172  1  0.32125100  0.95911300  0.84042800  1
  C  189  1  0.26558700  0.01111900  0.94808600  1
  C  190  1  0.20502800  0.08619100  0.78388400  1
  C  193  1  0.18115700  0.90614100  0.80170000  1
  C  195  1  0.40799900  0.97527800  0.84112600  1
  C  197  1  0.06935300  0.22167200  0.72732800  1
  C  198  1  0.05820600  0.25188000  0.73411700  1
  C  199  1  0.03537500  0.26801400  0.72027800  1
  C  200  1  0.02281100  0.25536100  0.69849400  1
  C  201  1  0.03379600  0.22470900  0.69218700  1
  C  202  1  0.05657500  0.20843300  0.70595200  1
  C  203  1  0.99566900  0.27087800  0.68434800  1
  C  204  1  0.96791600  0.25039300  0.69305200  1
  C  205  1  0.95649300  0.22413200  0.67966000  1
  C  206  1  0.93403800  0.20299800  0.68912400  1
  C  207  1  0.92196400  0.20633900  0.71289100  1
  C  208  1  0.93348600  0.23200900  0.72668800  1
  C  209  1  0.95601700  0.25309900  0.71708600  1
  C  210  1  0.99167200  0.30650200  0.68887200  1
  C  211  1  0.00056800  0.27048200  0.65675300  1
  C  212  1  0.97504500  0.27588300  0.64052800  1
  C  213  1  0.97914600  0.27703800  0.61515500  1
  C  214  1  0.00939900  0.27392300  0.60464300  1
  C  215  1  0.03518100  0.27002500  0.62061200  1
  C  216  1  0.03087400  0.26868100  0.64587700  1
  C  217  1  0.01761900  0.32766300  0.68681200  1
  C  218  1  0.01427600  0.36071900  0.68893100  1
  C  219  1  0.98443900  0.37473900  0.69283400  1
  C  220  1  0.95830300  0.35404700  0.69420900  1
  C  221  1  0.96178100  0.32110700  0.69189200  1
  C  238  1  0.01493500  0.27637400  0.57974500  1
  C  239  1  0.09159400  0.20601900  0.74178300  1
  C  242  1  0.90056500  0.18398500  0.72187400  1
  C  244  1  0.97991200  0.40734200  0.69576600  1
  C  246  1  0.92112300  0.76627600  0.72788100  1
  C  247  1  0.93586000  0.73836800  0.73626000  1
  C  248  1  0.95832600  0.72218700  0.72209900  1
  C  249  1  0.96678900  0.73233000  0.69845400  1
  C  250  1  0.95227900  0.76079000  0.69052000  1
  C  251  1  0.92985500  0.77711300  0.70459100  1
  C  252  1  0.99414400  0.71735500  0.68427500  1
  C  253  1  0.02139600  0.73832100  0.69311300  1
  C  254  1  0.02861800  0.76749500  0.68170900  1
  C  255  1  0.05024500  0.78914400  0.69159100  1
  C  256  1  0.06560400  0.78332500  0.71390800  1
  C  257  1  0.05830200  0.75464600  0.72577000  1
  C  258  1  0.03652600  0.73306300  0.71576700  1
  C  259  1  0.99902200  0.68182300  0.68846900  1
  C  260  1  0.98914100  0.71773300  0.65672100  1
  C  261  1  0.01477100  0.71776100  0.64008800  1
  C  262  1  0.01023800  0.71643200  0.61476800  1
  C  263  1  0.97966900  0.71383000  0.60470100  1
  C  264  1  0.95409400  0.71213500  0.62110900  1
  C  265  1  0.95879500  0.71358000  0.64632400  1
  C  266  1  0.97336700  0.66024500  0.68986100  1
  C  267  1  0.97765600  0.62715600  0.69006900  1
  C  268  1  0.00803900  0.61354400  0.68822500  1
  C  269  1  0.03369800  0.63480400  0.68638600  1
  C  270  1  0.02926400  0.66774400  0.68621000  1
  C  287  1  0.97392100  0.71156000  0.57979200  1
  C  288  1  0.89934700  0.78215400  0.74258500  1
  C  291  1  0.08551500  0.80640900  0.72374800  1
  C  293  1  0.01365200  0.58085800  0.68698200  1
  C  295  1  0.22153200  0.91959100  0.22751400  1
  C  296  1  0.25181700  0.93058500  0.23425100  1
  C  297  1  0.26795800  0.95344600  0.22044800  1
  C  298  1  0.25521700  0.96619800  0.19876000  1
  C  299  1  0.22447200  0.95540400  0.19252400  1
  C  300  1  0.20820400  0.93257900  0.20624500  1
  C  301  1  0.27077600  0.99327000  0.18457900  1
  C  302  1  0.25041900  0.02111100  0.19328900  1
  C  303  1  0.22447000  0.03305100  0.17979300  1
  C  304  1  0.20419400  0.05649300  0.18895800  1
  C  305  1  0.20803700  0.06881600  0.21258500  1
  C  306  1  0.23297600  0.05641000  0.22667400  1
  C  307  1  0.25328000  0.03301500  0.21731400  1
  C  308  1  0.30642000  0.99724100  0.18906300  1
  C  309  1  0.27031500  0.98832300  0.15698900  1
  C  310  1  0.27588600  0.01377400  0.14072900  1
  C  311  1  0.27689900  0.00963000  0.11535800  1
  C  312  1  0.27349400  0.97939100  0.10487600  1
  C  313  1  0.26948300  0.95366200  0.12088400  1
  C  314  1  0.26828800  0.95801300  0.14614600  1
  C  315  1  0.32756700  0.97128800  0.18695800  1
  C  316  1  0.36062900  0.97461100  0.18907100  1
  C  317  1  0.37466600  0.00443300  0.19301000  1
  C  318  1  0.35399500  0.03057900  0.19441700  1
  C  319  1  0.32105500  0.02711800  0.19210000  1
  C  336  1  0.27566900  0.97379600  0.07996800  1
  C  337  1  0.20588300  0.89730400  0.24192600  1
  C  340  1  0.18771400  0.09243200  0.22089600  1
  C  342  1  0.40726900  0.00895100  0.19594100  1
  C  344  1  0.76616800  0.06783800  0.22770800  1
  C  345  1  0.73817000  0.05320300  0.23601700  1
  C  346  1  0.72199800  0.03075300  0.22183800  1
  C  347  1  0.73223600  0.02221000  0.19823500  1
  C  348  1  0.76078300  0.03661500  0.19037200  1
  C  349  1  0.77709400  0.05903100  0.20446200  1
  C  350  1  0.71726800  0.99486000  0.18404100  1
  C  351  1  0.73825700  0.96761200  0.19285700  1
  C  352  1  0.76733500  0.96024700  0.18137200  1
  C  353  1  0.78896000  0.93857700  0.19123000  1
  C  354  1  0.78321400  0.92333100  0.21360700  1
  C  355  1  0.75462700  0.93077900  0.22554700  1
  C  356  1  0.73304900  0.95257100  0.21555600  1
  C  357  1  0.68173300  0.98996500  0.18823400  1
  C  358  1  0.71763800  0.99985400  0.15648400  1
  C  359  1  0.71741700  0.97419400  0.13988000  1
  C  360  1  0.71597700  0.97867900  0.11455900  1
  C  361  1  0.71352800  0.00924100  0.10446200  1
  C  362  1  0.71211600  0.03486800  0.12083800  1
  C  363  1  0.71367200  0.03021200  0.14605800  1
  C  364  1  0.66017200  0.01564800  0.18951300  1
  C  365  1  0.62708100  0.01136700  0.18974300  1
  C  366  1  0.61346100  0.98097000  0.18809100  1
  C  367  1  0.63471200  0.95528900  0.18637100  1
  C  368  1  0.66765400  0.95970500  0.18618400  1
  C  385  1  0.71100200  0.01490900  0.07956000  1
  C  386  1  0.78203100  0.08959300  0.24244700  1
  C  389  1  0.80626500  0.90334600  0.22340500  1
  C  391  1  0.58077600  0.97536100  0.18684200  1
  C  393  1  0.13783000  0.10873300  0.26983500  1
  C  394  1  0.16186700  0.11812400  0.25348700  1
  C  395  1  0.16483000  0.15086200  0.24919700  1
  C  397  1  0.12203800  0.16258700  0.27563900  1
  C  400  1  0.13100600  0.07566000  0.27650800  1
  C  406  1  0.84913000  0.87750200  0.26694700  1
  C  407  1  0.82327200  0.86680500  0.25280000  1
  C  408  1  0.81935500  0.83384600  0.25094000  1
  C  410  1  0.86471200  0.82412700  0.27523800  1
  C  413  1  0.85647100  0.91098900  0.27178800  1
  C  419  1  0.87908100  0.13868600  0.76830800  1
  C  420  1  0.86886700  0.16378600  0.75323500  1
  C  421  1  0.83601000  0.16703600  0.74997800  1
  C  423  1  0.82550800  0.12266000  0.77515700  1
  C  426  1  0.91245300  0.13180700  0.77394700  1
  C  432  1  0.11137900  0.84926900  0.76723400  1
  C  433  1  0.12211100  0.82339600  0.75311400  1
  C  434  1  0.15507500  0.81948700  0.75129700  1
  C  436  1  0.16473400  0.86488000  0.77557000  1
  C  439  1  0.07788400  0.85658600  0.77206000  1
  C  445  1  0.84644500  0.88016800  0.75450600  1
  C  446  1  0.82993600  0.87064400  0.77568200  1
  C  447  1  0.83547900  0.83964400  0.78392600  1
  C  449  1  0.87026200  0.82909000  0.75103200  1
  C  452  1  0.84510400  0.91217200  0.74393000  1
  C  458  1  0.14176900  0.10706100  0.75587300  1
  C  459  1  0.15980700  0.11734900  0.77608300  1
  C  460  1  0.15573200  0.14900700  0.78329700  1
  C  462  1  0.11935000  0.15861700  0.75126400  1
  C  465  1  0.14143800  0.07440400  0.74650300  1
  C  471  1  0.10691600  0.84707700  0.25581700  1
  C  472  1  0.11717100  0.82897700  0.27600300  1
  C  473  1  0.14881700  0.83302400  0.28325900  1
  C  475  1  0.15847300  0.86951500  0.25131500  1
  C  478  1  0.07427600  0.84743700  0.24641200  1
  C  484  1  0.88005200  0.14240900  0.25459600  1
  C  485  1  0.87048400  0.15888000  0.27577800  1
  C  486  1  0.83945500  0.15333500  0.28396200  1
  C  488  1  0.82898000  0.11860100  0.25101900  1
  C  491  1  0.91208000  0.14377300  0.24406400  1
  C  497  1  0.01690100  0.50834700  0.32558200  1
  C  498  1  0.99408500  0.52714400  0.33774100  1
  C  499  1  0.97074400  0.51020100  0.35072100  1
  C  501  1  0.99215000  0.46045300  0.33911800  1
  C  504  1  0.04333200  0.52119300  0.31114300  1
  C  510  1  0.48038200  0.01714300  0.82559500  1
  C  511  1  0.46161700  0.99433700  0.83779800  1
  C  512  1  0.47859800  0.97102000  0.85077200  1
  C  514  1  0.52831700  0.99241900  0.83908200  1
  C  517  1  0.46749500  0.04355600  0.81116000  1
  C  523  1  0.97159000  0.50835400  0.70205500  1
  C  524  1  0.99465800  0.52716000  0.69018000  1
  C  525  1  0.01828300  0.51020600  0.67751700  1
  C  527  1  0.99663300  0.46044800  0.68885200  1
  C  530  1  0.94484100  0.52120700  0.71613600  1
  C  536  1  0.50828800  0.01733600  0.20210500  1
  C  537  1  0.52708000  0.99432300  0.19015600  1
  C  538  1  0.51011400  0.97074400  0.17745400  1
  C  540  1  0.46036800  0.99231500  0.18890400  1
  C  543  1  0.52115500  0.04403300  0.21623900  1
  C  549  1  0.97232800  0.25512500  0.52504200  1
  C  550  1  0.99514800  0.27151200  0.53905600  1
  C  551  1  0.01797400  0.28881500  0.52584800  1
  C  553  1  0.99609500  0.27312800  0.48809500  1
  C  556  1  0.94646000  0.23588000  0.53528200  1
  C  562  1  0.01658400  0.73296900  0.52494700  1
  C  563  1  0.99319400  0.71734600  0.53893300  1
  C  564  1  0.96973500  0.70096900  0.52568100  1
  C  566  1  0.99225600  0.71587100  0.48798200  1
  C  569  1  0.04310000  0.75127600  0.53522400  1
  C  575  1  0.73402000  0.97314800  0.02475300  1
  C  576  1  0.71725400  0.99573700  0.03872900  1
  C  577  1  0.69965200  0.01828900  0.02547700  1
  C  579  1  0.71569200  0.99655200  0.98776700  1
  C  582  1  0.75363000  0.94758000  0.03503200  1
  C  588  1  0.25624500  0.01734900  0.02524600  1
  C  589  1  0.27145000  0.99372200  0.03926400  1
  C  590  1  0.28752300  0.97001800  0.02605300  1
  C  592  1  0.27298700  0.99268000  0.98831200  1
  C  595  1  0.23833100  0.04415100  0.03549100  1
  N  396  1  0.14517400  0.17180000  0.26017500  1
  N  398  1  0.11905700  0.13114700  0.28003000  1
  N  404  1  0.10365400  0.18435400  0.28603500  1
  N  405  1  0.18135300  0.09701500  0.24345500  1
  N  409  1  0.83985800  0.81377600  0.26193900  1
  N  411  1  0.86857300  0.85586500  0.27743000  1
  N  417  1  0.88350000  0.80304600  0.28601000  1
  N  418  1  0.80220500  0.88588800  0.24227700  1
  N  422  1  0.81560000  0.14671800  0.76082000  1
  N  424  1  0.85714000  0.11934500  0.77852000  1
  N  430  1  0.80409300  0.10401300  0.78567800  1
  N  431  1  0.88878400  0.18459100  0.74340300  1
  N  435  1  0.17511800  0.84000900  0.76230400  1
  N  437  1  0.13299000  0.86872600  0.77773100  1
  N  443  1  0.18579100  0.88367700  0.78635800  1
  N  444  1  0.10307300  0.80231300  0.74256200  1
  N  448  1  0.85504700  0.82000300  0.77158200  1
  N  450  1  0.86566400  0.85905600  0.74313800  1
  N  456  1  0.89010800  0.81068400  0.73873500  1
  N  457  1  0.81185300  0.88978800  0.78897200  1
  N  461  1  0.13605500  0.16848200  0.77089700  1
  N  463  1  0.12253600  0.12805100  0.74439000  1
  N  469  1  0.09932000  0.17684100  0.73898300  1
  N  470  1  0.17819600  0.09854200  0.78942100  1
  N  474  1  0.16831200  0.85274000  0.27092100  1
  N  476  1  0.12792300  0.86635000  0.24439500  1
  N  482  1  0.17671300  0.88957800  0.23908800  1
  N  483  1  0.09833200  0.81056600  0.28928500  1
  N  487  1  0.81984300  0.13379300  0.27156700  1
  N  489  1  0.85896700  0.12321400  0.24317400  1
  N  495  1  0.81059200  0.09878600  0.23866800  1
  N  496  1  0.88960900  0.17693100  0.28911300  1
  N  500  1  0.97043000  0.47812600  0.35101600  1
  N  502  1  0.01496100  0.47624100  0.32671200  1
  N  508  1  0.99028100  0.42892900  0.34042300  1
  N  509  1  0.99569200  0.55895700  0.33715000  1
  N  513  1  0.51067300  0.97071300  0.85102000  1
  N  515  1  0.51249200  0.01521000  0.82668000  1
  N  521  1  0.55984600  0.99055200  0.84034000  1
  N  522  1  0.42979700  0.99595400  0.83726500  1
  N  526  1  0.01860300  0.47813100  0.67723400  1
  N  528  1  0.97355600  0.47624300  0.70096000  1
  N  534  1  0.99856500  0.42892000  0.68757600  1
  N  535  1  0.99300100  0.55898600  0.69070300  1
  N  539  1  0.47803900  0.97040200  0.17721400  1
  N  541  1  0.47617500  0.01535700  0.20104500  1
  N  547  1  0.42884000  0.99036600  0.18765600  1
  N  548  1  0.55890800  0.99598500  0.19065400  1
  N  552  1  0.01783900  0.28910000  0.50124500  1
  N  554  1  0.97378400  0.25654600  0.50039300  1
  N  560  1  0.99747200  0.27480400  0.46399900  1
  N  561  1  0.99399800  0.27080000  0.56336600  1
  N  565  1  0.96989100  0.70073300  0.50108600  1
  N  567  1  0.01513200  0.73163700  0.50029200  1
  N  573  1  0.99073800  0.71430300  0.46391000  1
  N  574  1  0.99441000  0.71793500  0.56324800  1
  N  578  1  0.69939700  0.01809400  0.00087600  1
  N  580  1  0.73259900  0.97452200  0.00010000  1
  N  586  1  0.71399700  0.99786000  0.96367700  1
  N  587  1  0.71792800  0.99457000  0.06303800  1
  N  591  1  0.28778700  0.97012200  0.00145400  1
  N  593  1  0.25757400  0.01582400  0.00059300  1
  N  599  1  0.27450900  0.99108700  0.96423500  1
  N  600  1  0.27080200  0.99489600  0.06357800  1
