# generated using pymatgen
data_H14C16N3
_symmetry_space_group_name_H-M   'P 1'
_cell_length_a   20.31645000
_cell_length_b   20.31645000
_cell_length_c   31.52610000
_cell_angle_alpha   90.00000000
_cell_angle_beta   90.00000000
_cell_angle_gamma   120.00000000
_symmetry_Int_Tables_number   1
_chemical_formula_structural   H14C16N3
_chemical_formula_sum   'H84 C96 N18'
_cell_volume   11269.28929531
_cell_formula_units_Z   6
loop_
 _symmetry_equiv_pos_site_id
 _symmetry_equiv_pos_as_xyz
  1  'x, y, z'
loop_
 _atom_site_type_symbol
 _atom_site_label
 _atom_site_symmetry_multiplicity
 _atom_site_fract_x
 _atom_site_fract_y
 _atom_site_fract_z
 _atom_site_occupancy
  C  1  1  0.43063650  0.47976050  0.97561350  1
  C  2  1  0.42925100  0.54271200  0.95653100  1
  C  3  1  0.42237200  0.54520600  0.91176550  1
  C  4  1  0.42199100  0.48771400  0.88665950  1
  C  5  1  0.42620700  0.42663900  0.90478100  1
  C  6  1  0.42816600  0.42113600  0.94965600  1
  C  7  1  0.43469100  0.60120200  0.98308000  1
  C  8  1  0.42623950  0.35788350  0.96956550  1
  C  10  1  0.43350450  0.47485250  0.02071700  1
  C  11  1  0.43168750  0.53106850  0.04682600  1
  C  12  1  0.42506900  0.52068300  0.09150600  1
  C  13  1  0.43610000  0.46373900  0.10979600  1
  C  14  1  0.44607400  0.41226200  0.08454550  1
  C  15  1  0.43696150  0.41316950  0.03989050  1
  C  16  1  0.43445950  0.59486250  0.02730200  1
  C  18  1  0.43138200  0.35439200  0.01366150  1
  C  31  1  0.90675500  0.43020300  0.32446800  1
  C  32  1  0.97124100  0.42735100  0.30900500  1
  C  33  1  0.98017000  0.42144000  0.26473400  1
  C  34  1  0.92236850  0.41294950  0.23686500  1
  C  35  1  0.85679450  0.41244050  0.25162100  1
  C  36  1  0.84965700  0.42323800  0.29556900  1
  C  37  1  0.02591650  0.43232250  0.33838850  1
  C  38  1  0.78871550  0.43071650  0.31139700  1
  C  40  1  0.90123050  0.44369650  0.36848600  1
  C  41  1  0.96159750  0.45721150  0.39657400  1
  C  42  1  0.96221650  0.48358350  0.43842500  1
  C  43  1  0.89619800  0.48126700  0.45408800  1
  C  44  1  0.83232250  0.46041850  0.42808550  1
  C  45  1  0.83783450  0.44838750  0.38403500  1
  C  46  1  0.02164700  0.44780900  0.38120200  1
  C  48  1  0.78305000  0.44308500  0.35455500  1
  C  61  1  0.45198350  0.95418450  0.64662150  1
  C  62  1  0.40283800  0.90632800  0.61400000  1
  C  63  1  0.42628600  0.92144500  0.57090050  1
  C  64  1  0.49630750  0.98601550  0.56080900  1
  C  65  1  0.54532150  0.03466450  0.59248250  1
  C  66  1  0.52432900  0.01723700  0.63581150  1
  C  67  1  0.33026000  0.84621100  0.62544400  1
  C  68  1  0.57243000  0.06256500  0.66890450  1
  C  70  1  0.42721950  0.94107250  0.68981300  1
  C  71  1  0.35464100  0.87873100  0.70082250  1
  C  72  1  0.33114450  0.86589150  0.74404950  1
  C  73  1  0.37379050  0.92301250  0.77400900  1
  C  74  1  0.44212650  0.98877350  0.76281700  1
  C  75  1  0.47305750  0.99355350  0.72174200  1
  C  76  1  0.30690350  0.83254450  0.66782950  1
  C  78  1  0.54674250  0.05203050  0.71088100  1
  C  91  1  0.48814100  0.18692600  0.83950100  1
  C  92  1  0.50035100  0.25001900  0.86381850  1
  C  93  1  0.49010650  0.30793350  0.84595650  1
  C  94  1  0.46754750  0.30107850  0.80316000  1
  C  95  1  0.45461450  0.23794350  0.77803500  1
  C  96  1  0.46534450  0.17966750  0.79654600  1
  C  103  1  0.45192500  0.11219200  0.77103850  1
  C  106  1  0.49933250  0.37356350  0.87154250  1
  C  109  1  0.56650150  0.34242150  0.16595500  1
  C  110  1  0.61062700  0.33096100  0.19615600  1
  C  111  1  0.68121300  0.33847400  0.18485250  1
  C  112  1  0.70557150  0.35609950  0.14238800  1
  C  113  1  0.66281550  0.36931250  0.11155450  1
  C  114  1  0.59173050  0.36238650  0.12357650  1
  C  121  1  0.54713100  0.38020800  0.09272850  1
  C  124  1  0.73227250  0.33370650  0.21701100  1
  C  127  1  0.72584250  0.34884050  0.51677200  1
  C  128  1  0.70790800  0.29782700  0.55068250  1
  C  129  1  0.63999350  0.22703650  0.55051750  1
  C  130  1  0.59110600  0.20847100  0.51528300  1
  C  131  1  0.60746250  0.25941850  0.48098000  1
  C  132  1  0.67650700  0.33116200  0.48160950  1
  C  139  1  0.69436600  0.38796400  0.44705900  1
  C  142  1  0.61571800  0.17577800  0.58791800  1
  C  145  1  0.30199700  0.73321000  0.82902850  1
  C  146  1  0.32239050  0.70318750  0.86344300  1
  C  147  1  0.32207650  0.63390850  0.85949050  1
  C  148  1  0.30118350  0.59582850  0.82016100  1
  C  149  1  0.27860900  0.62401200  0.78532800  1
  C  150  1  0.27970500  0.69466000  0.78966300  1
  C  157  1  0.25442200  0.72542700  0.75412000  1
  C  160  1  0.33921500  0.59867300  0.89598950  1
  C  163  1  0.29085650  0.53957550  0.18631900  1
  C  164  1  0.24149900  0.53026700  0.21991250  1
  C  165  1  0.16805200  0.51824100  0.21179850  1
  C  166  1  0.14572800  0.51673400  0.16930050  1
  C  167  1  0.19445450  0.52610050  0.13490350  1
  C  168  1  0.26859500  0.53762200  0.14357400  1
  C  175  1  0.32007250  0.54385950  0.10816800  1
  C  178  1  0.11452200  0.50811900  0.24656000  1
  C  181  1  0.17308800  0.63326900  0.50697100  1
  C  182  1  0.24205700  0.68092000  0.52779200  1
  C  183  1  0.29881450  0.74773250  0.50815700  1
  C  184  1  0.28442550  0.76553950  0.46722600  1
  C  185  1  0.21483000  0.71919600  0.44590550  1
  C  186  1  0.15819450  0.65103450  0.46596250  1
  C  193  1  0.08487400  0.59973800  0.44399800  1
  C  196  1  0.37096350  0.80098750  0.53035950  1
  H  9  1  0.41784300  0.48997700  0.85436550  1
  H  17  1  0.43613000  0.45919800  0.14214700  1
  H  19  1  0.43843600  0.63882100  0.04501600  1
  H  20  1  0.43874250  0.64954150  0.97077700  1
  H  21  1  0.42815650  0.30658450  0.02631100  1
  H  22  1  0.42103850  0.31290550  0.95239250  1
  H  24  1  0.38156350  0.31958650  0.88327850  1
  H  26  1  0.43038000  0.31013800  0.10339950  1
  H  28  1  0.43624900  0.61402600  0.12129400  1
  H  30  1  0.45801100  0.65388700  0.89440200  1
  H  39  1  0.92919600  0.40926800  0.20491000  1
  H  47  1  0.89636400  0.49945800  0.48439000  1
  H  49  1  0.06423700  0.45347700  0.40079750  1
  H  50  1  0.07098950  0.42673250  0.32904050  1
  H  51  1  0.73913400  0.45079300  0.36368850  1
  H  52  1  0.74795550  0.42895950  0.29170650  1
  H  54  1  0.79639100  0.45300100  0.22227400  1
  H  56  1  0.76362200  0.50380900  0.43431550  1
  H  58  1  0.05403000  0.49181100  0.46838100  1
  H  60  1  0.05960000  0.39014200  0.25590150  1
  H  69  1  0.51124250  0.99871050  0.52958400  1
  H  77  1  0.35189600  0.91927700  0.80373750  1
  H  79  1  0.25288100  0.78965600  0.67383600  1
  H  80  1  0.29221850  0.81183450  0.60307200  1
  H  81  1  0.58269150  0.08862050  0.73333900  1
  H  82  1  0.62622250  0.10571650  0.66294750  1
  H  84  1  0.65920350  0.10155950  0.58668450  1
  H  86  1  0.52236450  0.07513250  0.79803250  1
  H  88  1  0.21761950  0.80391750  0.74482000  1
  H  90  1  0.32970850  0.87773950  0.53747750  1
  H  97  1  0.49529400  0.14586500  0.85389300  1
  H  98  1  0.51570450  0.25273950  0.89495650  1
  H  99  1  0.45948400  0.34277500  0.79022400  1
  H  101  1  0.42496300  0.27669500  0.72558450  1
  H  102  1  0.42093300  0.19440600  0.71809550  1
  H  104  1  0.48709600  0.13463300  0.74267200  1
  H  105  1  0.39223750  0.08402050  0.76128750  1
  H  107  1  0.54010200  0.42606500  0.85554400  1
  H  108  1  0.52352650  0.37385750  0.90253550  1
  H  115  1  0.51675250  0.33848250  0.17586100  1
  H  116  1  0.59180000  0.31931800  0.22682750  1
  H  117  1  0.75719550  0.36232650  0.13421700  1
  H  119  1  0.74182000  0.39417600  0.06483150  1
  H  120  1  0.66798100  0.40104400  0.04926200  1
  H  122  1  0.53965150  0.34649250  0.06431450  1
  H  123  1  0.58332050  0.44023950  0.08446550  1
  H  125  1  0.74460100  0.28932400  0.20733400  1
  H  126  1  0.70424900  0.31725800  0.24790300  1
  H  133  1  0.77438950  0.40036850  0.51900200  1
  H  134  1  0.74393800  0.31381300  0.57612300  1
  H  135  1  0.54096850  0.15775950  0.51547950  1
  H  137  1  0.50817550  0.18841750  0.45005600  1
  H  138  1  0.56093800  0.26986000  0.42534850  1
  H  140  1  0.64972000  0.40309800  0.44821300  1
  H  141  1  0.68805850  0.35853650  0.41712200  1
  H  143  1  0.56076200  0.16783400  0.59828200  1
  H  144  1  0.65521850  0.20296250  0.61426150  1
  H  151  1  0.30163300  0.78277200  0.83365800  1
  H  152  1  0.33667450  0.73197950  0.89163950  1
  H  153  1  0.29984050  0.54492250  0.81740050  1
  H  155  1  0.25510850  0.53278050  0.74764050  1
  H  156  1  0.23730600  0.59514500  0.72465750  1
  H  158  1  0.19413750  0.68454850  0.74912000  1
  H  159  1  0.28468800  0.72452400  0.72574300  1
  H  161  1  0.29251250  0.54004550  0.89906950  1
  H  162  1  0.34076900  0.62774100  0.92541450  1
  H  169  1  0.34312750  0.54695950  0.19365600  1
  H  170  1  0.25936600  0.53150000  0.25039300  1
  H  171  1  0.09248350  0.50833950  0.16335950  1
  H  173  1  0.11649550  0.51509850  0.09020050  1
  H  174  1  0.19716750  0.52878150  0.06980300  1
  H  176  1  0.32707800  0.59035500  0.08771050  1
  H  177  1  0.28890050  0.49083950  0.09020200  1
  H  179  1  0.09748500  0.55102600  0.24245700  1
  H  180  1  0.14259150  0.51855350  0.27736950  1
  H  187  1  0.13339300  0.58586300  0.52259900  1
  H  188  1  0.25017400  0.66674500  0.55770000  1
  H  189  1  0.32513900  0.81449000  0.45308200  1
  H  191  1  0.24512100  0.78977200  0.39438350  1
  H  192  1  0.15877500  0.71544800  0.39097500  1
  H  194  1  0.10024000  0.58932300  0.41255400  1
  H  195  1  0.05556500  0.63218500  0.44005050  1
  H  197  1  0.41857800  0.80714500  0.51126100  1
  H  198  1  0.37415750  0.77661850  0.56070100  1
  N  23  1  0.42585550  0.37269450  0.87607200  1
  N  25  1  0.47056550  0.36662150  0.10594950  1
  N  27  1  0.39758000  0.55704700  0.11900400  1
  N  29  1  0.41262600  0.60042500  0.88939650  1
  N  53  1  0.80487800  0.40734600  0.22001500  1
  N  55  1  0.76916000  0.46062800  0.44752350  1
  N  57  1  0.02951750  0.52461350  0.46324200  1
  N  59  1  0.04694750  0.43020650  0.24513700  1
  N  83  1  0.61065750  0.10163150  0.57775850  1
  N  85  1  0.46630050  0.05290350  0.79004850  1
  N  87  1  0.26247500  0.80249700  0.75888650  1
  N  89  1  0.38049450  0.87825550  0.53625300  1
  N  100  1  0.43194800  0.23614700  0.73713100  1
  N  118  1  0.69296900  0.38946400  0.07184600  1
  N  136  1  0.55494350  0.23740250  0.44929500  1
  N  154  1  0.25585750  0.58100550  0.74935850  1
  N  172  1  0.16733700  0.52308700  0.09496200  1
  N  190  1  0.20557900  0.74277300  0.40699850  1
