# generated using pymatgen
data_H13C15
_symmetry_space_group_name_H-M   'P 1'
_cell_length_a   31.72970000
_cell_length_b   31.74360000
_cell_length_c   31.75760000
_cell_angle_alpha   89.99320000
_cell_angle_beta   89.99660000
_cell_angle_gamma   89.99660000
_symmetry_Int_Tables_number   1
_chemical_formula_structural   H13C15
_chemical_formula_sum   'H312 C360'
_cell_volume   31986.72772659
_cell_formula_units_Z   24
loop_
 _symmetry_equiv_pos_site_id
 _symmetry_equiv_pos_as_xyz
  1  'x, y, z'
loop_
 _atom_site_type_symbol
 _atom_site_label
 _atom_site_symmetry_multiplicity
 _atom_site_fract_x
 _atom_site_fract_y
 _atom_site_fract_z
 _atom_site_occupancy
  H  31  1  0.05877900  0.61625000  0.30212000  1
  H  32  1  0.11848900  0.64960800  0.27466000  1
  H  33  1  0.01647800  0.73253200  0.35185200  1
  H  34  1  0.07765000  0.76575800  0.32479900  1
  H  35  1  0.22039200  0.68646600  0.22234500  1
  H  36  1  0.21924800  0.78353400  0.31299200  1
  H  37  1  0.31360300  0.78114100  0.21946400  1
  H  38  1  0.27087300  0.88540700  0.34869600  1
  H  39  1  0.23622600  0.67441500  0.08026300  1
  H  40  1  0.26892000  0.64668800  0.01919800  1
  H  41  1  0.38593500  0.69565000  0.06052400  1
  H  42  1  0.35307300  0.72383700  0.12017900  1
  H  43  1  0.29830600  0.94493600  0.38196400  1
  H  44  1  0.35086000  0.98579200  0.26644100  1
  H  45  1  0.32393600  0.92446700  0.23327500  1
  H  46  1  0.24560500  0.73364400  0.13795100  1
  H  47  1  0.31426800  0.69670000  0.18586600  1
  H  48  1  0.13657500  0.75673900  0.26600600  1
  H  49  1  0.18361200  0.68821100  0.30424800  1
  H  50  1  0.26525200  0.86508800  0.24185200  1
  H  51  1  0.30154600  0.82002000  0.31272100  1
  H  82  1  0.05878200  0.48312700  0.59826200  1
  H  83  1  0.11850100  0.44977500  0.62570800  1
  H  84  1  0.01651800  0.36685100  0.54850400  1
  H  85  1  0.07770200  0.33363200  0.57553700  1
  H  86  1  0.22037000  0.41298400  0.67799000  1
  H  87  1  0.21934200  0.31587500  0.58738700  1
  H  88  1  0.31362400  0.31834200  0.68097100  1
  H  89  1  0.27093700  0.21406200  0.55171300  1
  H  90  1  0.23619600  0.42503900  0.82014500  1
  H  91  1  0.26889600  0.45273700  0.88121900  1
  H  92  1  0.38590300  0.40375700  0.83986000  1
  H  93  1  0.35303500  0.37560200  0.78019800  1
  H  94  1  0.29834800  0.15452100  0.51843500  1
  H  95  1  0.35088600  0.11362800  0.63394900  1
  H  96  1  0.32397700  0.17495900  0.66712600  1
  H  97  1  0.24559100  0.36579500  0.76243700  1
  H  98  1  0.31422100  0.40281000  0.71453100  1
  H  99  1  0.13664000  0.34262800  0.63427800  1
  H  100  1  0.18364100  0.41125000  0.59615900  1
  H  101  1  0.26525900  0.23435000  0.65853600  1
  H  102  1  0.30167200  0.27942800  0.58773200  1
  H  133  1  0.84198100  0.61622900  0.59826600  1
  H  134  1  0.78225400  0.64957100  0.62570100  1
  H  135  1  0.88423800  0.73251000  0.54848200  1
  H  136  1  0.82304600  0.76572300  0.57550500  1
  H  137  1  0.68033400  0.68636200  0.67794200  1
  H  138  1  0.68144700  0.78348400  0.58733200  1
  H  139  1  0.58713400  0.78105700  0.68089700  1
  H  140  1  0.62984800  0.88535700  0.55167200  1
  H  141  1  0.66453800  0.67435500  0.82007800  1
  H  142  1  0.63184900  0.64664800  0.88115800  1
  H  143  1  0.51483600  0.69563200  0.83983100  1
  H  144  1  0.54769200  0.72380100  0.78015800  1
  H  145  1  0.60241000  0.94489300  0.51840200  1
  H  146  1  0.54986000  0.98573000  0.63392800  1
  H  147  1  0.57679100  0.92439600  0.66709500  1
  H  148  1  0.65513700  0.73360000  0.76235900  1
  H  149  1  0.58649400  0.69657900  0.71449200  1
  H  150  1  0.76409500  0.75672700  0.63422900  1
  H  151  1  0.71711700  0.68808400  0.59613900  1
  H  152  1  0.63556500  0.86502400  0.65846400  1
  H  153  1  0.59906000  0.81997900  0.58770400  1
  H  184  1  0.84198100  0.48314700  0.30213900  1
  H  185  1  0.78227300  0.44979900  0.27468700  1
  H  186  1  0.88427200  0.36686000  0.35188800  1
  H  187  1  0.82309900  0.33364100  0.32484400  1
  H  188  1  0.68038100  0.41298200  0.22236400  1
  H  189  1  0.68150300  0.31586300  0.31297800  1
  H  190  1  0.58716900  0.31831000  0.21944100  1
  H  191  1  0.62986700  0.21399400  0.34865900  1
  H  192  1  0.66455100  0.42499200  0.08023000  1
  H  193  1  0.63184900  0.45269000  0.01915400  1
  H  194  1  0.51484900  0.40370200  0.06051600  1
  H  195  1  0.54772000  0.37554300  0.12018300  1
  H  196  1  0.60242300  0.15446500  0.38193000  1
  H  197  1  0.54985700  0.11364500  0.26641600  1
  H  198  1  0.57679700  0.17496900  0.23324400  1
  H  199  1  0.65520000  0.36581200  0.13797000  1
  H  200  1  0.58647600  0.40269900  0.18584100  1
  H  201  1  0.76418600  0.34266400  0.26605300  1
  H  202  1  0.71713200  0.41120300  0.30425200  1
  H  203  1  0.63553400  0.23432800  0.24183700  1
  H  204  1  0.59915500  0.27939500  0.31265700  1
  H  235  1  0.84205000  0.69790200  0.38354500  1
  H  236  1  0.78232000  0.72530400  0.35018000  1
  H  237  1  0.88442000  0.64813500  0.26734800  1
  H  238  1  0.82323500  0.67514300  0.23410800  1
  H  239  1  0.68037500  0.77739900  0.31339400  1
  H  240  1  0.68156600  0.68679000  0.21629700  1
  H  241  1  0.58710900  0.78025100  0.21881900  1
  H  242  1  0.62985100  0.65109900  0.11447300  1
  H  243  1  0.66447200  0.91948700  0.32554900  1
  H  244  1  0.63179000  0.98057700  0.35327300  1
  H  245  1  0.51475700  0.93923700  0.30437100  1
  H  246  1  0.54761000  0.87955100  0.27618800  1
  H  247  1  0.60241600  0.61785900  0.05495000  1
  H  248  1  0.54983800  0.73345800  0.01420700  1
  H  249  1  0.57675600  0.76659000  0.07553200  1
  H  250  1  0.65509300  0.86181000  0.26633600  1
  H  251  1  0.58644400  0.81382600  0.30322500  1
  H  252  1  0.76422700  0.73393800  0.24313500  1
  H  253  1  0.71723000  0.69548500  0.31155800  1
  H  254  1  0.63540100  0.75800700  0.13487900  1
  H  255  1  0.59928400  0.68697900  0.17986100  1
  H  286  1  0.84210400  0.40143900  0.51682700  1
  H  287  1  0.78237700  0.37402600  0.55018700  1
  H  288  1  0.88441700  0.45124800  0.63302100  1
  H  289  1  0.82323200  0.42423600  0.66625500  1
  H  290  1  0.68039700  0.32193400  0.58694600  1
  H  291  1  0.68160400  0.41254100  0.68404300  1
  H  292  1  0.58713400  0.31910400  0.68153700  1
  H  293  1  0.62983900  0.44825500  0.78586900  1
  H  294  1  0.66449400  0.17985900  0.57478100  1
  H  295  1  0.63180200  0.11878100  0.54705200  1
  H  296  1  0.51477900  0.16013500  0.59599000  1
  H  297  1  0.54764100  0.21980500  0.62418500  1
  H  298  1  0.60238500  0.48149500  0.84538700  1
  H  299  1  0.54981900  0.36589700  0.88613100  1
  H  300  1  0.57675900  0.33276100  0.82481200  1
  H  301  1  0.65512700  0.23753700  0.63400100  1
  H  302  1  0.58646000  0.28551900  0.59713900  1
  H  303  1  0.76424000  0.36544300  0.65724400  1
  H  304  1  0.71727700  0.40381300  0.58875700  1
  H  305  1  0.63546800  0.34137300  0.76548600  1
  H  306  1  0.59922700  0.41231900  0.72047700  1
  H  337  1  0.05869100  0.40145700  0.38354800  1
  H  338  1  0.11843500  0.37408800  0.35018200  1
  H  339  1  0.01634100  0.45128100  0.26735700  1
  H  340  1  0.07754600  0.42431500  0.23412200  1
  H  341  1  0.22036300  0.32212200  0.31350800  1
  H  342  1  0.21924600  0.41264100  0.21630700  1
  H  343  1  0.31365900  0.31913600  0.21895100  1
  H  344  1  0.27094500  0.44828000  0.11453400  1
  H  345  1  0.23624400  0.17994400  0.32563100  1
  H  346  1  0.26893000  0.11883100  0.35331800  1
  H  347  1  0.38595100  0.16018700  0.30437700  1
  H  348  1  0.35309500  0.21989500  0.27623000  1
  H  349  1  0.29837500  0.48151900  0.05499700  1
  H  350  1  0.35091100  0.36591200  0.01424900  1
  H  351  1  0.32399000  0.33277600  0.07558700  1
  H  352  1  0.24562000  0.23767200  0.26644900  1
  H  353  1  0.31430500  0.28559900  0.30333000  1
  H  354  1  0.13659100  0.36555900  0.24313600  1
  H  355  1  0.18351300  0.40394500  0.31163500  1
  H  356  1  0.26526200  0.34143600  0.13493600  1
  H  357  1  0.30166000  0.41231100  0.17991800  1
  H  388  1  0.05867000  0.69792100  0.51680700  1
  H  389  1  0.11839100  0.72532700  0.55017200  1
  H  390  1  0.01632400  0.64811100  0.63300800  1
  H  391  1  0.07750400  0.67511800  0.66624100  1
  H  392  1  0.22034000  0.77740600  0.58693500  1
  H  393  1  0.21914200  0.68680900  0.68406300  1
  H  394  1  0.31356800  0.78029200  0.68154900  1
  H  395  1  0.27089200  0.65113900  0.78591400  1
  H  396  1  0.23623000  0.91953600  0.57483200  1
  H  397  1  0.26892600  0.98062000  0.54710000  1
  H  398  1  0.38595100  0.93923600  0.59600300  1
  H  399  1  0.35308500  0.87955700  0.62419400  1
  H  400  1  0.29835000  0.61789600  0.84542900  1
  H  401  1  0.35093600  0.73348700  0.88613400  1
  H  402  1  0.32399300  0.76662800  0.82481000  1
  H  403  1  0.24562000  0.86183900  0.63406200  1
  H  404  1  0.31423000  0.81385600  0.59709900  1
  H  405  1  0.13650500  0.73387600  0.65724300  1
  H  406  1  0.18348900  0.69556400  0.58873900  1
  H  407  1  0.26528300  0.75802600  0.76549700  1
  H  408  1  0.30148200  0.68705300  0.72050900  1
  H  413  1  0.01777100  0.58543100  0.35432300  1
  H  414  1  0.98927500  0.59387900  0.30749100  1
  H  417  1  0.90917000  0.59290400  0.30820400  1
  H  418  1  0.88128100  0.58640000  0.35528500  1
  H  419  1  0.95125400  0.66393600  0.29697300  1
  H  420  1  0.94964900  0.70296400  0.33597800  1
  H  423  1  0.88299600  0.64571900  0.41439500  1
  H  424  1  0.91157800  0.69251600  0.40595200  1
  H  426  1  0.92130100  0.58136400  0.41882100  1
  H  427  1  0.97924600  0.58100700  0.41858800  1
  H  429  1  0.99169500  0.69165700  0.40704600  1
  H  430  1  0.01948100  0.64449100  0.41355500  1
  H  435  1  0.01778100  0.51395200  0.54604600  1
  H  436  1  0.98928100  0.50549900  0.59287900  1
  H  439  1  0.90917900  0.50647100  0.59216900  1
  H  440  1  0.88128800  0.51297100  0.54509100  1
  H  441  1  0.95127200  0.43544000  0.60339800  1
  H  442  1  0.94968100  0.39641200  0.56439400  1
  H  445  1  0.88301800  0.45364900  0.48598200  1
  H  446  1  0.91161600  0.40685700  0.49442100  1
  H  448  1  0.92131300  0.51801200  0.48155700  1
  H  449  1  0.97925600  0.51837400  0.48178000  1
  H  451  1  0.99172700  0.40772500  0.49331800  1
  H  452  1  0.01950300  0.45489400  0.48681100  1
  H  457  1  0.88298000  0.58541100  0.54604600  1
  H  458  1  0.91148000  0.59386100  0.59287700  1
  H  461  1  0.99158200  0.59288900  0.59216000  1
  H  462  1  0.01947200  0.58639500  0.54508000  1
  H  463  1  0.94948600  0.66392000  0.60338300  1
  H  464  1  0.95108000  0.70295100  0.56437400  1
  H  467  1  0.01774500  0.64572300  0.48596300  1
  H  468  1  0.98915200  0.69251400  0.49440200  1
  H  470  1  0.97945100  0.58136000  0.48154600  1
  H  471  1  0.92150900  0.58099800  0.48178000  1
  H  473  1  0.90903400  0.69164500  0.49330500  1
  H  474  1  0.88125900  0.64447800  0.48680300  1
  H  479  1  0.88298600  0.51396000  0.35434000  1
  H  480  1  0.91148000  0.50551600  0.30750400  1
  H  483  1  0.99158500  0.50649100  0.30820700  1
  H  484  1  0.01947600  0.51298800  0.35528200  1
  H  485  1  0.94950100  0.43545900  0.29698800  1
  H  486  1  0.95110200  0.39642700  0.33599500  1
  H  489  1  0.01776200  0.45365900  0.41439700  1
  H  490  1  0.98917400  0.40686500  0.40596500  1
  H  492  1  0.97945700  0.51801800  0.41882200  1
  H  493  1  0.92151500  0.51837500  0.41859900  1
  H  495  1  0.90906000  0.40773000  0.40707200  1
  H  496  1  0.88127500  0.45489300  0.41357700  1
  H  501  1  0.41603600  0.64341600  0.01791000  1
  H  502  1  0.40730900  0.69120800  0.99103600  1
  H  505  1  0.40595400  0.69293800  0.91115000  1
  H  506  1  0.41221300  0.64694100  0.88154600  1
  H  507  1  0.33634700  0.70295300  0.95407500  1
  H  508  1  0.29711800  0.66409800  0.95270600  1
  H  511  1  0.35190000  0.58662400  0.88353100  1
  H  512  1  0.30628100  0.59478600  0.91400100  1
  H  514  1  0.41768100  0.58203900  0.91814900  1
  H  515  1  0.42016100  0.58021800  0.97587700  1
  H  517  1  0.30987100  0.59166300  0.99382500  1
  H  518  1  0.35816900  0.58500400  0.01965000  1
  H  523  1  0.48473500  0.45595000  0.01790900  1
  H  524  1  0.49345900  0.40816100  0.99103300  1
  H  527  1  0.49479800  0.40644700  0.91114700  1
  H  528  1  0.48853600  0.45245000  0.88154300  1
  H  529  1  0.56441400  0.39642500  0.95405700  1
  H  530  1  0.60364200  0.43528100  0.95267000  1
  H  533  1  0.54884500  0.51276400  0.88350900  1
  H  534  1  0.59447100  0.50459600  0.91396300  1
  H  536  1  0.48307100  0.51734200  0.91814400  1
  H  537  1  0.48060300  0.51915700  0.97587200  1
  H  539  1  0.59089400  0.50770900  0.99379000  1
  H  540  1  0.54260200  0.51436200  0.01962800  1
  H  545  1  0.41601400  0.45597300  0.88247200  1
  H  546  1  0.40728100  0.40818100  0.90934800  1
  H  549  1  0.40593800  0.40644900  0.98923400  1
  H  550  1  0.41221000  0.45244500  0.01883700  1
  H  551  1  0.33632500  0.39645400  0.94632400  1
  H  552  1  0.29710100  0.43532100  0.94770700  1
  H  555  1  0.35190700  0.51277600  0.01686800  1
  H  556  1  0.30628000  0.50462900  0.98641400  1
  H  558  1  0.41768100  0.51734600  0.98223600  1
  H  559  1  0.42015200  0.51916700  0.92450500  1
  H  561  1  0.30985800  0.50775100  0.90658600  1
  H  562  1  0.35815000  0.51439800  0.88074600  1
  H  567  1  0.48473500  0.64340800  0.88245800  1
  H  568  1  0.49346800  0.69119900  0.90932500  1
  H  571  1  0.49482300  0.69292200  0.98921100  1
  H  572  1  0.48856100  0.64692400  0.01882200  1
  H  573  1  0.56443300  0.70292300  0.94628000  1
  H  574  1  0.60365800  0.66405700  0.94765500  1
  H  577  1  0.54886700  0.58659300  0.01684400  1
  H  578  1  0.59448700  0.59474600  0.98637300  1
  H  580  1  0.48308400  0.58202900  0.98223100  1
  H  581  1  0.48060300  0.58021200  0.92450000  1
  H  583  1  0.59089400  0.59163100  0.90654700  1
  H  584  1  0.54259600  0.58499000  0.88072400  1
  H  589  1  0.35183100  0.98303500  0.41325000  1
  H  590  1  0.30623300  0.01355100  0.40511100  1
  H  593  1  0.30988600  0.09341500  0.40829100  1
  H  594  1  0.35820700  0.11920700  0.41494500  1
  H  595  1  0.29709400  0.05232800  0.33586100  1
  H  596  1  0.33632200  0.05371800  0.29701600  1
  H  599  1  0.41604900  0.11748300  0.35656500  1
  H  600  1  0.40730300  0.09065300  0.30877000  1
  H  602  1  0.42016800  0.07533600  0.41969800  1
  H  603  1  0.41764000  0.01758900  0.41783200  1
  H  605  1  0.40590000  0.01073500  0.30697700  1
  H  606  1  0.41215300  0.98106300  0.35292400  1
  H  611  1  0.54888900  0.98300400  0.48712000  1
  H  612  1  0.59449000  0.01350800  0.49525500  1
  H  615  1  0.59084700  0.09337400  0.49207200  1
  H  616  1  0.54252900  0.11917700  0.48541500  1
  H  617  1  0.60363300  0.05227200  0.56450600  1
  H  618  1  0.56440800  0.05366000  0.60334900  1
  H  621  1  0.48468800  0.11745700  0.54379500  1
  H  622  1  0.49342700  0.09061300  0.59159100  1
  H  624  1  0.48056500  0.07532000  0.48066300  1
  H  625  1  0.48308000  0.01757300  0.48253400  1
  H  627  1  0.49482300  0.01069800  0.59338900  1
  H  628  1  0.48856700  0.98103500  0.54744300  1
  H  633  1  0.54889600  0.11637000  0.41322400  1
  H  634  1  0.59449000  0.08585100  0.40507900  1
  H  637  1  0.59083700  0.00598600  0.40826300  1
  H  638  1  0.54251700  0.98019700  0.41493000  1
  H  639  1  0.60362400  0.04708600  0.33582700  1
  H  640  1  0.56439500  0.04570600  0.29699200  1
  H  643  1  0.48466900  0.98193200  0.35656200  1
  H  644  1  0.49341100  0.00877000  0.30876300  1
  H  646  1  0.48055900  0.02406900  0.41969100  1
  H  647  1  0.48308400  0.08181500  0.41782300  1
  H  649  1  0.49481700  0.08868900  0.30696300  1
  H  650  1  0.48857000  0.11835200  0.35291100  1
  H  655  1  0.35185000  0.11639400  0.48713600  1
  H  656  1  0.30624400  0.08589300  0.49528600  1
  H  659  1  0.30988000  0.00602500  0.49210500  1
  H  660  1  0.35819400  0.98021900  0.48544000  1
  H  661  1  0.29710500  0.04711700  0.56453700  1
  H  662  1  0.33633500  0.04571600  0.60337300  1
  H  665  1  0.41604500  0.98192600  0.54380700  1
  H  666  1  0.40731200  0.00876000  0.59160300  1
  H  668  1  0.42016500  0.02407200  0.48067200  1
  H  669  1  0.41765000  0.08181900  0.48253900  1
  H  671  1  0.40592200  0.08867800  0.59339800  1
  H  672  1  0.41217200  0.11834700  0.54744600  1
  C  1  1  0.03041700  0.67016200  0.33121500  1
  C  2  1  0.06137100  0.64770800  0.30782600  1
  C  3  1  0.09735800  0.66741400  0.29134000  1
  C  4  1  0.10456200  0.71074300  0.29801000  1
  C  5  1  0.07374900  0.73410700  0.31987900  1
  C  6  1  0.03758000  0.71413500  0.33600500  1
  C  7  1  0.14038900  0.73025000  0.28239100  1
  C  8  1  0.17941500  0.71480900  0.28819300  1
  C  9  1  0.21454400  0.73275000  0.27006500  1
  C  10  1  0.23256100  0.76969400  0.28700100  1
  C  11  1  0.26866600  0.78774400  0.26829200  1
  C  12  1  0.28715400  0.76826900  0.23288600  1
  C  13  1  0.26934500  0.73129000  0.21579400  1
  C  14  1  0.23323000  0.71346900  0.23463100  1
  C  15  1  0.28767200  0.71264400  0.18119900  1
  C  16  1  0.27220500  0.71748600  0.14209700  1
  C  17  1  0.29161700  0.70100500  0.10665400  1
  C  18  1  0.26793600  0.67895300  0.07624100  1
  C  19  1  0.33503300  0.70709100  0.09931200  1
  C  20  1  0.35443100  0.69023400  0.06335200  1
  C  21  1  0.33152800  0.66711400  0.03255700  1
  C  22  1  0.28759000  0.66244400  0.04012000  1
  C  23  1  0.28624200  0.82344000  0.28557900  1
  C  24  1  0.28086400  0.86200300  0.26888400  1
  C  25  1  0.29586000  0.89831100  0.28799100  1
  C  26  1  0.28812400  0.90617200  0.33099900  1
  C  27  1  0.31836100  0.92877200  0.26474900  1
  C  28  1  0.33443700  0.96500300  0.28468100  1
  C  29  1  0.32922500  0.97238800  0.32854800  1
  C  30  1  0.30469500  0.94207500  0.35068300  1
  C  52  1  0.03044000  0.42922200  0.56914900  1
  C  53  1  0.06138300  0.45167200  0.59254700  1
  C  54  1  0.09737800  0.43196800  0.60902200  1
  C  55  1  0.10460000  0.38864600  0.60233200  1
  C  56  1  0.07379800  0.36528200  0.58045600  1
  C  57  1  0.03761500  0.38524800  0.56434900  1
  C  58  1  0.14043800  0.36914100  0.61792900  1
  C  59  1  0.17945800  0.38459000  0.61211500  1
  C  60  1  0.21458100  0.36667900  0.63028700  1
  C  61  1  0.23262700  0.32973200  0.61338100  1
  C  62  1  0.26872500  0.31170100  0.63212300  1
  C  63  1  0.28717900  0.33120000  0.66752900  1
  C  64  1  0.26933700  0.36817800  0.68459500  1
  C  65  1  0.23322700  0.38597900  0.66572700  1
  C  66  1  0.28763600  0.38684600  0.71918800  1
  C  67  1  0.27217300  0.38198000  0.75829200  1
  C  68  1  0.29158300  0.39844500  0.79373900  1
  C  69  1  0.26790500  0.42048800  0.82416500  1
  C  70  1  0.33499800  0.39234600  0.80107400  1
  C  71  1  0.35439700  0.40918300  0.83703700  1
  C  72  1  0.33150000  0.43229800  0.86784400  1
  C  73  1  0.28756200  0.43698200  0.86028900  1
  C  74  1  0.28633300  0.27600800  0.61485500  1
  C  75  1  0.28091500  0.23744000  0.63152700  1
  C  76  1  0.29590900  0.20113200  0.61241600  1
  C  77  1  0.28819000  0.19329200  0.56940100  1
  C  78  1  0.31837700  0.17064600  0.63565700  1
  C  79  1  0.33446600  0.13442700  0.61571300  1
  C  80  1  0.32925300  0.12704900  0.57184700  1
  C  81  1  0.30473500  0.15737500  0.54971500  1
  C  103  1  0.87032000  0.67013700  0.56914000  1
  C  104  1  0.83937400  0.64768100  0.59254100  1
  C  105  1  0.80337300  0.66737900  0.60900300  1
  C  106  1  0.79615300  0.71070500  0.60231600  1
  C  107  1  0.82696000  0.73407400  0.58044300  1
  C  108  1  0.86314100  0.71411000  0.56433300  1
  C  109  1  0.76030600  0.73020500  0.61790000  1
  C  110  1  0.72128900  0.71474900  0.61208100  1
  C  111  1  0.68615800  0.73266700  0.63023100  1
  C  112  1  0.66814000  0.76962600  0.61331900  1
  C  113  1  0.63204500  0.78767400  0.63204800  1
  C  114  1  0.61357000  0.76818300  0.66745700  1
  C  115  1  0.63138600  0.73118900  0.68452700  1
  C  116  1  0.66748800  0.71336700  0.66566600  1
  C  117  1  0.61308200  0.71253900  0.71913400  1
  C  118  1  0.62855300  0.71741800  0.75823100  1
  C  119  1  0.60914800  0.70096400  0.79369100  1
  C  120  1  0.63283300  0.67890900  0.82410700  1
  C  121  1  0.56573200  0.70705800  0.80103200  1
  C  122  1  0.54634000  0.69021400  0.83700500  1
  C  123  1  0.56924300  0.66709000  0.86780200  1
  C  124  1  0.61317900  0.66240600  0.86023700  1
  C  125  1  0.61448400  0.82338900  0.61478000  1
  C  126  1  0.61987600  0.86194300  0.63148000  1
  C  127  1  0.60487800  0.89825900  0.61237800  1
  C  128  1  0.61260900  0.90612600  0.56937000  1
  C  129  1  0.58237500  0.92871500  0.63562400  1
  C  130  1  0.56628600  0.96494600  0.61568800  1
  C  131  1  0.57149600  0.97233800  0.57182100  1
  C  132  1  0.59602800  0.94203000  0.54968600  1
  C  154  1  0.87033600  0.42923500  0.33124400  1
  C  155  1  0.83938700  0.45169200  0.30784900  1
  C  156  1  0.80339800  0.43199000  0.29137100  1
  C  157  1  0.79618800  0.38866200  0.29805500  1
  C  158  1  0.82700100  0.36529100  0.31991900  1
  C  159  1  0.86317200  0.38525900  0.33603900  1
  C  160  1  0.76036600  0.36915700  0.28242600  1
  C  161  1  0.72134000  0.38460500  0.28820900  1
  C  162  1  0.68621500  0.36667300  0.27007100  1
  C  163  1  0.66819700  0.32971900  0.28699000  1
  C  164  1  0.63209500  0.31167600  0.26827000  1
  C  165  1  0.61361400  0.33117700  0.23287200  1
  C  166  1  0.63143000  0.36816300  0.21579200  1
  C  167  1  0.66753800  0.38597300  0.23464100  1
  C  168  1  0.61312300  0.38683300  0.18119700  1
  C  169  1  0.62858400  0.38194600  0.14209800  1
  C  170  1  0.60917000  0.39838800  0.10663800  1
  C  171  1  0.63284500  0.42042600  0.07620500  1
  C  172  1  0.56575400  0.39228200  0.09930300  1
  C  173  1  0.54635200  0.40912500  0.06333700  1
  C  174  1  0.56924600  0.43225200  0.03253200  1
  C  175  1  0.61318600  0.43693100  0.04008300  1
  C  176  1  0.61452200  0.27597300  0.28555000  1
  C  177  1  0.61988900  0.23741600  0.26885200  1
  C  178  1  0.60487800  0.20110800  0.28795700  1
  C  179  1  0.61261200  0.19323800  0.33096300  1
  C  180  1  0.58236900  0.17065900  0.26471700  1
  C  181  1  0.56628600  0.13442600  0.28465300  1
  C  182  1  0.57149900  0.12702900  0.32851700  1
  C  183  1  0.59603400  0.15733300  0.35065200  1
  C  205  1  0.87044000  0.66878000  0.32968200  1
  C  206  1  0.83946900  0.69217700  0.35210400  1
  C  207  1  0.80346800  0.70862500  0.33239600  1
  C  208  1  0.79627600  0.70192000  0.28908700  1
  C  209  1  0.82711400  0.68006000  0.26575000  1
  C  210  1  0.86329800  0.66397600  0.28572600  1
  C  211  1  0.76043200  0.71749900  0.26958500  1
  C  212  1  0.72141200  0.71159100  0.28499500  1
  C  213  1  0.68625000  0.72969800  0.26709300  1
  C  214  1  0.66822900  0.71276300  0.23016300  1
  C  215  1  0.63209500  0.73145800  0.21215100  1
  C  216  1  0.61357600  0.76683900  0.23166100  1
  C  217  1  0.63138600  0.78393000  0.26862700  1
  C  218  1  0.66753800  0.76511400  0.28640100  1
  C  219  1  0.61304100  0.81851400  0.28729400  1
  C  220  1  0.62849300  0.85764300  0.28248600  1
  C  221  1  0.60907600  0.89308500  0.29898600  1
  C  222  1  0.63276000  0.92351100  0.32102300  1
  C  223  1  0.56565300  0.90042500  0.29292500  1
  C  224  1  0.54626400  0.93640400  0.30977600  1
  C  225  1  0.56917600  0.96721900  0.33286700  1
  C  226  1  0.61311300  0.95964600  0.33753200  1
  C  227  1  0.61451200  0.71417500  0.17646700  1
  C  228  1  0.61984500  0.73092800  0.13793600  1
  C  229  1  0.60485600  0.71183700  0.10162600  1
  C  230  1  0.61260600  0.66882000  0.09372900  1
  C  231  1  0.58235300  0.73511100  0.07119500  1
  C  232  1  0.56628600  0.71519900  0.03496000  1
  C  233  1  0.57149300  0.67131700  0.02755100  1
  C  234  1  0.59602800  0.64915400  0.05783100  1
  C  256  1  0.87046500  0.43058400  0.57068900  1
  C  257  1  0.83951000  0.40717300  0.54826500  1
  C  258  1  0.80351200  0.39072100  0.56797400  1
  C  259  1  0.79630700  0.39742600  0.61128000  1
  C  260  1  0.82713300  0.41928600  0.63462100  1
  C  261  1  0.86331400  0.43538800  0.61464700  1
  C  262  1  0.76045400  0.38185600  0.63077600  1
  C  263  1  0.72144100  0.38773400  0.61533800  1
  C  264  1  0.68627800  0.36963400  0.63324400  1
  C  265  1  0.66826600  0.38657100  0.67018200  1
  C  266  1  0.63212700  0.36788900  0.68819200  1
  C  267  1  0.61359800  0.33251300  0.66868700  1
  C  268  1  0.63140800  0.31541600  0.63172000  1
  C  269  1  0.66755700  0.33422700  0.61393700  1
  C  270  1  0.61306300  0.28083000  0.61305900  1
  C  271  1  0.62852100  0.24170300  0.61786500  1
  C  272  1  0.60910400  0.20625800  0.60137300  1
  C  273  1  0.63278200  0.17584100  0.57931400  1
  C  274  1  0.56568100  0.19893000  0.60744100  1
  C  275  1  0.54628600  0.16296200  0.59058100  1
  C  276  1  0.56919500  0.13214800  0.56747700  1
  C  277  1  0.61313200  0.13971200  0.56280100  1
  C  278  1  0.61456000  0.38517900  0.72388000  1
  C  279  1  0.61986700  0.36842500  0.76241400  1
  C  280  1  0.60484600  0.38751700  0.79871300  1
  C  281  1  0.61256500  0.43053900  0.80659800  1
  C  282  1  0.58233100  0.36424400  0.82913800  1
  C  283  1  0.56624200  0.38416100  0.86536400  1
  C  284  1  0.57145800  0.42804000  0.87278400  1
  C  285  1  0.59599000  0.45020400  0.84250000  1
  C  307  1  0.03030900  0.43060800  0.32968800  1
  C  308  1  0.06127500  0.40719700  0.35210900  1
  C  309  1  0.09728200  0.39076300  0.33239700  1
  C  310  1  0.10449200  0.39751100  0.28909600  1
  C  311  1  0.07365100  0.41936300  0.26575700  1
  C  312  1  0.03745200  0.43542100  0.28573000  1
  C  313  1  0.14035900  0.38197800  0.26959900  1
  C  314  1  0.17936800  0.38793000  0.28501600  1
  C  315  1  0.21453100  0.36978800  0.26715500  1
  C  316  1  0.23256600  0.38667300  0.23020500  1
  C  317  1  0.26869800  0.36794900  0.21222500  1
  C  318  1  0.28719800  0.33257700  0.23177900  1
  C  319  1  0.26936400  0.31552900  0.26875900  1
  C  320  1  0.23322100  0.33438200  0.28650900  1
  C  321  1  0.28767000  0.28093800  0.28746400  1
  C  322  1  0.27222200  0.24181600  0.28259400  1
  C  323  1  0.29163700  0.20635300  0.29905400  1
  C  324  1  0.26795300  0.17591600  0.32108600  1
  C  325  1  0.33505500  0.19901000  0.29296300  1
  C  326  1  0.35444700  0.16301700  0.30979400  1
  C  327  1  0.33153800  0.13219700  0.33288900  1
  C  328  1  0.28760300  0.13976900  0.33757300  1
  C  329  1  0.28628500  0.38519500  0.17652400  1
  C  330  1  0.28091500  0.36845800  0.13799700  1
  C  331  1  0.29592600  0.38753800  0.10168800  1
  C  332  1  0.28820000  0.43056200  0.09379500  1
  C  333  1  0.31842100  0.36426000  0.07125800  1
  C  334  1  0.33449400  0.38417500  0.03501800  1
  C  335  1  0.32928100  0.42805800  0.02759600  1
  C  336  1  0.30476400  0.45022400  0.05788400  1
  C  358  1  0.03029300  0.66877300  0.57067300  1
  C  359  1  0.06125500  0.69218400  0.54824900  1
  C  360  1  0.09724900  0.70863800  0.56795700  1
  C  361  1  0.10444700  0.70192200  0.61126300  1
  C  362  1  0.07362100  0.68004500  0.63460100  1
  C  363  1  0.03743700  0.66396200  0.61462800  1
  C  364  1  0.14029500  0.71748500  0.63076600  1
  C  365  1  0.17931400  0.71158800  0.61534800  1
  C  366  1  0.21446600  0.72970800  0.63324800  1
  C  367  1  0.23247500  0.71278500  0.67019500  1
  C  368  1  0.26859400  0.73149000  0.68821400  1
  C  369  1  0.28710900  0.76687400  0.66870200  1
  C  370  1  0.26930800  0.78395300  0.63172100  1
  C  371  1  0.23317700  0.76512200  0.61393100  1
  C  372  1  0.28764600  0.81854200  0.61305200  1
  C  373  1  0.27220500  0.85767200  0.61789100  1
  C  374  1  0.29162400  0.89311700  0.60139900  1
  C  375  1  0.26794200  0.92355000  0.57935800  1
  C  376  1  0.33504900  0.90044100  0.60745700  1
  C  377  1  0.35444400  0.93641700  0.59060500  1
  C  378  1  0.33153800  0.96723900  0.56750600  1
  C  379  1  0.28759800  0.95968100  0.56284300  1
  C  380  1  0.28616300  0.71420200  0.72390400  1
  C  381  1  0.28087100  0.73096500  0.76243200  1
  C  382  1  0.29589200  0.71187600  0.79873700  1
  C  383  1  0.28816100  0.66885500  0.80663600  1
  C  384  1  0.31840800  0.73514700  0.82915400  1
  C  385  1  0.33450400  0.71522800  0.86537900  1
  C  386  1  0.32928100  0.67135100  0.87281000  1
  C  387  1  0.30473400  0.64919000  0.84254400  1
  C  409  1  0.99157900  0.64938600  0.35056400  1
  C  410  1  0.95043700  0.66886600  0.33105400  1
  C  411  1  0.98925300  0.59977900  0.34144100  1
  C  412  1  0.94993600  0.57632500  0.36045600  1
  C  415  1  0.91007500  0.59973000  0.34189000  1
  C  416  1  0.90925200  0.64939700  0.35048100  1
  C  421  1  0.91154900  0.65854800  0.40007100  1
  C  422  1  0.95081200  0.63945900  0.42355800  1
  C  425  1  0.95031100  0.59361300  0.40628200  1
  C  428  1  0.99072800  0.65796100  0.40021100  1
  C  431  1  0.99159700  0.44999100  0.54980300  1
  C  432  1  0.95045900  0.43051000  0.56931800  1
  C  433  1  0.98926500  0.49960200  0.55892900  1
  C  434  1  0.94994200  0.52305100  0.53991600  1
  C  437  1  0.91008400  0.49964400  0.55848300  1
  C  438  1  0.90927400  0.44997400  0.54989300  1
  C  443  1  0.91157500  0.44082600  0.50030300  1
  C  444  1  0.95083400  0.45992000  0.47681100  1
  C  447  1  0.95032400  0.50576600  0.49409200  1
  C  450  1  0.99075300  0.44142000  0.50015600  1
  C  453  1  0.90916400  0.64937200  0.54979400  1
  C  454  1  0.95029900  0.66885400  0.56930200  1
  C  455  1  0.91149600  0.59976200  0.55892500  1
  C  456  1  0.95081900  0.57631500  0.53991300  1
  C  459  1  0.99067400  0.59971900  0.55847300  1
  C  460  1  0.99148700  0.64939200  0.54987700  1
  C  465  1  0.98919000  0.65854700  0.50028500  1
  C  466  1  0.94993000  0.63945200  0.47679900  1
  C  469  1  0.95044000  0.59360700  0.49408500  1
  C  472  1  0.91000800  0.65795000  0.50014800  1
  C  475  1  0.90917600  0.45000300  0.35058600  1
  C  476  1  0.95031800  0.43052500  0.33106900  1
  C  477  1  0.91150200  0.49961200  0.34145500  1
  C  478  1  0.95082200  0.52306400  0.36046200  1
  C  481  1  0.99068000  0.49966100  0.34189400  1
  C  482  1  0.99150000  0.44998800  0.35049000  1
  C  487  1  0.98920500  0.44083400  0.40007900  1
  C  488  1  0.94994600  0.45992300  0.42357300  1
  C  491  1  0.95044700  0.50576900  0.40629000  1
  C  494  1  0.91002700  0.44142400  0.40023200  1
  C  497  1  0.35165500  0.64842200  0.99312900  1
  C  498  1  0.33125400  0.66888100  0.95284100  1
  C  499  1  0.40120400  0.65729300  0.99013100  1
  C  500  1  0.42373900  0.63945500  0.94982000  1
  C  503  1  0.39937300  0.65917400  0.91104700  1
  C  504  1  0.34963400  0.65020800  0.91093800  1
  C  509  1  0.34026500  0.60054800  0.91276400  1
  C  510  1  0.36067800  0.57630600  0.95082000  1
  C  513  1  0.40644600  0.59363000  0.94826100  1
  C  516  1  0.34347300  0.59878100  0.99172800  1
  C  519  1  0.54911000  0.45095000  0.99310900  1
  C  520  1  0.56950700  0.43049400  0.95281800  1
  C  521  1  0.49956300  0.44207600  0.99012500  1
  C  522  1  0.47702300  0.45992300  0.94982200  1
  C  525  1  0.50137900  0.44020800  0.91104200  1
  C  526  1  0.55111800  0.44917600  0.91091800  1
  C  531  1  0.56048700  0.49883600  0.91273800  1
  C  532  1  0.54008100  0.52307200  0.95080000  1
  C  535  1  0.49431300  0.50574900  0.94825400  1
  C  538  1  0.55729200  0.50058800  0.99170200  1
  C  541  1  0.35163600  0.45098400  0.90727100  1
  C  542  1  0.33123500  0.43052700  0.94756100  1
  C  543  1  0.40118200  0.44209700  0.91025700  1
  C  544  1  0.42372600  0.45992900  0.95055900  1
  C  547  1  0.39936400  0.44021400  0.98933800  1
  C  548  1  0.34962500  0.44919500  0.98946200  1
  C  553  1  0.34026500  0.49885900  0.98764000  1
  C  554  1  0.36067500  0.52309500  0.94957900  1
  C  557  1  0.40643900  0.50576000  0.95212600  1
  C  560  1  0.34345700  0.50062300  0.90867600  1
  C  563  1  0.54911600  0.64840100  0.90723600  1
  C  564  1  0.56952300  0.66885100  0.94751800  1
  C  565  1  0.49957000  0.65728400  0.91023500  1
  C  566  1  0.47703600  0.63944900  0.95054700  1
  C  569  1  0.50140100  0.65915900  0.98931800  1
  C  570  1  0.55114000  0.65017700  0.98942700  1
  C  575  1  0.56050300  0.60051700  0.98760900  1
  C  576  1  0.54008700  0.57628300  0.94955600  1
  C  579  1  0.49432200  0.59361800  0.95211700  1
  C  582  1  0.55729200  0.59875900  0.90864500  1
  C  585  1  0.34958700  0.01050500  0.34970800  1
  C  586  1  0.33122900  0.05245500  0.33107200  1
  C  587  1  0.34021700  0.01229800  0.39935000  1
  C  588  1  0.36065900  0.05033900  0.42360000  1
  C  591  1  0.34348200  0.09129600  0.40116400  1
  C  592  1  0.35165500  0.09272900  0.35154600  1
  C  597  1  0.40120100  0.08971200  0.34266700  1
  C  598  1  0.42371300  0.04935300  0.36046200  1
  C  601  1  0.40642400  0.04773800  0.40626900  1
  C  604  1  0.39932600  0.01060000  0.34072800  1
  C  607  1  0.55113600  0.01046200  0.55065900  1
  C  608  1  0.56949800  0.05240300  0.56929400  1
  C  609  1  0.56050600  0.01226300  0.50102000  1
  C  610  1  0.54006800  0.05031300  0.47676700  1
  C  613  1  0.55725100  0.09126200  0.49920000  1
  C  614  1  0.54907500  0.09268900  0.54881700  1
  C  619  1  0.49953200  0.08968100  0.55769400  1
  C  620  1  0.47701700  0.04933100  0.53989900  1
  C  623  1  0.49430300  0.04771700  0.49409200  1
  C  626  1  0.50139800  0.01056500  0.55963900  1
  C  629  1  0.55113300  0.08890900  0.34968300  1
  C  630  1  0.56948800  0.04696200  0.33104600  1
  C  631  1  0.56050600  0.08710600  0.39932200  1
  C  632  1  0.54006800  0.04906200  0.42358000  1
  C  635  1  0.55724100  0.00810800  0.40114200  1
  C  636  1  0.54906300  0.00668100  0.35152600  1
  C  641  1  0.49951600  0.00970200  0.34266100  1
  C  642  1  0.47700700  0.05006100  0.36045800  1
  C  645  1  0.49430000  0.05166700  0.40626000  1
  C  648  1  0.50139400  0.08881700  0.34071200  1
  C  651  1  0.34960600  0.08892400  0.55068100  1
  C  652  1  0.33124200  0.04698300  0.56931800  1
  C  653  1  0.34023000  0.08713500  0.50104000  1
  C  654  1  0.36066200  0.04908500  0.47678400  1
  C  657  1  0.34347900  0.00813300  0.49922600  1
  C  658  1  0.35165800  0.00669900  0.54884200  1
  C  663  1  0.40120400  0.00970200  0.55770600  1
  C  664  1  0.42372000  0.05005200  0.53990500  1
  C  667  1  0.40642700  0.05167200  0.49410300  1
  C  670  1  0.39934500  0.08881400  0.55964900  1
