# generated using pymatgen
data_Si4NiH48(C8N)4
_symmetry_space_group_name_H-M   'P 1'
_cell_length_a   15.39771000
_cell_length_b   18.00074539
_cell_length_c   18.00983620
_cell_angle_alpha   79.73589937
_cell_angle_beta   65.00898950
_cell_angle_gamma   65.05068971
_symmetry_Int_Tables_number   1
_chemical_formula_structural   Si4NiH48(C8N)4
_chemical_formula_sum   'Si16 Ni4 H192 C128 N16'
_cell_volume   4102.21611502
_cell_formula_units_Z   4
loop_
 _symmetry_equiv_pos_site_id
 _symmetry_equiv_pos_as_xyz
  1  'x, y, z'
loop_
 _atom_site_type_symbol
 _atom_site_label
 _atom_site_symmetry_multiplicity
 _atom_site_fract_x
 _atom_site_fract_y
 _atom_site_fract_z
 _atom_site_occupancy
  Si  Si0  1  0.98574000  0.43703000  0.12549000  1
  Si  Si1  1  0.54946000  0.06236000  0.37430000  1
  Si  Si2  1  0.88910000  0.06314000  0.12529000  1
  Si  Si3  1  0.07671000  0.43732000  0.37427000  1
  Si  Si4  1  0.01439000  0.56327000  0.87463000  1
  Si  Si5  1  0.45094000  0.93743000  0.62563000  1
  Si  Si6  1  0.11111000  0.93710000  0.87465000  1
  Si  Si7  1  0.92365000  0.56240000  0.62583000  1
  Si  Si8  1  0.61092000  0.37467000  0.43702000  1
  Si  Si9  1  0.42329000  0.12566000  0.06278000  1
  Si  Si10  1  0.51425000  0.37449000  0.06301000  1
  Si  Si11  1  0.95048000  0.12575000  0.43770000  1
  Si  Si12  1  0.38887000  0.62549000  0.56269000  1
  Si  Si13  1  0.57647000  0.87418000  0.93743000  1
  Si  Si14  1  0.48560000  0.62539000  0.93676000  1
  Si  Si15  1  0.04895000  0.87437000  0.56259000  1
  Ni  Ni16  1  0.87526000  0.75009000  0.25020000  1
  Ni  Ni17  1  0.12559000  0.24994000  0.74993000  1
  Ni  Ni18  1  0.62480000  0.25000000  0.74997000  1
  Ni  Ni19  1  0.37437000  0.75007000  0.25002000  1
  H  H20  1  0.97660000  0.59686000  0.15575000  1
  H  H21  1  0.76012000  0.47629000  0.25086000  1
  H  H22  1  0.63334000  0.59904000  0.34169000  1
  H  H23  1  0.68274000  0.71671000  0.32997000  1
  H  H24  1  0.17906000  0.37424000  0.08279000  1
  H  H25  1  0.12936000  0.47943000  0.10525000  1
  H  H26  1  0.11558000  0.40837000  0.18611000  1
  H  H27  1  0.01946000  0.28850000  0.12770000  1
  H  H28  1  0.95479000  0.32865000  0.22854000  1
  H  H29  1  0.88397000  0.34732000  0.16644000  1
  H  H30  1  0.91322000  0.46870000  0.01945000  1
  H  H31  1  0.04684000  0.40810000  0.97858000  1
  H  H32  1  0.73003000  0.90350000  0.34455000  1
  H  H33  1  0.48976000  0.02116000  0.24790000  1
  H  H34  1  0.57702000  0.89828000  0.15661000  1
  H  H35  1  0.73114000  0.78193000  0.16934000  1
  H  H36  1  0.63602000  0.12700000  0.41802000  1
  H  H37  1  0.71335000  0.02183000  0.39646000  1
  H  H38  1  0.70999000  0.09219000  0.31499000  1
  H  H39  1  0.43785000  0.21054000  0.37135000  1
  H  H40  1  0.51393000  0.17022000  0.27066000  1
  H  H41  1  0.40044000  0.15087000  0.33197000  1
  H  H42  1  0.40277000  0.03044000  0.47898000  1
  H  H43  1  0.43414000  0.09201000  0.52056000  1
  H  H44  1  0.86798000  0.90335000  0.15559000  1
  H  H45  1  0.99039000  0.02378000  0.25091000  1
  H  H46  1  0.02670000  0.90125000  0.34196000  1
  H  H47  1  0.98873000  0.78369000  0.33029000  1
  H  H48  1  0.73839000  0.12567000  0.08197000  1
  H  H49  1  0.76654000  0.02036000  0.10392000  1
  H  H50  1  0.69958000  0.09109000  0.18511000  1
  H  H51  1  0.85252000  0.21183000  0.12786000  1
  H  H52  1  0.81681000  0.17164000  0.22862000  1
  H  H53  1  0.94907000  0.15325000  0.16725000  1
  H  H54  1  0.06687000  0.03185000  0.02012000  1
  H  H55  1  0.97443000  0.09231000  0.97851000  1
  H  H56  1  0.92645000  0.59700000  0.34516000  1
  H  H57  1  0.26215000  0.47751000  0.24770000  1
  H  H58  1  0.26607000  0.60048000  0.15692000  1
  H  H59  1  0.09986000  0.71760000  0.16971000  1
  H  H60  1  0.94662000  0.37304000  0.41707000  1
  H  H61  1  0.89149000  0.47816000  0.39474000  1
  H  H62  1  0.97611000  0.40730000  0.31378000  1
  H  H63  1  0.19078000  0.28904000  0.37178000  1
  H  H64  1  0.21542000  0.32928000  0.27102000  1
  H  H65  1  0.26737000  0.34855000  0.33312000  1
  H  H66  1  0.11803000  0.46942000  0.48010000  1
  H  H67  1  0.04577000  0.40762000  0.52080000  1
  H  H68  1  0.02418000  0.40308000  0.84466000  1
  H  H69  1  0.23973000  0.52449000  0.74893000  1
  H  H70  1  0.36686000  0.40173000  0.65831000  1
  H  H71  1  0.31795000  0.28376000  0.67010000  1
  H  H72  1  0.82097000  0.62583000  0.91720000  1
  H  H73  1  0.87113000  0.52060000  0.89467000  1
  H  H74  1  0.88474000  0.59173000  0.81386000  1
  H  H75  1  0.98025000  0.71189000  0.87241000  1
  H  H76  1  0.04516000  0.67170000  0.77158000  1
  H  H77  1  0.11582000  0.65330000  0.83376000  1
  H  H78  1  0.08672000  0.53168000  0.98078000  1
  H  H79  1  0.95307000  0.59234000  0.02156000  1
  H  H80  1  0.27099000  0.09674000  0.65515000  1
  H  H81  1  0.51075000  0.97811000  0.75224000  1
  H  H82  1  0.42407000  0.10090000  0.84342000  1
  H  H83  1  0.27026000  0.21766000  0.83070000  1
  H  H84  1  0.36388000  0.87312000  0.58208000  1
  H  H85  1  0.28682000  0.97831000  0.60376000  1
  H  H86  1  0.29019000  0.90786000  0.68514000  1
  H  H87  1  0.56233000  0.78918000  0.62849000  1
  H  H88  1  0.48641000  0.82940000  0.72923000  1
  H  H89  1  0.59999000  0.84864000  0.66790000  1
  H  H90  1  0.59760000  0.96929000  0.52089000  1
  H  H91  1  0.56634000  0.90766000  0.47930000  1
  H  H92  1  0.13334000  0.09648000  0.84409000  1
  H  H93  1  0.00938000  0.97698000  0.74928000  1
  H  H94  1  0.97343000  0.09965000  0.65818000  1
  H  H95  1  0.01212000  0.21683000  0.66977000  1
  H  H96  1  0.26165000  0.87423000  0.91810000  1
  H  H97  1  0.23382000  0.97949000  0.89629000  1
  H  H98  1  0.30074000  0.90886000  0.81502000  1
  H  H99  1  0.14730000  0.78858000  0.87200000  1
  H  H100  1  0.18318000  0.82872000  0.77122000  1
  H  H101  1  0.05084000  0.84732000  0.83255000  1
  H  H102  1  0.93329000  0.96846000  0.97970000  1
  H  H103  1  0.02571000  0.90809000  0.02134000  1
  H  H104  1  0.07411000  0.40317000  0.65537000  1
  H  H105  1  0.73835000  0.52184000  0.75223000  1
  H  H106  1  0.73473000  0.39882000  0.84314000  1
  H  H107  1  0.90118000  0.28203000  0.83042000  1
  H  H108  1  0.05341000  0.62693000  0.58292000  1
  H  H109  1  0.10894000  0.52186000  0.60511000  1
  H  H110  1  0.02434000  0.59260000  0.68615000  1
  H  H111  1  0.80936000  0.71058000  0.62832000  1
  H  H112  1  0.78474000  0.67038000  0.72912000  1
  H  H113  1  0.73297000  0.65091000  0.66699000  1
  H  H114  1  0.88229000  0.53017000  0.52011000  1
  H  H115  1  0.95454000  0.59194000  0.47930000  1
  H  H116  1  0.63209000  0.34460000  0.59658000  1
  H  H117  1  0.50961000  0.24905000  0.47658000  1
  H  H118  1  0.47344000  0.15794000  0.59914000  1
  H  H119  1  0.51148000  0.16984000  0.71649000  1
  H  H120  1  0.76143000  0.41821000  0.37425000  1
  H  H121  1  0.73335000  0.39646000  0.47957000  1
  H  H122  1  0.80043000  0.31511000  0.40898000  1
  H  H123  1  0.64790000  0.37166000  0.28833000  1
  H  H124  1  0.68344000  0.27097000  0.32883000  1
  H  H125  1  0.55119000  0.33227000  0.34703000  1
  H  H126  1  0.43319000  0.47974000  0.46822000  1
  H  H127  1  0.52574000  0.52129000  0.40759000  1
  H  H128  1  0.57344000  0.15485000  0.90302000  1
  H  H129  1  0.23778000  0.25216000  0.02285000  1
  H  H130  1  0.23373000  0.34304000  0.89994000  1
  H  H131  1  0.39992000  0.33032000  0.78267000  1
  H  H132  1  0.55335000  0.08304000  0.12690000  1
  H  H133  1  0.60844000  0.10553000  0.02184000  1
  H  H134  1  0.52379000  0.18635000  0.09278000  1
  H  H135  1  0.30924000  0.12783000  0.21100000  1
  H  H136  1  0.28434000  0.22873000  0.17103000  1
  H  H137  1  0.23270000  0.16648000  0.15153000  1
  H  H138  1  0.38205000  0.01976000  0.03073000  1
  H  H139  1  0.45449000  0.97900000  0.09232000  1
  H  H140  1  0.52336000  0.34441000  0.90331000  1
  H  H141  1  0.73977000  0.24902000  0.02373000  1
  H  H142  1  0.86633000  0.15800000  0.90108000  1
  H  H143  1  0.81695000  0.17003000  0.78342000  1
  H  H144  1  0.32095000  0.41711000  0.12602000  1
  H  H145  1  0.37051000  0.39473000  0.02088000  1
  H  H146  1  0.38429000  0.31385000  0.09181000  1
  H  H147  1  0.48053000  0.37215000  0.21155000  1
  H  H148  1  0.54521000  0.27136000  0.17131000  1
  H  H149  1  0.61602000  0.33348000  0.15266000  1
  H  H150  1  0.58686000  0.48054000  0.03111000  1
  H  H151  1  0.45331000  0.52140000  0.09186000  1
  H  H152  1  0.76990000  0.15567000  0.59651000  1
  H  H153  1  0.01054000  0.25209000  0.47870000  1
  H  H154  1  0.92360000  0.34325000  0.60161000  1
  H  H155  1  0.76940000  0.33062000  0.71801000  1
  H  H156  1  0.86391000  0.08192000  0.37328000  1
  H  H157  1  0.78653000  0.10354000  0.47842000  1
  H  H158  1  0.78988000  0.18496000  0.40802000  1
  H  H159  1  0.06227000  0.12867000  0.28948000  1
  H  H160  1  0.98616000  0.22940000  0.32977000  1
  H  H161  1  0.09952000  0.16811000  0.34922000  1
  H  H162  1  0.09718000  0.02111000  0.46945000  1
  H  H163  1  0.06572000  0.97944000  0.40802000  1
  H  H164  1  0.36668000  0.65599000  0.40346000  1
  H  H165  1  0.49068000  0.75101000  0.52267000  1
  H  H166  1  0.52640000  0.84222000  0.40009000  1
  H  H167  1  0.48775000  0.83043000  0.28302000  1
  H  H168  1  0.23846000  0.58184000  0.62568000  1
  H  H169  1  0.26635000  0.60345000  0.52038000  1
  H  H170  1  0.19936000  0.68488000  0.59085000  1
  H  H171  1  0.35232000  0.62860000  0.71135000  1
  H  H172  1  0.31660000  0.72921000  0.67073000  1
  H  H173  1  0.44888000  0.66800000  0.65233000  1
  H  H174  1  0.56680000  0.52059000  0.53121000  1
  H  H175  1  0.47446000  0.47887000  0.59189000  1
  H  H176  1  0.42576000  0.84465000  0.09668000  1
  H  H177  1  0.76166000  0.74797000  0.97809000  1
  H  H178  1  0.76501000  0.65716000  0.10123000  1
  H  H179  1  0.59847000  0.66978000  0.21800000  1
  H  H180  1  0.44675000  0.91702000  0.87292000  1
  H  H181  1  0.39125000  0.89468000  0.97796000  1
  H  H182  1  0.47592000  0.81374000  0.90710000  1
  H  H183  1  0.69079000  0.87196000  0.78931000  1
  H  H184  1  0.71547000  0.77109000  0.82931000  1
  H  H185  1  0.76719000  0.83324000  0.84890000  1
  H  H186  1  0.61777000  0.97997000  0.96964000  1
  H  H187  1  0.54535000  0.02083000  0.90805000  1
  H  H188  1  0.47554000  0.65512000  0.09703000  1
  H  H189  1  0.26037000  0.75109000  0.97547000  1
  H  H190  1  0.13340000  0.84201000  0.09798000  1
  H  H191  1  0.18201000  0.83005000  0.21607000  1
  H  H192  1  0.67901000  0.58293000  0.87413000  1
  H  H193  1  0.62882000  0.60549000  0.97936000  1
  H  H194  1  0.61515000  0.68630000  0.90827000  1
  H  H195  1  0.51977000  0.62767000  0.78809000  1
  H  H196  1  0.45495000  0.72847000  0.82837000  1
  H  H197  1  0.38421000  0.66632000  0.84680000  1
  H  H198  1  0.41318000  0.51921000  0.96850000  1
  H  H199  1  0.54673000  0.47847000  0.90768000  1
  H  H200  1  0.22902000  0.84496000  0.40332000  1
  H  H201  1  0.98901000  0.74781000  0.52203000  1
  H  H202  1  0.07561000  0.65681000  0.39905000  1
  H  H203  1  0.22962000  0.66948000  0.28229000  1
  H  H204  1  0.13593000  0.91816000  0.62680000  1
  H  H205  1  0.21304000  0.89637000  0.52161000  1
  H  H206  1  0.20962000  0.81505000  0.59217000  1
  H  H207  1  0.93761000  0.87147000  0.71086000  1
  H  H208  1  0.01353000  0.77075000  0.67052000  1
  H  H209  1  0.89988000  0.83205000  0.65145000  1
  H  H210  1  0.90220000  0.97919000  0.53101000  1
  H  H211  1  0.93382000  0.02073000  0.59244000  1
  C  C212  1  0.90096000  0.59468000  0.19422000  1
  C  C213  1  0.88092000  0.52592000  0.19395000  1
  C  C214  1  0.78097000  0.52777000  0.24799000  1
  C  C215  1  0.71004000  0.59587000  0.29829000  1
  C  C216  1  0.73653000  0.66235000  0.29262000  1
  C  C217  1  0.11401000  0.42327000  0.12476000  1
  C  C218  1  0.95812000  0.34198000  0.16564000  1
  C  C219  1  0.98845000  0.46143000  0.01827000  1
  C  C220  1  0.69099000  0.90498000  0.30576000  1
  C  C221  1  0.60238000  0.97302000  0.30568000  1
  C  C222  1  0.55891000  0.97034000  0.25104000  1
  C  C223  1  0.60649000  0.90214000  0.20057000  1
  C  C224  1  0.69324000  0.83643000  0.20665000  1
  C  C225  1  0.66199000  0.07745000  0.37623000  1
  C  C226  1  0.46788000  0.15680000  0.33338000  1
  C  C227  1  0.46884000  0.03826000  0.48113000  1
  C  C228  1  0.90538000  0.90556000  0.19421000  1
  C  C229  1  0.92581000  0.97427000  0.19393000  1
  C  C230  1  0.97219000  0.97239000  0.24807000  1
  C  C231  1  0.99305000  0.90437000  0.29849000  1
  C  C232  1  0.97191000  0.83800000  0.29290000  1
  C  C233  1  0.76205000  0.07656000  0.12384000  1
  C  C234  1  0.87611000  0.15834000  0.16589000  1
  C  C235  1  0.99317000  0.03900000  0.01832000  1
  C  C236  1  0.00398000  0.59515000  0.30622000  1
  C  C237  1  0.09238000  0.52662000  0.30587000  1
  C  C238  1  0.19010000  0.52879000  0.25113000  1
  C  C239  1  0.19291000  0.59700000  0.20083000  1
  C  C240  1  0.10041000  0.66316000  0.20702000  1
  C  C241  1  0.96269000  0.42232000  0.37518000  1
  C  C242  1  0.19877000  0.34273000  0.33392000  1
  C  C243  1  0.05030000  0.46142000  0.48150000  1
  C  C244  1  0.09972000  0.40541000  0.80609000  1
  C  C245  1  0.11938000  0.47443000  0.80615000  1
  C  C246  1  0.21920000  0.47277000  0.75204000  1
  C  C247  1  0.29029000  0.40470000  0.70178000  1
  C  C248  1  0.26400000  0.33811000  0.70740000  1
  C  C249  1  0.88623000  0.57688000  0.87524000  1
  C  C250  1  0.04178000  0.65844000  0.83450000  1
  C  C251  1  0.01149000  0.53896000  0.98194000  1
  C  C252  1  0.31002000  0.09501000  0.69405000  1
  C  C253  1  0.39836000  0.02672000  0.69424000  1
  C  C254  1  0.44185000  0.02915000  0.74896000  1
  C  C255  1  0.39447000  0.09729000  0.79945000  1
  C  C256  1  0.30791000  0.16325000  0.79331000  1
  C  C257  1  0.33816000  0.92258000  0.62389000  1
  C  C258  1  0.53245000  0.84285000  0.66651000  1
  C  C259  1  0.53157000  0.96144000  0.51872000  1
  C  C260  1  0.09552000  0.09452000  0.80568000  1
  C  C261  1  0.07466000  0.02603000  0.80604000  1
  C  C262  1  0.02790000  0.02822000  0.75207000  1
  C  C263  1  0.00720000  0.09630000  0.70165000  1
  C  C264  1  0.02879000  0.16244000  0.70714000  1
  C  C265  1  0.23816000  0.92342000  0.87624000  1
  C  C266  1  0.12386000  0.84207000  0.83394000  1
  C  C267  1  0.00693000  0.96139000  0.98155000  1
  C  C268  1  0.99663000  0.40482000  0.69413000  1
  C  C269  1  0.90812000  0.47313000  0.69432000  1
  C  C270  1  0.81047000  0.47073000  0.74891000  1
  C  C271  1  0.80783000  0.40250000  0.79926000  1
  C  C272  1  0.90043000  0.33653000  0.79314000  1
  C  C273  1  0.03761000  0.57757000  0.62480000  1
  C  C274  1  0.80149000  0.65688000  0.66620000  1
  C  C275  1  0.95006000  0.53816000  0.51863000  1
  C  C276  1  0.59459000  0.30596000  0.59462000  1
  C  C277  1  0.57421000  0.30613000  0.52597000  1
  C  C278  1  0.52780000  0.25196000  0.52790000  1
  C  C279  1  0.50701000  0.20153000  0.59592000  1
  C  C280  1  0.52818000  0.20720000  0.66220000  1
  C  C281  1  0.73789000  0.37635000  0.42347000  1
  C  C282  1  0.62414000  0.33373000  0.34190000  1
  C  C283  1  0.50685000  0.48164000  0.46104000  1
  C  C284  1  0.49590000  0.19385000  0.90500000  1
  C  C285  1  0.40751000  0.19416000  0.97360000  1
  C  C286  1  0.30975000  0.24884000  0.97152000  1
  C  C287  1  0.30693000  0.29919000  0.90335000  1
  C  C288  1  0.39942000  0.29305000  0.83711000  1
  C  C289  1  0.53725000  0.12495000  0.07768000  1
  C  C290  1  0.30120000  0.16580000  0.15741000  1
  C  C291  1  0.44984000  0.01836000  0.03861000  1
  C  C292  1  0.59900000  0.30590000  0.90538000  1
  C  C293  1  0.61903000  0.30604000  0.97413000  1
  C  C294  1  0.71889000  0.25195000  0.97230000  1
  C  C295  1  0.78975000  0.20160000  0.90422000  1
  C  C296  1  0.76323000  0.20731000  0.83781000  1
  C  C297  1  0.38598000  0.37518000  0.07694000  1
  C  C298  1  0.54186000  0.33430000  0.15800000  1
  C  C299  1  0.51158000  0.48173000  0.03851000  1
  C  C300  1  0.80902000  0.19442000  0.59501000  1
  C  C301  1  0.89769000  0.19443000  0.52695000  1
  C  C302  1  0.94141000  0.24893000  0.52959000  1
  C  C303  1  0.89391000  0.29941000  0.59777000  1
  C  C304  1  0.80710000  0.29337000  0.66352000  1
  C  C305  1  0.83792000  0.12377000  0.42277000  1
  C  C306  1  0.03215000  0.16667000  0.34321000  1
  C  C307  1  0.03107000  0.01889000  0.46176000  1
  C  C308  1  0.40444000  0.69451000  0.40529000  1
  C  C309  1  0.42534000  0.69414000  0.47372000  1
  C  C310  1  0.47198000  0.74824000  0.47157000  1
  C  C311  1  0.49265000  0.79868000  0.40349000  1
  C  C312  1  0.47114000  0.79309000  0.33738000  1
  C  C313  1  0.26192000  0.62366000  0.57639000  1
  C  C314  1  0.37590000  0.66646000  0.65767000  1
  C  C315  1  0.49313000  0.51862000  0.53850000  1
  C  C316  1  0.50325000  0.80588000  0.09501000  1
  C  C317  1  0.59184000  0.80571000  0.02672000  1
  C  C318  1  0.68946000  0.75120000  0.02919000  1
  C  C319  1  0.69197000  0.70093000  0.09747000  1
  C  C320  1  0.59932000  0.70700000  0.16344000  1
  C  C321  1  0.46258000  0.87511000  0.92222000  1
  C  C322  1  0.69870000  0.83399000  0.84293000  1
  C  C323  1  0.54998000  0.98141000  0.96173000  1
  C  C324  1  0.40011000  0.69384000  0.09466000  1
  C  C325  1  0.38054000  0.69381000  0.02563000  1
  C  C326  1  0.28092000  0.74810000  0.02711000  1
  C  C327  1  0.20985000  0.79841000  0.09513000  1
  C  C328  1  0.23594000  0.79264000  0.16182000  1
  C  C329  1  0.61374000  0.62487000  0.92311000  1
  C  C330  1  0.45830000  0.66552000  0.84161000  1
  C  C331  1  0.48844000  0.51807000  0.96109000  1
  C  C332  1  0.19003000  0.80597000  0.40506000  1
  C  C333  1  0.10162000  0.80574000  0.47333000  1
  C  C334  1  0.05803000  0.75103000  0.47095000  1
  C  C335  1  0.10538000  0.70063000  0.40275000  1
  C  C336  1  0.19199000  0.70680000  0.33676000  1
  C  C337  1  0.16168000  0.87627000  0.57740000  1
  C  C338  1  0.96742000  0.83347000  0.65719000  1
  C  C339  1  0.96836000  0.98131000  0.53870000  1
  N  N340  1  0.83209000  0.66238000  0.24117000  1
  N  N341  1  0.73683000  0.83715000  0.25866000  1
  N  N342  1  0.92745000  0.83791000  0.24129000  1
  N  N343  1  0.00519000  0.66292000  0.25914000  1
  N  N344  1  0.16865000  0.33778000  0.75907000  1
  N  N345  1  0.26437000  0.16281000  0.74115000  1
  N  N346  1  0.07351000  0.16225000  0.75865000  1
  N  N347  1  0.99558000  0.33699000  0.74116000  1
  N  N348  1  0.57254000  0.25892000  0.66229000  1
  N  N349  1  0.49468000  0.24091000  0.83724000  1
  N  N350  1  0.66782000  0.25892000  0.83768000  1
  N  N351  1  0.76332000  0.24144000  0.66286000  1
  N  N352  1  0.42634000  0.74158000  0.33761000  1
  N  N353  1  0.50423000  0.75889000  0.16286000  1
  N  N354  1  0.33117000  0.74089000  0.16226000  1
  N  N355  1  0.23566000  0.75890000  0.33724000  1
