# generated using pymatgen
data_Zn3P2H4(CO3)4
_symmetry_space_group_name_H-M   'P 1'
_cell_length_a   5.73964000
_cell_length_b   9.79821505
_cell_length_c   12.88313000
_cell_angle_alpha   98.04504474
_cell_angle_beta   91.05199000
_cell_angle_gamma   99.56156315
_symmetry_Int_Tables_number   1
_chemical_formula_structural   Zn3P2H4(CO3)4
_chemical_formula_sum   'Zn6 P4 H8 C8 O24'
_cell_volume   706.78505195
_cell_formula_units_Z   2
loop_
 _symmetry_equiv_pos_site_id
 _symmetry_equiv_pos_as_xyz
  1  'x, y, z'
loop_
 _atom_site_type_symbol
 _atom_site_label
 _atom_site_symmetry_multiplicity
 _atom_site_fract_x
 _atom_site_fract_y
 _atom_site_fract_z
 _atom_site_occupancy
  Zn  Zn1  1  0.43670000  0.39100000  0.82034000  1.0
  Zn  Zn2  1  0.33289000  0.90129000  0.42443000  1.0
  Zn  Zn3  1  0.14464000  0.88878000  0.94452000  1.0
  Zn  Zn4  1  0.56330000  0.60899000  0.17966000  1.0
  Zn  Zn5  1  0.66712000  0.09871000  0.57557000  1.0
  Zn  Zn6  1  0.85537000  0.11122000  0.05548000  1.0
  P  P1  1  0.20926000  0.15475000  0.62148000  1.0
  P  P2  1  0.38077000  0.22981000  0.01012000  1.0
  P  P3  1  0.79074000  0.84524000  0.37852000  1.0
  P  P4  1  0.61924000  0.77019000  0.98988000  1.0
  H  H1  1  0.81566000  0.99889000  0.74390000  1.0
  H  H2  1  0.76610000  0.37105000  0.16338000  1.0
  H  H3  1  0.10033000  0.90904000  0.63447000  1.0
  H  H4  1  0.35731000  0.23137000  0.19692000  1.0
  H  H5  1  0.18434000  0.00110000  0.25610000  1.0
  H  H6  1  0.23391000  0.62895000  0.83662000  1.0
  H  H7  1  0.89967000  0.09095000  0.36553000  1.0
  H  H8  1  0.64270000  0.76863000  0.80307000  1.0
  C  C1  1  0.15093000  0.00197000  0.69540000  1.0
  C  C2  1  0.38140000  0.97886000  0.74741000  1.0
  C  C3  1  0.38743000  0.31627000  0.14875000  1.0
  C  C4  1  0.18002000  0.39553000  0.16197000  1.0
  C  C5  1  0.84907000  0.99802000  0.30459000  1.0
  C  C6  1  0.61860000  0.02114000  0.25258000  1.0
  C  C7  1  0.61256000  0.68372000  0.85125000  1.0
  C  C8  1  0.81998000  0.60445000  0.83803000  1.0
  O  O1  1  0.38487000  0.27357000  0.68323000  1.0
  O  O2  1  0.33996000  0.09521000  0.52087000  1.0
  O  O3  1  0.97796000  0.19946000  0.58914000  1.0
  O  O4  1  0.98651000  0.01177000  0.77185000  1.0
  O  O5  1  0.57564000  0.00297000  0.69907000  1.0
  O  O6  1  0.38111000  0.93307000  0.83284000  1.0
  O  O7  1  0.62425000  0.19977000  0.98025000  1.0
  O  O8  1  0.18832000  0.09708000  0.01502000  1.0
  O  O9  1  0.29332000  0.32980000  0.94208000  1.0
  O  O10  1  0.60200000  0.40743000  0.18018000  1.0
  O  O11  1  0.97421000  0.31925000  0.15185000  1.0
  O  O12  1  0.21487000  0.52742000  0.18188000  1.0
  O  O13  1  0.61513000  0.72642000  0.31677000  1.0
  O  O14  1  0.66005000  0.90479000  0.47913000  1.0
  O  O15  1  0.02204000  0.80053000  0.41086000  1.0
  O  O16  1  0.01349000  0.98822000  0.22814000  1.0
  O  O17  1  0.42436000  0.99702000  0.30093000  1.0
  O  O18  1  0.61889000  0.06693000  0.16717000  1.0
  O  O19  1  0.37576000  0.80023000  0.01975000  1.0
  O  O20  1  0.81169000  0.90292000  0.98498000  1.0
  O  O21  1  0.70669000  0.67020000  0.05792000  1.0
  O  O22  1  0.39799000  0.59256000  0.81981000  1.0
  O  O23  1  0.02580000  0.68074000  0.84815000  1.0
  O  O24  1  0.78514000  0.47259000  0.81812000  1.0
