# generated using pymatgen
data_ZnH7C10N5O2
_symmetry_space_group_name_H-M   'P 1'
_cell_length_a   18.94215000
_cell_length_b   26.87628000
_cell_length_c   26.87639000
_cell_angle_alpha   119.97693000
_cell_angle_beta   90.00000000
_cell_angle_gamma   89.99955000
_symmetry_Int_Tables_number   1
_chemical_formula_structural   ZnH7C10N5O2
_chemical_formula_sum   'Zn24 H168 C240 N120 O48'
_cell_volume   11852.25283591
_cell_formula_units_Z   24
loop_
 _symmetry_equiv_pos_site_id
 _symmetry_equiv_pos_as_xyz
  1  'x, y, z'
loop_
 _atom_site_type_symbol
 _atom_site_label
 _atom_site_symmetry_multiplicity
 _atom_site_fract_x
 _atom_site_fract_y
 _atom_site_fract_z
 _atom_site_occupancy
  Zn  Zn1  1  0.41254000  0.33253000  0.43979000  1.0
  Zn  Zn2  1  0.41253000  0.10743000  0.66756000  1.0
  Zn  Zn3  1  0.41256000  0.56019000  0.89269000  1.0
  Zn  Zn4  1  0.91238000  0.66748000  0.56018000  1.0
  Zn  Zn5  1  0.91237000  0.89250000  0.33236000  1.0
  Zn  Zn6  1  0.91236000  0.43985000  0.10739000  1.0
  Zn  Zn7  1  0.58746000  0.66756000  0.10743000  1.0
  Zn  Zn8  1  0.58743000  0.89269000  0.56019000  1.0
  Zn  Zn9  1  0.58745000  0.43980000  0.33252000  1.0
  Zn  Zn10  1  0.08761000  0.33236000  0.89250000  1.0
  Zn  Zn11  1  0.08763000  0.10739000  0.43985000  1.0
  Zn  Zn12  1  0.08760000  0.56018000  0.66747000  1.0
  Zn  Zn13  1  0.58745000  0.66748000  0.56020000  1.0
  Zn  Zn14  1  0.58746000  0.89257000  0.33244000  1.0
  Zn  Zn15  1  0.58743000  0.43981000  0.10731000  1.0
  Zn  Zn16  1  0.08760000  0.33253000  0.43982000  1.0
  Zn  Zn17  1  0.08762000  0.10750000  0.66764000  1.0
  Zn  Zn18  1  0.08762000  0.56015000  0.89261000  1.0
  Zn  Zn19  1  0.41253000  0.33244000  0.89257000  1.0
  Zn  Zn20  1  0.41256000  0.10731000  0.43981000  1.0
  Zn  Zn21  1  0.41254000  0.56021000  0.66747000  1.0
  Zn  Zn22  1  0.91237000  0.66764000  0.10750000  1.0
  Zn  Zn23  1  0.91236000  0.89262000  0.56015000  1.0
  Zn  Zn24  1  0.91238000  0.43982000  0.33253000  1.0
  H  H1  1  0.57960000  0.30778000  0.42776000  1.0
  H  H2  1  0.69211000  0.25723000  0.42239000  1.0
  H  H3  1  0.50357000  0.34928000  0.54681000  1.0
  H  H4  1  0.42832000  0.21915000  0.31060000  1.0
  H  H5  1  0.46484000  0.16285000  0.20757000  1.0
  H  H6  1  0.32361000  0.31577000  0.33195000  1.0
  H  H7  1  0.57956000  0.12011000  0.69222000  1.0
  H  H8  1  0.69208000  0.16518000  0.74280000  1.0
  H  H9  1  0.50354000  0.19733000  0.65079000  1.0
  H  H10  1  0.42825000  0.09139000  0.78064000  1.0
  H  H11  1  0.46483000  0.04475000  0.83706000  1.0
  H  H12  1  0.32361000  0.01619000  0.68421000  1.0
  H  H13  1  0.57952000  0.57203000  0.87987000  1.0
  H  H14  1  0.69206000  0.57761000  0.83486000  1.0
  H  H15  1  0.50345000  0.45306000  0.80237000  1.0
  H  H16  1  0.42826000  0.68943000  0.90862000  1.0
  H  H17  1  0.46490000  0.79247000  0.95536000  1.0
  H  H18  1  0.32363000  0.66804000  0.98385000  1.0
  H  H19  1  0.07962000  0.69224000  0.57226000  1.0
  H  H20  1  0.19215000  0.74279000  0.57764000  1.0
  H  H21  1  0.00513000  0.65054000  0.45343000  1.0
  H  H22  1  0.92819000  0.78064000  0.68924000  1.0
  H  H23  1  0.96477000  0.83695000  0.79225000  1.0
  H  H24  1  0.82343000  0.68477000  0.66830000  1.0
  H  H25  1  0.07957000  0.87990000  0.30776000  1.0
  H  H26  1  0.19208000  0.83483000  0.25719000  1.0
  H  H27  1  0.00506000  0.80307000  0.34939000  1.0
  H  H28  1  0.92814000  0.90868000  0.21958000  1.0
  H  H29  1  0.96477000  0.95527000  0.16314000  1.0
  H  H30  1  0.82342000  0.98353000  0.31525000  1.0
  H  H31  1  0.07955000  0.42794000  0.12013000  1.0
  H  H32  1  0.19210000  0.42237000  0.16514000  1.0
  H  H33  1  0.00491000  0.54661000  0.19716000  1.0
  H  H34  1  0.92814000  0.31072000  0.09133000  1.0
  H  H35  1  0.96485000  0.20769000  0.04460000  1.0
  H  H36  1  0.82346000  0.33174000  0.01644000  1.0
  H  H37  1  0.42043000  0.69223000  0.12011000  1.0
  H  H38  1  0.30791000  0.74280000  0.16518000  1.0
  H  H39  1  0.49645000  0.65080000  0.19733000  1.0
  H  H40  1  0.57174000  0.78064000  0.09139000  1.0
  H  H41  1  0.53516000  0.83706000  0.04476000  1.0
  H  H42  1  0.67638000  0.68422000  0.01619000  1.0
  H  H43  1  0.42046000  0.87987000  0.57203000  1.0
  H  H44  1  0.30793000  0.83486000  0.57761000  1.0
  H  H45  1  0.49654000  0.80237000  0.45306000  1.0
  H  H46  1  0.57172000  0.90862000  0.68942000  1.0
  H  H47  1  0.53508000  0.95536000  0.79247000  1.0
  H  H48  1  0.67635000  0.98385000  0.66804000  1.0
  H  H49  1  0.42039000  0.42776000  0.30778000  1.0
  H  H50  1  0.30788000  0.42239000  0.25723000  1.0
  H  H51  1  0.49642000  0.54681000  0.34928000  1.0
  H  H52  1  0.57167000  0.31060000  0.21915000  1.0
  H  H53  1  0.53516000  0.20757000  0.16285000  1.0
  H  H54  1  0.67639000  0.33195000  0.31577000  1.0
  H  H55  1  0.92042000  0.30776000  0.87990000  1.0
  H  H56  1  0.80790000  0.25719000  0.83483000  1.0
  H  H57  1  0.99492000  0.34939000  0.80306000  1.0
  H  H58  1  0.07184000  0.21958000  0.90868000  1.0
  H  H59  1  0.03521000  0.16314000  0.95526000  1.0
  H  H60  1  0.17657000  0.31525000  0.98352000  1.0
  H  H61  1  0.92044000  0.12013000  0.42794000  1.0
  H  H62  1  0.80789000  0.16514000  0.42237000  1.0
  H  H63  1  0.99508000  0.19716000  0.54661000  1.0
  H  H64  1  0.07185000  0.09133000  0.31072000  1.0
  H  H65  1  0.03514000  0.04460000  0.20769000  1.0
  H  H66  1  0.17653000  0.01644000  0.33174000  1.0
  H  H67  1  0.92036000  0.57226000  0.69224000  1.0
  H  H68  1  0.80783000  0.57764000  0.74279000  1.0
  H  H69  1  0.99485000  0.45343000  0.65054000  1.0
  H  H70  1  0.07179000  0.68925000  0.78064000  1.0
  H  H71  1  0.03521000  0.79225000  0.83695000  1.0
  H  H72  1  0.17655000  0.66830000  0.68477000  1.0
  H  H73  1  0.42039000  0.69222000  0.57224000  1.0
  H  H74  1  0.30787000  0.74277000  0.57761000  1.0
  H  H75  1  0.49642000  0.65072000  0.45319000  1.0
  H  H76  1  0.57167000  0.78085000  0.68940000  1.0
  H  H77  1  0.53515000  0.83715000  0.79243000  1.0
  H  H78  1  0.67638000  0.68423000  0.66805000  1.0
  H  H79  1  0.42043000  0.87990000  0.30778000  1.0
  H  H80  1  0.30791000  0.83482000  0.25720000  1.0
  H  H81  1  0.49645000  0.80267000  0.34921000  1.0
  H  H82  1  0.57173000  0.90861000  0.21936000  1.0
  H  H83  1  0.53516000  0.95525000  0.16294000  1.0
  H  H84  1  0.67637000  0.98381000  0.31578000  1.0
  H  H85  1  0.42047000  0.42797000  0.12013000  1.0
  H  H86  1  0.30793000  0.42239000  0.16514000  1.0
  H  H87  1  0.49654000  0.54695000  0.19763000  1.0
  H  H88  1  0.57172000  0.31058000  0.09138000  1.0
  H  H89  1  0.53509000  0.20753000  0.04464000  1.0
  H  H90  1  0.67635000  0.33196000  0.01615000  1.0
  H  H91  1  0.92036000  0.30776000  0.42774000  1.0
  H  H92  1  0.80784000  0.25721000  0.42236000  1.0
  H  H93  1  0.99485000  0.34946000  0.54657000  1.0
  H  H94  1  0.07180000  0.21936000  0.31076000  1.0
  H  H95  1  0.03521000  0.16305000  0.20775000  1.0
  H  H96  1  0.17655000  0.31523000  0.33170000  1.0
  H  H97  1  0.92042000  0.12010000  0.69224000  1.0
  H  H98  1  0.80790000  0.16517000  0.74281000  1.0
  H  H99  1  0.99493000  0.19694000  0.65061000  1.0
  H  H100  1  0.07185000  0.09132000  0.78042000  1.0
  H  H101  1  0.03522000  0.04473000  0.83686000  1.0
  H  H102  1  0.17657000  0.01648000  0.68475000  1.0
  H  H103  1  0.92043000  0.57206000  0.87987000  1.0
  H  H104  1  0.80789000  0.57763000  0.83486000  1.0
  H  H105  1  0.99508000  0.45339000  0.80284000  1.0
  H  H106  1  0.07185000  0.68929000  0.90867000  1.0
  H  H107  1  0.03513000  0.79231000  0.95539000  1.0
  H  H108  1  0.17653000  0.66826000  0.98356000  1.0
  H  H109  1  0.57956000  0.30778000  0.87989000  1.0
  H  H110  1  0.69208000  0.25720000  0.83482000  1.0
  H  H111  1  0.50353000  0.34921000  0.80267000  1.0
  H  H112  1  0.42825000  0.21936000  0.90861000  1.0
  H  H113  1  0.46483000  0.16294000  0.95524000  1.0
  H  H114  1  0.32361000  0.31578000  0.98381000  1.0
  H  H115  1  0.57952000  0.12013000  0.42797000  1.0
  H  H116  1  0.69206000  0.16514000  0.42239000  1.0
  H  H117  1  0.50345000  0.19763000  0.54694000  1.0
  H  H118  1  0.42827000  0.09138000  0.31058000  1.0
  H  H119  1  0.46490000  0.04464000  0.20753000  1.0
  H  H120  1  0.32364000  0.01615000  0.33196000  1.0
  H  H121  1  0.57959000  0.57224000  0.69222000  1.0
  H  H122  1  0.69211000  0.57761000  0.74277000  1.0
  H  H123  1  0.50357000  0.45319000  0.65071000  1.0
  H  H124  1  0.42831000  0.68940000  0.78085000  1.0
  H  H125  1  0.46483000  0.79243000  0.83715000  1.0
  H  H126  1  0.32360000  0.66805000  0.68423000  1.0
  H  H127  1  0.07957000  0.69224000  0.12010000  1.0
  H  H128  1  0.19208000  0.74281000  0.16517000  1.0
  H  H129  1  0.00506000  0.65061000  0.19694000  1.0
  H  H130  1  0.92814000  0.78042000  0.09132000  1.0
  H  H131  1  0.96477000  0.83687000  0.04474000  1.0
  H  H132  1  0.82342000  0.68475000  0.01648000  1.0
  H  H133  1  0.07955000  0.87988000  0.57206000  1.0
  H  H134  1  0.19210000  0.83487000  0.57763000  1.0
  H  H135  1  0.00491000  0.80284000  0.45339000  1.0
  H  H136  1  0.92813000  0.90867000  0.68928000  1.0
  H  H137  1  0.96485000  0.95540000  0.79231000  1.0
  H  H138  1  0.82345000  0.98356000  0.66826000  1.0
  H  H139  1  0.07963000  0.42774000  0.30776000  1.0
  H  H140  1  0.19215000  0.42236000  0.25721000  1.0
  H  H141  1  0.00513000  0.54658000  0.34946000  1.0
  H  H142  1  0.92819000  0.31076000  0.21936000  1.0
  H  H143  1  0.96478000  0.20775000  0.16305000  1.0
  H  H144  1  0.82344000  0.33170000  0.31523000  1.0
  H  H145  1  0.35142000  0.22275000  0.44534000  1.0
  H  H146  1  0.35147000  0.22267000  0.77733000  1.0
  H  H147  1  0.35141000  0.55466000  0.77725000  1.0
  H  H148  1  0.85146000  0.77721000  0.55457000  1.0
  H  H149  1  0.85148000  0.77729000  0.22272000  1.0
  H  H150  1  0.85146000  0.44543000  0.22279000  1.0
  H  H151  1  0.64852000  0.77733000  0.22267000  1.0
  H  H152  1  0.64857000  0.77725000  0.55466000  1.0
  H  H153  1  0.64857000  0.44534000  0.22275000  1.0
  H  H154  1  0.14851000  0.22272000  0.77728000  1.0
  H  H155  1  0.14853000  0.22279000  0.44543000  1.0
  H  H156  1  0.14853000  0.55457000  0.77721000  1.0
  H  H157  1  0.49999000  0.42617000  0.42617000  1.0
  H  H158  1  0.49999000  0.99983000  0.57357000  1.0
  H  H159  1  0.50000000  0.57357000  0.99983000  1.0
  H  H160  1  0.99999000  0.57362000  0.57362000  1.0
  H  H161  1  0.00004000  0.00021000  0.42666000  1.0
  H  H162  1  0.99995000  0.42666000  0.00021000  1.0
  H  H163  1  0.49999000  0.57384000  0.57383000  1.0
  H  H164  1  0.50000000  0.00017000  0.42643000  1.0
  H  H165  1  0.50000000  0.42643000  0.00017000  1.0
  H  H166  1  0.00000000  0.42638000  0.42638000  1.0
  H  H167  1  0.99995000  0.99979000  0.57334000  1.0
  H  H168  1  0.00004000  0.57334000  0.99979000  1.0
  C  C1  1  0.51652000  0.24237000  0.43186000  1.0
  C  C2  1  0.57959000  0.26753000  0.42818000  1.0
  C  C3  1  0.64215000  0.23874000  0.42496000  1.0
  C  C4  1  0.48015000  0.39026000  0.55787000  1.0
  C  C5  1  0.47936000  0.29655000  0.32204000  1.0
  C  C6  1  0.45881000  0.23882000  0.29065000  1.0
  C  C7  1  0.47984000  0.20778000  0.23330000  1.0
  C  C8  1  0.28684000  0.31843000  0.36404000  1.0
  C  C9  1  0.51653000  0.18954000  0.75766000  1.0
  C  C10  1  0.57958000  0.16072000  0.73248000  1.0
  C  C11  1  0.64212000  0.18625000  0.76127000  1.0
  C  C12  1  0.48008000  0.16751000  0.60980000  1.0
  C  C13  1  0.47932000  0.02548000  0.70329000  1.0
  C  C14  1  0.45877000  0.05180000  0.76102000  1.0
  C  C15  1  0.47982000  0.02553000  0.79212000  1.0
  C  C16  1  0.28685000  0.04559000  0.68149000  1.0
  C  C17  1  0.51649000  0.56810000  0.81043000  1.0
  C  C18  1  0.57955000  0.57173000  0.83926000  1.0
  C  C19  1  0.64212000  0.57501000  0.81375000  1.0
  C  C20  1  0.48012000  0.44202000  0.83235000  1.0
  C  C21  1  0.47938000  0.67786000  0.97452000  1.0
  C  C22  1  0.45879000  0.70930000  0.94821000  1.0
  C  C23  1  0.47984000  0.76666000  0.97452000  1.0
  C  C24  1  0.28685000  0.63596000  0.95443000  1.0
  C  C25  1  0.01652000  0.75762000  0.56813000  1.0
  C  C26  1  0.07961000  0.73248000  0.57183000  1.0
  C  C27  1  0.14217000  0.76127000  0.57505000  1.0
  C  C28  1  0.98102000  0.60970000  0.44221000  1.0
  C  C29  1  0.97931000  0.70323000  0.67776000  1.0
  C  C30  1  0.95873000  0.76096000  0.70916000  1.0
  C  C31  1  0.97981000  0.79202000  0.76651000  1.0
  C  C32  1  0.78667000  0.68183000  0.63606000  1.0
  C  C33  1  0.01651000  0.81045000  0.24235000  1.0
  C  C34  1  0.07956000  0.83928000  0.26751000  1.0
  C  C35  1  0.14212000  0.81376000  0.23873000  1.0
  C  C36  1  0.98099000  0.83260000  0.39026000  1.0
  C  C37  1  0.97929000  0.97457000  0.29694000  1.0
  C  C38  1  0.95871000  0.94825000  0.23921000  1.0
  C  C39  1  0.97979000  0.97449000  0.20808000  1.0
  C  C40  1  0.78667000  0.95426000  0.31826000  1.0
  C  C41  1  0.01650000  0.43191000  0.18957000  1.0
  C  C42  1  0.07956000  0.42827000  0.16074000  1.0
  C  C43  1  0.14215000  0.42498000  0.18624000  1.0
  C  C44  1  0.98099000  0.55787000  0.16750000  1.0
  C  C45  1  0.97933000  0.32234000  0.02548000  1.0
  C  C46  1  0.95872000  0.29086000  0.05176000  1.0
  C  C47  1  0.97982000  0.23352000  0.02547000  1.0
  C  C48  1  0.78667000  0.36396000  0.04573000  1.0
  C  C49  1  0.48346000  0.75766000  0.18954000  1.0
  C  C50  1  0.42041000  0.73248000  0.16072000  1.0
  C  C51  1  0.35786000  0.76127000  0.18625000  1.0
  C  C52  1  0.51991000  0.60980000  0.16751000  1.0
  C  C53  1  0.52067000  0.70329000  0.02548000  1.0
  C  C54  1  0.54122000  0.76102000  0.05180000  1.0
  C  C55  1  0.52017000  0.79212000  0.02553000  1.0
  C  C56  1  0.71314000  0.68149000  0.04559000  1.0
  C  C57  1  0.48349000  0.81044000  0.56810000  1.0
  C  C58  1  0.42043000  0.83926000  0.57173000  1.0
  C  C59  1  0.35786000  0.81375000  0.57501000  1.0
  C  C60  1  0.51987000  0.83235000  0.44202000  1.0
  C  C61  1  0.52060000  0.97452000  0.67786000  1.0
  C  C62  1  0.54119000  0.94821000  0.70930000  1.0
  C  C63  1  0.52014000  0.97452000  0.76666000  1.0
  C  C64  1  0.71313000  0.95443000  0.63596000  1.0
  C  C65  1  0.48347000  0.43186000  0.24237000  1.0
  C  C66  1  0.42040000  0.42818000  0.26753000  1.0
  C  C67  1  0.35784000  0.42496000  0.23874000  1.0
  C  C68  1  0.51984000  0.55787000  0.39026000  1.0
  C  C69  1  0.52063000  0.32204000  0.29655000  1.0
  C  C70  1  0.54118000  0.29065000  0.23882000  1.0
  C  C71  1  0.52015000  0.23330000  0.20778000  1.0
  C  C72  1  0.71315000  0.36404000  0.31842000  1.0
  C  C73  1  0.98347000  0.24235000  0.81045000  1.0
  C  C74  1  0.92042000  0.26751000  0.83928000  1.0
  C  C75  1  0.85786000  0.23872000  0.81375000  1.0
  C  C76  1  0.01899000  0.39026000  0.83259000  1.0
  C  C77  1  0.02069000  0.29694000  0.97456000  1.0
  C  C78  1  0.04128000  0.23921000  0.94825000  1.0
  C  C79  1  0.02020000  0.20808000  0.97448000  1.0
  C  C80  1  0.21332000  0.31826000  0.95426000  1.0
  C  C81  1  0.98350000  0.18957000  0.43191000  1.0
  C  C82  1  0.92043000  0.16074000  0.42826000  1.0
  C  C83  1  0.85784000  0.18624000  0.42498000  1.0
  C  C84  1  0.01900000  0.16750000  0.55787000  1.0
  C  C85  1  0.02067000  0.02548000  0.32234000  1.0
  C  C86  1  0.04127000  0.05176000  0.29086000  1.0
  C  C87  1  0.02018000  0.02547000  0.23352000  1.0
  C  C88  1  0.21332000  0.04572000  0.36395000  1.0
  C  C89  1  0.98346000  0.56813000  0.75762000  1.0
  C  C90  1  0.92038000  0.57183000  0.73248000  1.0
  C  C91  1  0.85781000  0.57506000  0.76127000  1.0
  C  C92  1  0.01896000  0.44221000  0.60970000  1.0
  C  C93  1  0.02067000  0.67776000  0.70323000  1.0
  C  C94  1  0.04125000  0.70917000  0.76096000  1.0
  C  C95  1  0.02017000  0.76651000  0.79202000  1.0
  C  C96  1  0.21331000  0.63606000  0.68183000  1.0
  C  C97  1  0.48347000  0.75763000  0.56814000  1.0
  C  C98  1  0.42040000  0.73247000  0.57182000  1.0
  C  C99  1  0.35784000  0.76126000  0.57504000  1.0
  C  C100  1  0.51984000  0.60974000  0.44213000  1.0
  C  C101  1  0.52063000  0.70345000  0.67796000  1.0
  C  C102  1  0.54118000  0.76118000  0.70935000  1.0
  C  C103  1  0.52014000  0.79222000  0.76670000  1.0
  C  C104  1  0.71315000  0.68158000  0.63596000  1.0
  C  C105  1  0.48346000  0.81046000  0.24234000  1.0
  C  C106  1  0.42041000  0.83929000  0.26752000  1.0
  C  C107  1  0.35786000  0.81375000  0.23873000  1.0
  C  C108  1  0.51990000  0.83249000  0.39020000  1.0
  C  C109  1  0.52066000  0.97452000  0.29671000  1.0
  C  C110  1  0.54122000  0.94820000  0.23898000  1.0
  C  C111  1  0.52017000  0.97447000  0.20788000  1.0
  C  C112  1  0.71313000  0.95441000  0.31851000  1.0
  C  C113  1  0.48349000  0.43191000  0.18957000  1.0
  C  C114  1  0.42044000  0.42827000  0.16074000  1.0
  C  C115  1  0.35787000  0.42499000  0.18625000  1.0
  C  C116  1  0.51987000  0.55798000  0.16765000  1.0
  C  C117  1  0.52061000  0.32214000  0.02548000  1.0
  C  C118  1  0.54119000  0.29070000  0.05179000  1.0
  C  C119  1  0.52015000  0.23334000  0.02548000  1.0
  C  C120  1  0.71314000  0.36404000  0.04557000  1.0
  C  C121  1  0.98347000  0.24238000  0.43187000  1.0
  C  C122  1  0.92038000  0.26752000  0.42817000  1.0
  C  C123  1  0.85781000  0.23873000  0.42494000  1.0
  C  C124  1  0.01896000  0.39030000  0.55779000  1.0
  C  C125  1  0.02067000  0.29677000  0.32224000  1.0
  C  C126  1  0.04125000  0.23904000  0.29084000  1.0
  C  C127  1  0.02018000  0.20798000  0.23349000  1.0
  C  C128  1  0.21332000  0.31817000  0.36394000  1.0
  C  C129  1  0.98347000  0.18955000  0.75765000  1.0
  C  C130  1  0.92042000  0.16072000  0.73249000  1.0
  C  C131  1  0.85786000  0.18625000  0.76127000  1.0
  C  C132  1  0.01899000  0.16741000  0.60974000  1.0
  C  C133  1  0.02070000  0.02544000  0.70306000  1.0
  C  C134  1  0.04128000  0.05175000  0.76079000  1.0
  C  C135  1  0.02020000  0.02551000  0.79192000  1.0
  C  C136  1  0.21332000  0.04574000  0.68174000  1.0
  C  C137  1  0.98349000  0.56809000  0.81043000  1.0
  C  C138  1  0.92043000  0.57174000  0.83926000  1.0
  C  C139  1  0.85784000  0.57502000  0.81376000  1.0
  C  C140  1  0.01900000  0.44213000  0.83250000  1.0
  C  C141  1  0.02066000  0.67766000  0.97452000  1.0
  C  C142  1  0.04126000  0.70914000  0.94824000  1.0
  C  C143  1  0.02017000  0.76648000  0.97453000  1.0
  C  C144  1  0.21332000  0.63605000  0.95427000  1.0
  C  C145  1  0.51653000  0.24234000  0.81046000  1.0
  C  C146  1  0.57957000  0.26752000  0.83928000  1.0
  C  C147  1  0.64212000  0.23873000  0.81375000  1.0
  C  C148  1  0.48008000  0.39020000  0.83249000  1.0
  C  C149  1  0.47932000  0.29671000  0.97452000  1.0
  C  C150  1  0.45877000  0.23898000  0.94820000  1.0
  C  C151  1  0.47982000  0.20788000  0.97447000  1.0
  C  C152  1  0.28685000  0.31851000  0.95441000  1.0
  C  C153  1  0.51650000  0.18957000  0.43190000  1.0
  C  C154  1  0.57955000  0.16074000  0.42827000  1.0
  C  C155  1  0.64212000  0.18625000  0.42499000  1.0
  C  C156  1  0.48012000  0.16765000  0.55798000  1.0
  C  C157  1  0.47939000  0.02548000  0.32214000  1.0
  C  C158  1  0.45880000  0.05179000  0.29070000  1.0
  C  C159  1  0.47985000  0.02548000  0.23334000  1.0
  C  C160  1  0.28686000  0.04557000  0.36404000  1.0
  C  C161  1  0.51652000  0.56814000  0.75763000  1.0
  C  C162  1  0.57959000  0.57183000  0.73247000  1.0
  C  C163  1  0.64214000  0.57504000  0.76126000  1.0
  C  C164  1  0.48015000  0.44213000  0.60974000  1.0
  C  C165  1  0.47935000  0.67796000  0.70345000  1.0
  C  C166  1  0.45880000  0.70935000  0.76118000  1.0
  C  C167  1  0.47984000  0.76670000  0.79222000  1.0
  C  C168  1  0.28684000  0.63596000  0.68157000  1.0
  C  C169  1  0.01651000  0.75765000  0.18955000  1.0
  C  C170  1  0.07957000  0.73249000  0.16072000  1.0
  C  C171  1  0.14212000  0.76128000  0.18625000  1.0
  C  C172  1  0.98100000  0.60974000  0.16741000  1.0
  C  C173  1  0.97929000  0.70307000  0.02544000  1.0
  C  C174  1  0.95871000  0.76080000  0.05175000  1.0
  C  C175  1  0.97979000  0.79193000  0.02552000  1.0
  C  C176  1  0.78667000  0.68174000  0.04574000  1.0
  C  C177  1  0.01649000  0.81043000  0.56809000  1.0
  C  C178  1  0.07956000  0.83926000  0.57174000  1.0
  C  C179  1  0.14215000  0.81376000  0.57502000  1.0
  C  C180  1  0.98099000  0.83250000  0.44213000  1.0
  C  C181  1  0.97932000  0.97452000  0.67766000  1.0
  C  C182  1  0.95872000  0.94824000  0.70914000  1.0
  C  C183  1  0.97981000  0.97453000  0.76648000  1.0
  C  C184  1  0.78666000  0.95428000  0.63605000  1.0
  C  C185  1  0.01652000  0.43187000  0.24238000  1.0
  C  C186  1  0.07961000  0.42817000  0.26752000  1.0
  C  C187  1  0.14218000  0.42495000  0.23873000  1.0
  C  C188  1  0.98102000  0.55780000  0.39030000  1.0
  C  C189  1  0.97932000  0.32224000  0.29677000  1.0
  C  C190  1  0.95874000  0.29084000  0.23904000  1.0
  C  C191  1  0.97981000  0.23349000  0.20798000  1.0
  C  C192  1  0.78668000  0.36394000  0.31817000  1.0
  C  C193  1  0.40821000  0.22004000  0.43999000  1.0
  C  C194  1  0.40825000  0.21999000  0.78001000  1.0
  C  C195  1  0.40821000  0.56001000  0.77996000  1.0
  C  C196  1  0.90823000  0.77993000  0.55997000  1.0
  C  C197  1  0.90824000  0.77999000  0.22001000  1.0
  C  C198  1  0.90823000  0.44003000  0.22008000  1.0
  C  C199  1  0.59174000  0.78001000  0.21999000  1.0
  C  C200  1  0.59178000  0.77996000  0.56001000  1.0
  C  C201  1  0.59178000  0.43999000  0.22004000  1.0
  C  C202  1  0.09175000  0.22001000  0.77999000  1.0
  C  C203  1  0.09176000  0.22008000  0.44003000  1.0
  C  C204  1  0.09175000  0.55997000  0.77992000  1.0
  C  C205  1  0.42174000  0.45274000  0.54726000  1.0
  C  C206  1  0.42173000  0.09446000  0.54720000  1.0
  C  C207  1  0.42173000  0.45280000  0.90554000  1.0
  C  C208  1  0.92073000  0.54767000  0.45233000  1.0
  C  C209  1  0.92079000  0.90473000  0.45233000  1.0
  C  C210  1  0.92079000  0.54767000  0.09527000  1.0
  C  C211  1  0.57826000  0.54720000  0.09446000  1.0
  C  C212  1  0.57826000  0.90554000  0.45280000  1.0
  C  C213  1  0.57825000  0.54726000  0.45274000  1.0
  C  C214  1  0.07919000  0.45233000  0.90473000  1.0
  C  C215  1  0.07920000  0.09527000  0.54767000  1.0
  C  C216  1  0.07925000  0.45233000  0.54767000  1.0
  C  C217  1  0.49999000  0.38588000  0.38587000  1.0
  C  C218  1  0.49993000  0.99997000  0.61394000  1.0
  C  C219  1  0.50006000  0.61395000  0.99997000  1.0
  C  C220  1  0.99999000  0.61391000  0.61391000  1.0
  C  C221  1  0.99997000  0.00006000  0.38627000  1.0
  C  C222  1  0.00003000  0.38627000  0.00006000  1.0
  C  C223  1  0.49999000  0.61413000  0.61413000  1.0
  C  C224  1  0.50006000  0.00003000  0.38606000  1.0
  C  C225  1  0.49993000  0.38606000  0.00003000  1.0
  C  C226  1  0.00000000  0.38609000  0.38609000  1.0
  C  C227  1  0.00003000  0.99994000  0.61373000  1.0
  C  C228  1  0.99997000  0.61373000  0.99994000  1.0
  C  C229  1  0.25015000  0.32526000  0.44289000  1.0
  C  C230  1  0.25015000  0.11755000  0.67459000  1.0
  C  C231  1  0.25017000  0.55713000  0.88241000  1.0
  C  C232  1  0.74984000  0.67474000  0.55711000  1.0
  C  C233  1  0.74983000  0.88245000  0.32541000  1.0
  C  C234  1  0.74982000  0.44287000  0.11759000  1.0
  C  C235  1  0.74984000  0.67459000  0.11756000  1.0
  C  C236  1  0.74982000  0.88241000  0.55713000  1.0
  C  C237  1  0.74984000  0.44289000  0.32526000  1.0
  C  C238  1  0.25015000  0.32541000  0.88244000  1.0
  C  C239  1  0.25017000  0.11759000  0.44287000  1.0
  C  C240  1  0.25015000  0.55711000  0.67474000  1.0
  N  N1  1  0.44672000  0.26063000  0.43694000  1.0
  N  N2  1  0.44285000  0.39737000  0.51840000  1.0
  N  N3  1  0.46666000  0.33851000  0.37886000  1.0
  N  N4  1  0.30987000  0.32300000  0.41439000  1.0
  N  N5  1  0.44673000  0.17638000  0.73942000  1.0
  N  N6  1  0.44280000  0.12089000  0.60258000  1.0
  N  N7  1  0.46662000  0.04034000  0.66131000  1.0
  N  N8  1  0.30988000  0.09135000  0.67688000  1.0
  N  N9  1  0.44668000  0.56301000  0.82360000  1.0
  N  N10  1  0.44288000  0.48156000  0.87891000  1.0
  N  N11  1  0.46673000  0.62102000  0.95964000  1.0
  N  N12  1  0.30988000  0.58563000  0.90864000  1.0
  N  N13  1  0.94672000  0.73934000  0.56304000  1.0
  N  N14  1  0.94260000  0.60285000  0.48137000  1.0
  N  N15  1  0.96660000  0.66126000  0.62094000  1.0
  N  N16  1  0.80963000  0.67740000  0.58573000  1.0
  N  N17  1  0.94671000  0.82360000  0.26059000  1.0
  N  N18  1  0.94263000  0.87865000  0.39715000  1.0
  N  N19  1  0.96657000  0.95971000  0.33893000  1.0
  N  N20  1  0.80963000  0.90837000  0.32272000  1.0
  N  N21  1  0.94668000  0.43702000  0.17643000  1.0
  N  N22  1  0.94265000  0.51867000  0.12148000  1.0
  N  N23  1  0.96663000  0.37918000  0.04036000  1.0
  N  N24  1  0.80961000  0.41427000  0.09164000  1.0
  N  N25  1  0.55326000  0.73942000  0.17638000  1.0
  N  N26  1  0.55719000  0.60258000  0.12089000  1.0
  N  N27  1  0.53337000  0.66131000  0.04034000  1.0
  N  N28  1  0.69011000  0.67688000  0.09135000  1.0
  N  N29  1  0.55330000  0.82360000  0.56301000  1.0
  N  N30  1  0.55710000  0.87891000  0.48156000  1.0
  N  N31  1  0.53326000  0.95964000  0.62102000  1.0
  N  N32  1  0.69010000  0.90865000  0.58563000  1.0
  N  N33  1  0.55327000  0.43694000  0.26063000  1.0
  N  N34  1  0.55713000  0.51840000  0.39737000  1.0
  N  N35  1  0.53333000  0.37886000  0.33851000  1.0
  N  N36  1  0.69012000  0.41439000  0.32299000  1.0
  N  N37  1  0.05327000  0.26059000  0.82360000  1.0
  N  N38  1  0.05735000  0.39715000  0.87865000  1.0
  N  N39  1  0.03342000  0.33893000  0.95970000  1.0
  N  N40  1  0.19035000  0.32272000  0.90837000  1.0
  N  N41  1  0.05331000  0.17643000  0.43702000  1.0
  N  N42  1  0.05735000  0.12147000  0.51866000  1.0
  N  N43  1  0.03336000  0.04036000  0.37918000  1.0
  N  N44  1  0.19038000  0.09164000  0.41427000  1.0
  N  N45  1  0.05326000  0.56304000  0.73934000  1.0
  N  N46  1  0.05738000  0.48137000  0.60284000  1.0
  N  N47  1  0.03339000  0.62094000  0.66126000  1.0
  N  N48  1  0.19035000  0.58573000  0.67740000  1.0
  N  N49  1  0.55327000  0.73937000  0.56306000  1.0
  N  N50  1  0.55713000  0.60263000  0.48160000  1.0
  N  N51  1  0.53332000  0.66149000  0.62114000  1.0
  N  N52  1  0.69012000  0.67701000  0.58561000  1.0
  N  N53  1  0.55325000  0.82362000  0.26058000  1.0
  N  N54  1  0.55719000  0.87911000  0.39742000  1.0
  N  N55  1  0.53337000  0.95966000  0.33869000  1.0
  N  N56  1  0.69011000  0.90865000  0.32312000  1.0
  N  N57  1  0.55331000  0.43700000  0.17640000  1.0
  N  N58  1  0.55710000  0.51844000  0.12109000  1.0
  N  N59  1  0.53326000  0.37898000  0.04036000  1.0
  N  N60  1  0.69011000  0.41437000  0.09136000  1.0
  N  N61  1  0.05327000  0.26066000  0.43696000  1.0
  N  N62  1  0.05739000  0.39716000  0.51863000  1.0
  N  N63  1  0.03339000  0.33874000  0.37906000  1.0
  N  N64  1  0.19036000  0.32260000  0.41427000  1.0
  N  N65  1  0.05327000  0.17640000  0.73941000  1.0
  N  N66  1  0.05736000  0.12135000  0.60284000  1.0
  N  N67  1  0.03342000  0.04029000  0.66107000  1.0
  N  N68  1  0.19036000  0.09163000  0.67728000  1.0
  N  N69  1  0.05331000  0.56298000  0.82357000  1.0
  N  N70  1  0.05734000  0.48134000  0.87852000  1.0
  N  N71  1  0.03336000  0.62082000  0.95964000  1.0
  N  N72  1  0.19037000  0.58573000  0.90836000  1.0
  N  N73  1  0.44673000  0.26058000  0.82362000  1.0
  N  N74  1  0.44280000  0.39742000  0.87911000  1.0
  N  N75  1  0.46661000  0.33869000  0.95966000  1.0
  N  N76  1  0.30988000  0.32312000  0.90865000  1.0
  N  N77  1  0.44668000  0.17640000  0.43699000  1.0
  N  N78  1  0.44289000  0.12109000  0.51844000  1.0
  N  N79  1  0.46673000  0.04036000  0.37898000  1.0
  N  N80  1  0.30989000  0.09136000  0.41437000  1.0
  N  N81  1  0.44672000  0.56306000  0.73937000  1.0
  N  N82  1  0.44285000  0.48160000  0.60263000  1.0
  N  N83  1  0.46666000  0.62114000  0.66149000  1.0
  N  N84  1  0.30987000  0.58561000  0.67701000  1.0
  N  N85  1  0.94671000  0.73941000  0.17640000  1.0
  N  N86  1  0.94263000  0.60285000  0.12135000  1.0
  N  N87  1  0.96657000  0.66108000  0.04030000  1.0
  N  N88  1  0.80963000  0.67729000  0.09163000  1.0
  N  N89  1  0.94667000  0.82357000  0.56298000  1.0
  N  N90  1  0.94264000  0.87853000  0.48134000  1.0
  N  N91  1  0.96662000  0.95964000  0.62082000  1.0
  N  N92  1  0.80961000  0.90836000  0.58573000  1.0
  N  N93  1  0.94672000  0.43696000  0.26066000  1.0
  N  N94  1  0.94260000  0.51863000  0.39716000  1.0
  N  N95  1  0.96660000  0.37906000  0.33874000  1.0
  N  N96  1  0.80963000  0.41427000  0.32260000  1.0
  N  N97  1  0.38173000  0.47855000  0.52145000  1.0
  N  N98  1  0.38195000  0.04270000  0.52122000  1.0
  N  N99  1  0.38194000  0.47878000  0.95730000  1.0
  N  N100  1  0.87973000  0.52205000  0.47795000  1.0
  N  N101  1  0.87971000  0.95590000  0.47796000  1.0
  N  N102  1  0.87972000  0.52204000  0.04410000  1.0
  N  N103  1  0.61804000  0.52122000  0.04270000  1.0
  N  N104  1  0.61804000  0.95730000  0.47878000  1.0
  N  N105  1  0.61825000  0.52145000  0.47855000  1.0
  N  N106  1  0.12027000  0.47796000  0.95590000  1.0
  N  N107  1  0.12028000  0.04410000  0.52204000  1.0
  N  N108  1  0.12026000  0.47795000  0.52205000  1.0
  N  N109  1  0.25042000  0.32929000  0.49788000  1.0
  N  N110  1  0.25042000  0.16850000  0.67057000  1.0
  N  N111  1  0.25043000  0.50221000  0.83138000  1.0
  N  N112  1  0.74957000  0.67071000  0.50212000  1.0
  N  N113  1  0.74956000  0.83150000  0.32943000  1.0
  N  N114  1  0.74956000  0.49779000  0.16862000  1.0
  N  N115  1  0.74957000  0.67057000  0.16850000  1.0
  N  N116  1  0.74955000  0.83138000  0.50221000  1.0
  N  N117  1  0.74957000  0.49788000  0.32929000  1.0
  N  N118  1  0.25042000  0.32943000  0.83150000  1.0
  N  N119  1  0.25043000  0.16862000  0.49779000  1.0
  N  N120  1  0.25042000  0.50212000  0.67071000  1.0
  O  O1  1  0.36595000  0.44795000  0.46952000  1.0
  O  O2  1  0.30907000  0.33077000  0.51984000  1.0
  O  O3  1  0.36623000  0.02113000  0.55163000  1.0
  O  O4  1  0.30908000  0.18899000  0.66910000  1.0
  O  O5  1  0.36650000  0.53076000  0.97859000  1.0
  O  O6  1  0.30908000  0.48027000  0.81085000  1.0
  O  O7  1  0.86363000  0.55268000  0.52977000  1.0
  O  O8  1  0.80798000  0.66969000  0.48002000  1.0
  O  O9  1  0.86359000  0.97719000  0.44742000  1.0
  O  O10  1  0.80799000  0.81042000  0.33045000  1.0
  O  O11  1  0.86352000  0.47026000  0.02308000  1.0
  O  O12  1  0.80796000  0.51988000  0.18973000  1.0
  O  O13  1  0.63376000  0.55164000  0.02113000  1.0
  O  O14  1  0.69091000  0.66910000  0.18899000  1.0
  O  O15  1  0.63348000  0.97860000  0.53076000  1.0
  O  O16  1  0.69091000  0.81085000  0.48027000  1.0
  O  O17  1  0.63404000  0.46952000  0.44795000  1.0
  O  O18  1  0.69092000  0.51984000  0.33077000  1.0
  O  O19  1  0.13639000  0.44742000  0.97719000  1.0
  O  O20  1  0.19200000  0.33045000  0.81041000  1.0
  O  O21  1  0.13647000  0.02308000  0.47026000  1.0
  O  O22  1  0.19203000  0.18973000  0.51988000  1.0
  O  O23  1  0.13636000  0.52977000  0.55268000  1.0
  O  O24  1  0.19201000  0.48002000  0.66969000  1.0
  O  O25  1  0.63404000  0.55205000  0.53048000  1.0
  O  O26  1  0.69092000  0.66923000  0.48016000  1.0
  O  O27  1  0.63376000  0.97887000  0.44837000  1.0
  O  O28  1  0.69091000  0.81102000  0.33090000  1.0
  O  O29  1  0.63349000  0.46924000  0.02141000  1.0
  O  O30  1  0.69091000  0.51973000  0.18915000  1.0
  O  O31  1  0.13636000  0.44732000  0.47023000  1.0
  O  O32  1  0.19201000  0.33031000  0.51998000  1.0
  O  O33  1  0.13640000  0.02281000  0.55258000  1.0
  O  O34  1  0.19200000  0.18958000  0.66955000  1.0
  O  O35  1  0.13646000  0.52974000  0.97692000  1.0
  O  O36  1  0.19203000  0.48012000  0.81027000  1.0
  O  O37  1  0.36622000  0.44837000  0.97887000  1.0
  O  O38  1  0.30908000  0.33090000  0.81101000  1.0
  O  O39  1  0.36651000  0.02141000  0.46924000  1.0
  O  O40  1  0.30908000  0.18915000  0.51973000  1.0
  O  O41  1  0.36595000  0.53048000  0.55205000  1.0
  O  O42  1  0.30907000  0.48016000  0.66923000  1.0
  O  O43  1  0.86360000  0.55258000  0.02281000  1.0
  O  O44  1  0.80799000  0.66955000  0.18958000  1.0
  O  O45  1  0.86352000  0.97693000  0.52974000  1.0
  O  O46  1  0.80796000  0.81027000  0.48012000  1.0
  O  O47  1  0.86363000  0.47023000  0.44732000  1.0
  O  O48  1  0.80798000  0.51998000  0.33031000  1.0
