# generated using pymatgen
data_H14C14N3
_symmetry_space_group_name_H-M   'P 1'
_cell_length_a   9.99380000
_cell_length_b   15.09650000
_cell_length_c   15.09650000
_cell_angle_alpha   90.00000000
_cell_angle_beta   90.00000000
_cell_angle_gamma   90.00000000
_symmetry_Int_Tables_number   1
_chemical_formula_structural   H14C14N3
_chemical_formula_sum   'H28 C28 N6'
_cell_volume   2277.63011576
_cell_formula_units_Z   2
loop_
 _symmetry_equiv_pos_site_id
 _symmetry_equiv_pos_as_xyz
  1  'x, y, z'
loop_
 _atom_site_type_symbol
 _atom_site_label
 _atom_site_symmetry_multiplicity
 _atom_site_fract_x
 _atom_site_fract_y
 _atom_site_fract_z
 _atom_site_occupancy
  C  1  1  0.00376200  0.96288400  0.96193100  1
  C  2  1  0.01335400  0.87183700  0.98436000  1
  C  3  1  0.01344500  0.80514300  0.91865600  1
  C  4  1  0.00628600  0.83148400  0.82912100  1
  C  5  1  0.99646900  0.92116600  0.80365600  1
  C  6  1  0.99451300  0.98617500  0.87104200  1
  C  10  1  0.00325800  0.02953700  0.02938900  1
  C  11  1  0.92201200  0.02081700  0.10581900  1
  C  12  1  0.91937100  0.08659600  0.17248300  1
  C  13  1  0.00149100  0.16199600  0.16244100  1
  C  14  1  0.08446400  0.17281500  0.08756100  1
  C  15  1  0.08376300  0.10638100  0.02155500  1
  C  19  1  0.16749600  0.25380500  0.07703800  1
  C  22  1  0.83216800  0.07664100  0.25163300  1
  C  25  1  0.98961000  0.93993500  0.70687200  1
  C  28  1  0.01855300  0.70817000  0.93650100  1
  C  31  1  0.02710700  0.02251300  0.43335100  1
  C  32  1  0.05068300  0.03147000  0.52459800  1
  C  33  1  0.94259700  0.03737200  0.58447300  1
  C  34  1  0.81096300  0.03563100  0.55090900  1
  C  35  1  0.78496900  0.02479800  0.45923800  1
  C  36  1  0.89543700  0.01806800  0.39999800  1
  C  47  1  0.17626500  0.54902100  0.04026100  1
  C  48  1  0.20008000  0.45774000  0.03138900  1
  C  49  1  0.09239900  0.39890700  0.01843500  1
  C  50  1  0.96096800  0.43243800  0.01688900  1
  C  51  1  0.93479200  0.52431400  0.02478600  1
  C  52  1  0.04507900  0.58345900  0.03525800  1
  H  7  1  0.02175600  0.85399500  0.04942900  1
  H  8  1  0.98515200  0.05135500  0.85378600  1
  H  9  1  0.00697600  0.78366400  0.78084900  1
  H  16  1  0.86088600  0.96676000  0.11229500  1
  H  17  1  0.00027100  0.21008700  0.21022700  1
  H  18  1  0.14477200  0.11378600  0.96756100  1
  H  20  1  0.16930700  0.29174200  0.13888000  1
  H  21  1  0.27109000  0.23490700  0.06306700  1
  H  23  1  0.72981500  0.06289300  0.22996100  1
  H  24  1  0.82852600  0.13864800  0.28922400  1
  H  26  1  0.90993500  0.89773700  0.68021000  1
  H  27  1  0.08434300  0.91787400  0.67778600  1
  H  29  1  0.10317400  0.68206500  0.89845200  1
  H  30  1  0.92708600  0.67950800  0.90877300  1
  H  37  1  0.10706600  0.01636700  0.39141500  1
  H  38  1  0.14690400  0.03036500  0.54765700  1
  H  39  1  0.73289600  0.03717300  0.59481800  1
  H  41  1  0.58180100  0.02154700  0.47308100  1
  H  42  1  0.63357300  0.00736500  0.36989400  1
  H  44  1  0.83515500  0.94483400  0.29517300  1
  H  46  1  0.03767500  0.07393600  0.69603900  1
  H  53  1  0.25627900  0.59100400  0.04559100  1
  H  54  1  0.29624600  0.43457700  0.03154400  1
  H  55  1  0.88341800  0.38913500  0.00731800  1
  H  57  1  0.73207400  0.51084000  0.01360700  1
  H  58  1  0.78180800  0.61444700  0.02719100  1
  H  60  1  0.96049700  0.70011200  0.07009700  1
  H  62  1  0.16557300  0.29829200  0.94623200  1
  N  40  1  0.65599800  0.01835400  0.43141800  1
  N  43  1  0.88401200  0.00335100  0.30765400  1
  N  45  1  0.96135900  0.03227800  0.67761400  1
  N  56  1  0.80567300  0.55253200  0.02051400  1
  N  59  1  0.03512300  0.67725300  0.02953600  1
  N  61  1  0.11135100  0.30742000  0.00331900  1
