# generated using pymatgen
data_CdH18C30N2(Cl2O)2
_symmetry_space_group_name_H-M   'P 1'
_cell_length_a   10.15473000
_cell_length_b   19.16957000
_cell_length_c   21.04744000
_cell_angle_alpha   67.29313000
_cell_angle_beta   86.10229000
_cell_angle_gamma   83.91334000
_symmetry_Int_Tables_number   1
_chemical_formula_structural   CdH18C30N2(Cl2O)2
_chemical_formula_sum   'Cd3 H54 C90 N6 Cl12 O6'
_cell_volume   3756.63078766
_cell_formula_units_Z   3
loop_
 _symmetry_equiv_pos_site_id
 _symmetry_equiv_pos_as_xyz
  1  'x, y, z'
loop_
 _atom_site_type_symbol
 _atom_site_label
 _atom_site_symmetry_multiplicity
 _atom_site_fract_x
 _atom_site_fract_y
 _atom_site_fract_z
 _atom_site_occupancy
  Cd  Cd0  1  0.99320000  0.16176000  0.09487000  1
  Cd  Cd1  1  0.71984000  0.09960000  0.00816000  1
  Cd  Cd2  1  0.35693000  0.12745000  0.05249000  1
  H  H3  1  0.44689000  0.23861000  0.11692000  1
  H  H4  1  0.52223000  0.24249000  0.22643000  1
  H  H5  1  0.53457000  0.99758000  0.31353000  1
  H  H6  1  0.46503000  0.00459000  0.19896000  1
  H  H7  1  0.76090000  0.03332000  0.31395000  1
  H  H8  1  0.97072000  0.96464000  0.50197000  1
  H  H9  1  0.80443000  0.04124000  0.54517000  1
  H  H10  1  0.39271000  0.20214000  0.34016000  1
  H  H11  1  0.65273000  0.26244000  0.44349000  1
  H  H12  1  0.69236000  0.38362000  0.45187000  1
  H  H13  1  0.66901000  0.27928000  0.67296000  1
  H  H14  1  0.57937000  0.02050000  0.71906000  1
  H  H15  1  0.52034000  0.06328000  0.91599000  1
  H  H16  1  0.46955000  0.07782000  0.79650000  1
  H  H17  1  0.83457000  0.18498000  0.72750000  1
  H  H18  1  0.86581000  0.16909000  0.84951000  1
  H  H19  1  0.23168000  0.24490000  0.90845000  1
  H  H20  1  0.17580000  0.24947000  0.79237000  1
  H  H21  1  0.23685000  0.00458000  0.87498000  1
  H  H22  1  0.29257000  0.01146000  0.98650000  1
  H  H23  1  0.01906000  0.02969000  0.84511000  1
  H  H24  1  0.84800000  0.96648000  0.69612000  1
  H  H25  1  0.97970000  0.05622000  0.60235000  1
  H  H26  1  0.33053000  0.20895000  0.71100000  1
  H  H27  1  0.05390000  0.27754000  0.56348000  1
  H  H28  1  0.95533000  0.39709000  0.47718000  1
  H  H29  1  0.99272000  0.29877000  0.32404000  1
  H  H30  1  0.19409000  0.04501000  0.44274000  1
  H  H31  1  0.21229000  0.10981000  0.20955000  1
  H  H32  1  0.26619000  0.11123000  0.32314000  1
  H  H33  1  0.86048000  0.19721000  0.33996000  1
  H  H34  1  0.82490000  0.19248000  0.22546000  1
  H  H35  1  0.70437000  0.24292000  0.04903000  1
  H  H36  1  0.55760000  0.36062000  0.02946000  1
  H  H37  1  0.86794000  0.44509000  0.10369000  1
  H  H38  1  0.00591000  0.32355000  0.11750000  1
  H  H39  1  0.63374000  0.46656000  0.16336000  1
  H  H40  1  0.65319000  0.46858000  0.93327000  1
  H  H41  1  0.36986000  0.65175000  0.82361000  1
  H  H42  1  0.31745000  0.67966000  0.92862000  1
  H  H43  1  0.01339000  0.03183000  0.04322000  1
  H  H44  1  0.16797000  0.91678000  0.06902000  1
  H  H45  1  0.86540000  0.81424000  0.00802000  1
  H  H46  1  0.71521000  0.93084000  0.99511000  1
  H  H47  1  0.28101000  0.86126000  0.99491000  1
  H  H48  1  0.23270000  0.53025000  0.11218000  1
  H  H49  1  0.01208000  0.50008000  0.16905000  1
  H  H50  1  0.89988000  0.73695000  0.12045000  1
  H  H51  1  0.39334000  0.21407000  0.49923000  1
  H  H52  1  0.52615000  0.00970000  0.56134000  1
  H  H53  1  0.40175000  0.24142000  0.60041000  1
  H  H54  1  0.27015000  0.02815000  0.60801000  1
  H  H55  1  0.51796000  0.54361000  0.20813000  1
  H  H56  1  0.48771000  0.81247000  0.98606000  1
  C  C57  1  0.46973000  0.18678000  0.16163000  1
  C  C58  1  0.51054000  0.18841000  0.22274000  1
  C  C59  1  0.53378000  0.12000000  0.27974000  1
  C  C60  1  0.51890000  0.05224000  0.27108000  1
  C  C61  1  0.47898000  0.05562000  0.20784000  1
  C  C62  1  0.56083000  0.12146000  0.34746000  1
  C  C63  1  0.66828000  0.07639000  0.38950000  1
  C  C64  1  0.76621000  0.03318000  0.36542000  1
  C  C65  1  0.87250000  0.99400000  0.40575000  1
  C  C66  1  0.88570000  0.99560000  0.47150000  1
  C  C67  1  0.79233000  0.03818000  0.49541000  1
  C  C68  1  0.68165000  0.08016000  0.45583000  1
  C  C69  1  0.58868000  0.12747000  0.47964000  1
  C  C70  1  0.48747000  0.17146000  0.43609000  1
  C  C71  1  0.47586000  0.16832000  0.37069000  1
  C  C72  1  0.60176000  0.13168000  0.54798000  1
  C  C73  1  0.63556000  0.19972000  0.55352000  1
  C  C74  1  0.65602000  0.26575000  0.49373000  1
  C  C75  1  0.67797000  0.33345000  0.49809000  1
  C  C76  1  0.68199000  0.33731000  0.56355000  1
  C  C77  1  0.66575000  0.27440000  0.62337000  1
  C  C78  1  0.64416000  0.20375000  0.62012000  1
  C  C79  1  0.62706000  0.13666000  0.68088000  1
  C  C80  1  0.59230000  0.07208000  0.67389000  1
  C  C81  1  0.57707000  0.06991000  0.60850000  1
  C  C82  1  0.58625000  0.09048000  0.87221000  1
  C  C83  1  0.55935000  0.09829000  0.80576000  1
  C  C84  1  0.64803000  0.13303000  0.75109000  1
  C  C85  1  0.76018000  0.15950000  0.76712000  1
  C  C86  1  0.77948000  0.14967000  0.83512000  1
  C  C87  1  0.23245000  0.19340000  0.89809000  1
  C  C88  1  0.20160000  0.19530000  0.83391000  1
  C  C89  1  0.20381000  0.12713000  0.82349000  1
  C  C90  1  0.23302000  0.05914000  0.88003000  1
  C  C91  1  0.26383000  0.06241000  0.94213000  1
  C  C92  1  0.18535000  0.12871000  0.75382000  1
  C  C93  1  0.09602000  0.08350000  0.73993000  1
  C  C94  1  0.01580000  0.03380000  0.79233000  1
  C  C95  1  0.93037000  0.99218000  0.77600000  1
  C  C96  1  0.91742000  0.99926000  0.70740000  1
  C  C97  1  0.99112000  0.04896000  0.65556000  1
  C  C98  1  0.08339000  0.09156000  0.66969000  1
  C  C99  1  0.16155000  0.14147000  0.61498000  1
  C  C100  1  0.25055000  0.18162000  0.63179000  1
  C  C101  1  0.26008000  0.17629000  0.70003000  1
  C  C102  1  0.14453000  0.14972000  0.54288000  1
  C  C103  1  0.08177000  0.21782000  0.49406000  1
  C  C104  1  0.04098000  0.28170000  0.51126000  1
  C  C105  1  0.98612000  0.34868000  0.46330000  1
  C  C106  1  0.96945000  0.35388000  0.39555000  1
  C  C107  1  0.00522000  0.29293000  0.37669000  1
  C  C108  1  0.05993000  0.22310000  0.42552000  1
  C  C109  1  0.09758000  0.15822000  0.40813000  1
  C  C110  1  0.16281000  0.09415000  0.45565000  1
  C  C111  1  0.18739000  0.09010000  0.52220000  1
  C  C112  1  0.13851000  0.12995000  0.23988000  1
  C  C113  1  0.16725000  0.13071000  0.30325000  1
  C  C114  1  0.06892000  0.15735000  0.34049000  1
  C  C115  1  0.94270000  0.17975000  0.31198000  1
  C  C116  1  0.92196000  0.17654000  0.24850000  1
  C  C117  1  0.73792000  0.28883000  0.06040000  1
  C  C118  1  0.65570000  0.35496000  0.04969000  1
  C  C119  1  0.69993000  0.41295000  0.06578000  1
  C  C120  1  0.82805000  0.40133000  0.09147000  1
  C  C121  1  0.90485000  0.33394000  0.09951000  1
  C  C122  1  0.61197000  0.48220000  0.05817000  1
  C  C123  1  0.58594000  0.50132000  0.11514000  1
  C  C124  1  0.49401000  0.56289000  0.11293000  1
  C  C125  1  0.42629000  0.60641000  0.05329000  1
  C  C126  1  0.45484000  0.58979000  0.99294000  1
  C  C127  1  0.54922000  0.52759000  0.99464000  1
  C  C128  1  0.57933000  0.51389000  0.93333000  1
  C  C129  1  0.51553000  0.55849000  0.87339000  1
  C  C130  1  0.41949000  0.61827000  0.87142000  1
  C  C131  1  0.39065000  0.63337000  0.93006000  1
  C  C132  1  0.98296000  0.98224000  0.03700000  1
  C  C133  1  0.07076000  0.91791000  0.04968000  1
  C  C134  1  0.03172000  0.85513000  0.03930000  1
  C  C135  1  0.90110000  0.86028000  0.01835000  1
  C  C136  1  0.81797000  0.92573000  0.00931000  1
  C  C137  1  0.32422000  0.66813000  0.05302000  1
  C  C138  1  0.35386000  0.74335000  0.02490000  1
  C  C139  1  0.25596000  0.80281000  0.02091000  1
  C  C140  1  0.12829000  0.78901000  0.04755000  1
  C  C141  1  0.09593000  0.71194000  0.08134000  1
  C  C142  1  0.19427000  0.65178000  0.08186000  1
  C  C143  1  0.15952000  0.57565000  0.11300000  1
  C  C144  1  0.03707000  0.55849000  0.14457000  1
  C  C145  1  0.94445000  0.61800000  0.14671000  1
  C  C146  1  0.97223000  0.69285000  0.11634000  1
  N  N147  1  0.45256000  0.12168000  0.15453000  1
  N  N148  1  0.69478000  0.11515000  0.88717000  1
  N  N149  1  0.26610000  0.12811000  0.95076000  1
  N  N150  1  0.01834000  0.15319000  0.21224000  1
  N  N151  1  0.86057000  0.27817000  0.08487000  1
  N  N152  1  0.85805000  0.98646000  0.01743000  1
  Cl  Cl153  1  0.53686000  0.21595000  0.97687000  1
  Cl  Cl154  1  0.92874000  0.18092000  0.96733000  1
  Cl  Cl155  1  0.83113000  0.93175000  0.83998000  1
  Cl  Cl156  1  0.78312000  0.08448000  0.13386000  1
  Cl  Cl157  1  0.99584000  0.94463000  0.37418000  1
  Cl  Cl158  1  0.17427000  0.04034000  0.12737000  1
  Cl  Cl159  1  0.71087000  0.42318000  0.56814000  1
  Cl  Cl160  1  0.52096000  0.00684000  0.05121000  1
  Cl  Cl161  1  0.90127000  0.43919000  0.33482000  1
  Cl  Cl162  1  0.19661000  0.24682000  0.05257000  1
  Cl  Cl163  1  0.55282000  0.54105000  0.79844000  1
  Cl  Cl164  1  0.79116000  0.59659000  0.18943000  1
  O  O165  1  0.39418000  0.21961000  0.45073000  1
  O  O166  1  0.53940000  0.00327000  0.60901000  1
  O  O167  1  0.32842000  0.22881000  0.58010000  1
  O  O168  1  0.25345000  0.02387000  0.56450000  1
  O  O169  1  0.46601000  0.57983000  0.17043000  1
  O  O170  1  0.48052000  0.75845000  0.99959000  1
