# generated using pymatgen
data_Sr2H48C84ClO8
_symmetry_space_group_name_H-M   'P 1'
_cell_length_a   12.98667000
_cell_length_b   16.23664000
_cell_length_c   40.88152123
_cell_angle_alpha   89.99989114
_cell_angle_beta   99.04286070
_cell_angle_gamma   89.99776000
_symmetry_Int_Tables_number   1
_chemical_formula_structural   Sr2H48C84ClO8
_chemical_formula_sum   'Sr8 H192 C336 Cl4 O32'
_cell_volume   8513.13187093
_cell_formula_units_Z   4
loop_
 _symmetry_equiv_pos_site_id
 _symmetry_equiv_pos_as_xyz
  1  'x, y, z'
loop_
 _atom_site_type_symbol
 _atom_site_label
 _atom_site_symmetry_multiplicity
 _atom_site_fract_x
 _atom_site_fract_y
 _atom_site_fract_z
 _atom_site_occupancy
  Sr  Sr0  1  0.63112000  0.42793000  0.76394000  1
  Sr  Sr1  1  0.90082000  0.36106000  0.74394000  1
  Sr  Sr2  1  0.86877000  0.92782000  0.23599000  1
  Sr  Sr3  1  0.59917000  0.86149000  0.25602000  1
  Sr  Sr4  1  0.36889000  0.57208000  0.23606000  1
  Sr  Sr5  1  0.09917000  0.63890000  0.25606000  1
  Sr  Sr6  1  0.13122000  0.07218000  0.76401000  1
  Sr  Sr7  1  0.40083000  0.13852000  0.74398000  1
  H  H8  1  0.53426000  0.31576000  0.69370000  1
  H  H9  1  0.39688000  0.25860000  0.65084000  1
  H  H10  1  0.61109000  0.26186000  0.58037000  1
  H  H11  1  0.74925000  0.31990000  0.62365000  1
  H  H12  1  0.37157000  0.38186000  0.60579000  1
  H  H13  1  0.23671000  0.47702000  0.57866000  1
  H  H14  1  0.11787000  0.43396000  0.52746000  1
  H  H15  1  0.13841000  0.29736000  0.50270000  1
  H  H16  1  0.30710000  0.02319000  0.50849000  1
  H  H17  1  0.43340000  0.92383000  0.53797000  1
  H  H18  1  0.54844000  0.96503000  0.58996000  1
  H  H19  1  0.54051000  0.10649000  0.61187000  1
  H  H20  1  0.10211000  0.13106000  0.54097000  1
  H  H21  1  0.91563000  0.09184000  0.53270000  1
  H  H22  1  0.81924000  0.07025000  0.47562000  1
  H  H23  1  0.90885000  0.08575000  0.42718000  1
  H  H24  1  0.23665000  0.14329000  0.38093000  1
  H  H25  1  0.41839000  0.19108000  0.38947000  1
  H  H26  1  0.50900000  0.22525000  0.44631000  1
  H  H27  1  0.41718000  0.21023000  0.49439000  1
  H  H28  1  0.08477000  0.24404000  0.38096000  1
  H  H29  1  0.00517000  0.22879000  0.32144000  1
  H  H30  1  0.94846000  0.97275000  0.33777000  1
  H  H31  1  0.01591000  0.98940000  0.39789000  1
  H  H32  1  0.76009000  0.32633000  0.88066000  1
  H  H33  1  0.89836000  0.27632000  0.92581000  1
  H  H34  1  0.08351000  0.19838000  0.85259000  1
  H  H35  1  0.94447000  0.24374000  0.80832000  1
  H  H36  1  0.12081000  0.36058000  0.89485000  1
  H  H37  1  0.25835000  0.45957000  0.91770000  1
  H  H38  1  0.38207000  0.42455000  0.96878000  1
  H  H39  1  0.36512000  0.29327000  0.99800000  1
  H  H40  1  0.96240000  0.08550000  0.89604000  1
  H  H41  1  0.95874000  0.94660000  0.92091000  1
  H  H42  1  0.07329000  0.91451000  0.97406000  1
  H  H43  1  0.19615000  0.01901000  0.00146000  1
  H  H44  1  0.39586000  0.12620000  0.96153000  1
  H  H45  1  0.58303000  0.09065000  0.96626000  1
  H  H46  1  0.68939000  0.06956000  0.02194000  1
  H  H47  1  0.60855000  0.08059000  0.07237000  1
  H  H48  1  0.09906000  0.21678000  0.01534000  1
  H  H49  1  0.01990000  0.23574000  0.06594000  1
  H  H50  1  0.11823000  0.19578000  0.12113000  1
  H  H51  1  0.29584000  0.13930000  0.12558000  1
  H  H52  1  0.48581000  0.97010000  0.09499000  1
  H  H53  1  0.57468000  0.92827000  0.15035000  1
  H  H54  1  0.56026000  0.17772000  0.18501000  1
  H  H55  1  0.46362000  0.21863000  0.13011000  1
  H  H56  1  0.96577000  0.81580000  0.30631000  1
  H  H57  1  0.10316000  0.75861000  0.34916000  1
  H  H58  1  0.88893000  0.76185000  0.41964000  1
  H  H59  1  0.75077000  0.81987000  0.37635000  1
  H  H60  1  0.12846000  0.88187000  0.39422000  1
  H  H61  1  0.26330000  0.97702000  0.42135000  1
  H  H62  1  0.38213000  0.93396000  0.47255000  1
  H  H63  1  0.36160000  0.79736000  0.49731000  1
  H  H64  1  0.19290000  0.52318000  0.49152000  1
  H  H65  1  0.06662000  0.42382000  0.46205000  1
  H  H66  1  0.95159000  0.46502000  0.41006000  1
  H  H67  1  0.95951000  0.60648000  0.38814000  1
  H  H68  1  0.39791000  0.63107000  0.45905000  1
  H  H69  1  0.58438000  0.59184000  0.46732000  1
  H  H70  1  0.68076000  0.57023000  0.52441000  1
  H  H71  1  0.59115000  0.58575000  0.57285000  1
  H  H72  1  0.26333000  0.64328000  0.61908000  1
  H  H73  1  0.08159000  0.69107000  0.61054000  1
  H  H74  1  0.99098000  0.72526000  0.55370000  1
  H  H75  1  0.08281000  0.71025000  0.50562000  1
  H  H76  1  0.41495000  0.74404000  0.61912000  1
  H  H77  1  0.49517000  0.72898000  0.67855000  1
  H  H78  1  0.55183000  0.47288000  0.66226000  1
  H  H79  1  0.48391000  0.48939000  0.60219000  1
  H  H80  1  0.73988000  0.82632000  0.11935000  1
  H  H81  1  0.60162000  0.77633000  0.07419000  1
  H  H82  1  0.41644000  0.69839000  0.14741000  1
  H  H83  1  0.55544000  0.74376000  0.19169000  1
  H  H84  1  0.37919000  0.86053000  0.10514000  1
  H  H85  1  0.24164000  0.95955000  0.08230000  1
  H  H86  1  0.11790000  0.92455000  0.03122000  1
  H  H87  1  0.13486000  0.79327000  0.00200000  1
  H  H88  1  0.53757000  0.58553000  0.10395000  1
  H  H89  1  0.54124000  0.44661000  0.07910000  1
  H  H90  1  0.42671000  0.41450000  0.02595000  1
  H  H91  1  0.30385000  0.51900000  0.99854000  1
  H  H92  1  0.10412000  0.62620000  0.03851000  1
  H  H93  1  0.91689000  0.59066000  0.03373000  1
  H  H94  1  0.81058000  0.56954000  0.97805000  1
  H  H95  1  0.89150000  0.58062000  0.92765000  1
  H  H96  1  0.40104000  0.71679000  0.98466000  1
  H  H97  1  0.48012000  0.73574000  0.93405000  1
  H  H98  1  0.38177000  0.69575000  0.87886000  1
  H  H99  1  0.20414000  0.63928000  0.87444000  1
  H  H100  1  0.01433000  0.47046000  0.90519000  1
  H  H101  1  0.92515000  0.42821000  0.84995000  1
  H  H102  1  0.93915000  0.67777000  0.81517000  1
  H  H103  1  0.03633000  0.71849000  0.86999000  1
  H  H104  1  0.46574000  0.68425000  0.30631000  1
  H  H105  1  0.60311000  0.74140000  0.34916000  1
  H  H106  1  0.38890000  0.73814000  0.41963000  1
  H  H107  1  0.25074000  0.68011000  0.37635000  1
  H  H108  1  0.62842000  0.61814000  0.39421000  1
  H  H109  1  0.76328000  0.52299000  0.42134000  1
  H  H110  1  0.88212000  0.56604000  0.47254000  1
  H  H111  1  0.86158000  0.70265000  0.49730000  1
  H  H112  1  0.69289000  0.97681000  0.49151000  1
  H  H113  1  0.56659000  0.07618000  0.46203000  1
  H  H114  1  0.45155000  0.03497000  0.41004000  1
  H  H115  1  0.45948000  0.89351000  0.38813000  1
  H  H116  1  0.89789000  0.86895000  0.45904000  1
  H  H117  1  0.08436000  0.90816000  0.46730000  1
  H  H118  1  0.18076000  0.92975000  0.52439000  1
  H  H119  1  0.09115000  0.91425000  0.57283000  1
  H  H120  1  0.76334000  0.85671000  0.61907000  1
  H  H121  1  0.58160000  0.80892000  0.61053000  1
  H  H122  1  0.49100000  0.77476000  0.55370000  1
  H  H123  1  0.58281000  0.78977000  0.50561000  1
  H  H124  1  0.91523000  0.75597000  0.61905000  1
  H  H125  1  0.99482000  0.77122000  0.67856000  1
  H  H126  1  0.05153000  0.02725000  0.66224000  1
  H  H127  1  0.98408000  0.01060000  0.60211000  1
  H  H128  1  0.23990000  0.67368000  0.11934000  1
  H  H129  1  0.10163000  0.72369000  0.07419000  1
  H  H130  1  0.91649000  0.80162000  0.14742000  1
  H  H131  1  0.05553000  0.75626000  0.19169000  1
  H  H132  1  0.87918000  0.63943000  0.10515000  1
  H  H133  1  0.74164000  0.54043000  0.08230000  1
  H  H134  1  0.61792000  0.57545000  0.03122000  1
  H  H135  1  0.63487000  0.70673000  0.00200000  1
  H  H136  1  0.03759000  0.91450000  0.10396000  1
  H  H137  1  0.04126000  0.05340000  0.07910000  1
  H  H138  1  0.92670000  0.08549000  0.02594000  1
  H  H139  1  0.80385000  0.98100000  0.99855000  1
  H  H140  1  0.60413000  0.87381000  0.03847000  1
  H  H141  1  0.41696000  0.90935000  0.03374000  1
  H  H142  1  0.31060000  0.93044000  0.97806000  1
  H  H143  1  0.39145000  0.91941000  0.92764000  1
  H  H144  1  0.90093000  0.78322000  0.98466000  1
  H  H145  1  0.98010000  0.76426000  0.93407000  1
  H  H146  1  0.88176000  0.80422000  0.87887000  1
  H  H147  1  0.70415000  0.86071000  0.87442000  1
  H  H148  1  0.51418000  0.02991000  0.90501000  1
  H  H149  1  0.42532000  0.07173000  0.84965000  1
  H  H150  1  0.43974000  0.82228000  0.81500000  1
  H  H151  1  0.53638000  0.78137000  0.86990000  1
  H  H152  1  0.03422000  0.18420000  0.69369000  1
  H  H153  1  0.89683000  0.24139000  0.65084000  1
  H  H154  1  0.11106000  0.23816000  0.58036000  1
  H  H155  1  0.24923000  0.18013000  0.62365000  1
  H  H156  1  0.87154000  0.11814000  0.60578000  1
  H  H157  1  0.73669000  0.02298000  0.57865000  1
  H  H158  1  0.61786000  0.06604000  0.52745000  1
  H  H159  1  0.63840000  0.20264000  0.50269000  1
  H  H160  1  0.80709000  0.47682000  0.50848000  1
  H  H161  1  0.93338000  0.57618000  0.53796000  1
  H  H162  1  0.04842000  0.53498000  0.58995000  1
  H  H163  1  0.04048000  0.39353000  0.61186000  1
  H  H164  1  0.60208000  0.36893000  0.54095000  1
  H  H165  1  0.41561000  0.40816000  0.53268000  1
  H  H166  1  0.31923000  0.42977000  0.47559000  1
  H  H167  1  0.40884000  0.41426000  0.42715000  1
  H  H168  1  0.73666000  0.35672000  0.38092000  1
  H  H169  1  0.91840000  0.30893000  0.38946000  1
  H  H170  1  0.00901000  0.27475000  0.44630000  1
  H  H171  1  0.91718000  0.28976000  0.49438000  1
  H  H172  1  0.58505000  0.25596000  0.38089000  1
  H  H173  1  0.50482000  0.27102000  0.32145000  1
  H  H174  1  0.44816000  0.52713000  0.33774000  1
  H  H175  1  0.51608000  0.51061000  0.39781000  1
  H  H176  1  0.26011000  0.17368000  0.88065000  1
  H  H177  1  0.39837000  0.22368000  0.92581000  1
  H  H178  1  0.58355000  0.30162000  0.85259000  1
  H  H179  1  0.44456000  0.25625000  0.80832000  1
  H  H180  1  0.62080000  0.13948000  0.89486000  1
  H  H181  1  0.75835000  0.04045000  0.91770000  1
  H  H182  1  0.88209000  0.07546000  0.96878000  1
  H  H183  1  0.86514000  0.20673000  0.99801000  1
  H  H184  1  0.46242000  0.41448000  0.89605000  1
  H  H185  1  0.45875000  0.55339000  0.92090000  1
  H  H186  1  0.57328000  0.58550000  0.97405000  1
  H  H187  1  0.69614000  0.48101000  0.00146000  1
  H  H188  1  0.89588000  0.37381000  0.96150000  1
  H  H189  1  0.08310000  0.40934000  0.96627000  1
  H  H190  1  0.18942000  0.43046000  0.02196000  1
  H  H191  1  0.10851000  0.41939000  0.07236000  1
  H  H192  1  0.59896000  0.28321000  0.01534000  1
  H  H193  1  0.51988000  0.26427000  0.06596000  1
  H  H194  1  0.61822000  0.30425000  0.12114000  1
  H  H195  1  0.79585000  0.36072000  0.12557000  1
  H  H196  1  0.98568000  0.52955000  0.09482000  1
  H  H197  1  0.07487000  0.57177000  0.15006000  1
  H  H198  1  0.06084000  0.32222000  0.18484000  1
  H  H199  1  0.96365000  0.28150000  0.13001000  1
  C  C200  1  0.65036000  0.32229000  0.66134000  1
  C  C201  1  0.55070000  0.30527000  0.66873000  1
  C  C202  1  0.47301000  0.27370000  0.64450000  1
  C  C203  1  0.49387000  0.25876000  0.61238000  1
  C  C204  1  0.59436000  0.27498000  0.60511000  1
  C  C205  1  0.67178000  0.30677000  0.62929000  1
  C  C206  1  0.41255000  0.22855000  0.58533000  1
  C  C207  1  0.41788000  0.14747000  0.57304000  1
  C  C208  1  0.34921000  0.12278000  0.54334000  1
  C  C209  1  0.27655000  0.17940000  0.52674000  1
  C  C210  1  0.26525000  0.25811000  0.54049000  1
  C  C211  1  0.33343000  0.28272000  0.57037000  1
  C  C212  1  0.32074000  0.36327000  0.58331000  1
  C  C213  1  0.24529000  0.41625000  0.56820000  1
  C  C214  1  0.17851000  0.39209000  0.53885000  1
  C  C215  1  0.18926000  0.31575000  0.52523000  1
  C  C216  1  0.35792000  0.04113000  0.53110000  1
  C  C217  1  0.42793000  0.98592000  0.54757000  1
  C  C218  1  0.49376000  0.00951000  0.57716000  1
  C  C219  1  0.48953000  0.08821000  0.58935000  1
  C  C220  1  0.21901000  0.15851000  0.49334000  1
  C  C221  1  0.27166000  0.16834000  0.46572000  1
  C  C222  1  0.21786000  0.15144000  0.43273000  1
  C  C223  1  0.11128000  0.12711000  0.42784000  1
  C  C224  1  0.05962000  0.11544000  0.45561000  1
  C  C225  1  0.11453000  0.13101000  0.48870000  1
  C  C226  1  0.05992000  0.12073000  0.51613000  1
  C  C227  1  0.95614000  0.09884000  0.51152000  1
  C  C228  1  0.90167000  0.08595000  0.47914000  1
  C  C229  1  0.95192000  0.09413000  0.45197000  1
  C  C230  1  0.27500000  0.15874000  0.40572000  1
  C  C231  1  0.37728000  0.18470000  0.41056000  1
  C  C232  1  0.42874000  0.20373000  0.44281000  1
  C  C233  1  0.37743000  0.19550000  0.46967000  1
  C  C234  1  0.05650000  0.11769000  0.39349000  1
  C  C235  1  0.05230000  0.18520000  0.37160000  1
  C  C236  1  0.00963000  0.17672000  0.33837000  1
  C  C237  1  0.97459000  0.09940000  0.32588000  1
  C  C238  1  0.97584000  0.03242000  0.34764000  1
  C  C239  1  0.01423000  0.04185000  0.38123000  1
  C  C240  1  0.93833000  0.08897000  0.28933000  1
  C  C241  1  0.84413000  0.29006000  0.84160000  1
  C  C242  1  0.83082000  0.29776000  0.87487000  1
  C  C243  1  0.90879000  0.27109000  0.90001000  1
  C  C244  1  0.00160000  0.23676000  0.89240000  1
  C  C245  1  0.01338000  0.22658000  0.85917000  1
  C  C246  1  0.93483000  0.25277000  0.83404000  1
  C  C247  1  0.08468000  0.21207000  0.92003000  1
  C  C248  1  0.08308000  0.13270000  0.93404000  1
  C  C249  1  0.15286000  0.11311000  0.96422000  1
  C  C250  1  0.22550000  0.17240000  0.97897000  1
  C  C251  1  0.23394000  0.24886000  0.96306000  1
  C  C252  1  0.16266000  0.26890000  0.93320000  1
  C  C253  1  0.17355000  0.34645000  0.91754000  1
  C  C254  1  0.25035000  0.40123000  0.93018000  1
  C  C255  1  0.32008000  0.38165000  0.95953000  1
  C  C256  1  0.31126000  0.30826000  0.97564000  1
  C  C257  1  0.01358000  0.07053000  0.91895000  1
  C  C258  1  0.01160000  0.99350000  0.93279000  1
  C  C259  1  0.07731000  0.97518000  0.96305000  1
  C  C260  1  0.14559000  0.03330000  0.97835000  1
  C  C261  1  0.28973000  0.15504000  0.01183000  1
  C  C262  1  0.24516000  0.16783000  0.04096000  1
  C  C263  1  0.30387000  0.14813000  0.07309000  1
  C  C264  1  0.40815000  0.11927000  0.07573000  1
  C  C265  1  0.45421000  0.11052000  0.04662000  1
  C  C266  1  0.39376000  0.12700000  0.01441000  1
  C  C267  1  0.44257000  0.11672000  0.98573000  1
  C  C268  1  0.54666000  0.09654000  0.98836000  1
  C  C269  1  0.60681000  0.08384000  0.01990000  1
  C  C270  1  0.56156000  0.08992000  0.04821000  1
  C  C271  1  0.14218000  0.19986000  0.03938000  1
  C  C272  1  0.09810000  0.21047000  0.06766000  1
  C  C273  1  0.15394000  0.18813000  0.09897000  1
  C  C274  1  0.25368000  0.15710000  0.10153000  1
  C  C275  1  0.46759000  0.09735000  0.10851000  1
  C  C276  1  0.50155000  0.01570000  0.11466000  1
  C  C277  1  0.55209000  0.99220000  0.14580000  1
  C  C278  1  0.57382000  0.05001000  0.17148000  1
  C  C279  1  0.54302000  0.13213000  0.16539000  1
  C  C280  1  0.48913000  0.15509000  0.13441000  1
  C  C281  1  0.62962000  0.01985000  0.20452000  1
  C  C282  1  0.73482000  0.35340000  0.68761000  1
  C  C283  1  0.76598000  0.32718000  0.81479000  1
  C  C284  1  0.84967000  0.82227000  0.33867000  1
  C  C285  1  0.94933000  0.80527000  0.33127000  1
  C  C286  1  0.02703000  0.77369000  0.35551000  1
  C  C287  1  0.00616000  0.75875000  0.38763000  1
  C  C288  1  0.90565000  0.77495000  0.39489000  1
  C  C289  1  0.82825000  0.80674000  0.37072000  1
  C  C290  1  0.08748000  0.72855000  0.41468000  1
  C  C291  1  0.08214000  0.64746000  0.42697000  1
  C  C292  1  0.15080000  0.62277000  0.45667000  1
  C  C293  1  0.22347000  0.67940000  0.47328000  1
  C  C294  1  0.23477000  0.75811000  0.45952000  1
  C  C295  1  0.16659000  0.78272000  0.42964000  1
  C  C296  1  0.17928000  0.86327000  0.41670000  1
  C  C297  1  0.25472000  0.91625000  0.43181000  1
  C  C298  1  0.32150000  0.89209000  0.46116000  1
  C  C299  1  0.31075000  0.81575000  0.47478000  1
  C  C300  1  0.14210000  0.54112000  0.46892000  1
  C  C301  1  0.07209000  0.48591000  0.45245000  1
  C  C302  1  0.00625000  0.50951000  0.42285000  1
  C  C303  1  0.01048000  0.58820000  0.41066000  1
  C  C304  1  0.28099000  0.65851000  0.50668000  1
  C  C305  1  0.22834000  0.66835000  0.53430000  1
  C  C306  1  0.28213000  0.65146000  0.56729000  1
  C  C307  1  0.38870000  0.62712000  0.57219000  1
  C  C308  1  0.44038000  0.61545000  0.54442000  1
  C  C309  1  0.38548000  0.63101000  0.51133000  1
  C  C310  1  0.44008000  0.62073000  0.48389000  1
  C  C311  1  0.54388000  0.59884000  0.48851000  1
  C  C312  1  0.59832000  0.58594000  0.52088000  1
  C  C313  1  0.54807000  0.59412000  0.54805000  1
  C  C314  1  0.22498000  0.65875000  0.59429000  1
  C  C315  1  0.12270000  0.68471000  0.58945000  1
  C  C316  1  0.07125000  0.70374000  0.55720000  1
  C  C317  1  0.12255000  0.69551000  0.53034000  1
  C  C318  1  0.44345000  0.61773000  0.60655000  1
  C  C319  1  0.44766000  0.68526000  0.62843000  1
  C  C320  1  0.49086000  0.67694000  0.66162000  1
  C  C321  1  0.52644000  0.59979000  0.67413000  1
  C  C322  1  0.52467000  0.53262000  0.65241000  1
  C  C323  1  0.48580000  0.54191000  0.61883000  1
  C  C324  1  0.56317000  0.58980000  0.71069000  1
  C  C325  1  0.65580000  0.79008000  0.15841000  1
  C  C326  1  0.66914000  0.79778000  0.12514000  1
  C  C327  1  0.59120000  0.77110000  0.09999000  1
  C  C328  1  0.49839000  0.73675000  0.10759000  1
  C  C329  1  0.48658000  0.72657000  0.14083000  1
  C  C330  1  0.56509000  0.75278000  0.16596000  1
  C  C331  1  0.41534000  0.71207000  0.07997000  1
  C  C332  1  0.41692000  0.63271000  0.06595000  1
  C  C333  1  0.34716000  0.61311000  0.03578000  1
  C  C334  1  0.27453000  0.67240000  0.02104000  1
  C  C335  1  0.26606000  0.74887000  0.03694000  1
  C  C336  1  0.33734000  0.76889000  0.06680000  1
  C  C337  1  0.32645000  0.84644000  0.08246000  1
  C  C338  1  0.24964000  0.90122000  0.06981000  1
  C  C339  1  0.17990000  0.88164000  0.04047000  1
  C  C340  1  0.18872000  0.80826000  0.02436000  1
  C  C341  1  0.48642000  0.57054000  0.08105000  1
  C  C342  1  0.48839000  0.49351000  0.06721000  1
  C  C343  1  0.42269000  0.47518000  0.03695000  1
  C  C344  1  0.35442000  0.53330000  0.02165000  1
  C  C345  1  0.21030000  0.65505000  0.98818000  1
  C  C346  1  0.25491000  0.66785000  0.95907000  1
  C  C347  1  0.19620000  0.64816000  0.92694000  1
  C  C348  1  0.09193000  0.61933000  0.92432000  1
  C  C349  1  0.04583000  0.61056000  0.95341000  1
  C  C350  1  0.10627000  0.62702000  0.98562000  1
  C  C351  1  0.05743000  0.61673000  0.01430000  1
  C  C352  1  0.95332000  0.59654000  0.01164000  1
  C  C353  1  0.89318000  0.58383000  0.98011000  1
  C  C354  1  0.93847000  0.58995000  0.95181000  1
  C  C355  1  0.35790000  0.69988000  0.96063000  1
  C  C356  1  0.40192000  0.71047000  0.93233000  1
  C  C357  1  0.34607000  0.68811000  0.90103000  1
  C  C358  1  0.24633000  0.65711000  0.89848000  1
  C  C359  1  0.03233000  0.59745000  0.89156000  1
  C  C360  1  0.99829000  0.51586000  0.88548000  1
  C  C361  1  0.94783000  0.49215000  0.85436000  1
  C  C362  1  0.92611000  0.54977000  0.82861000  1
  C  C363  1  0.95663000  0.63199000  0.83470000  1
  C  C364  1  0.01053000  0.65506000  0.86566000  1
  C  C365  1  0.87012000  0.51955000  0.79559000  1
  C  C366  1  0.76517000  0.85337000  0.31240000  1
  C  C367  1  0.73391000  0.82724000  0.18521000  1
  C  C368  1  0.34963000  0.67772000  0.33866000  1
  C  C369  1  0.44929000  0.69473000  0.33127000  1
  C  C370  1  0.52698000  0.72631000  0.35550000  1
  C  C371  1  0.50612000  0.74124000  0.38762000  1
  C  C372  1  0.40563000  0.72503000  0.39489000  1
  C  C373  1  0.32822000  0.69323000  0.37072000  1
  C  C374  1  0.58744000  0.77145000  0.41467000  1
  C  C375  1  0.58211000  0.85254000  0.42696000  1
  C  C376  1  0.65078000  0.87723000  0.45666000  1
  C  C377  1  0.72345000  0.82060000  0.47327000  1
  C  C378  1  0.73474000  0.74189000  0.45951000  1
  C  C379  1  0.66656000  0.71728000  0.42963000  1
  C  C380  1  0.67925000  0.63674000  0.41669000  1
  C  C381  1  0.75470000  0.58375000  0.43180000  1
  C  C382  1  0.82148000  0.60791000  0.46115000  1
  C  C383  1  0.81073000  0.68425000  0.47477000  1
  C  C384  1  0.64208000  0.95888000  0.46891000  1
  C  C385  1  0.57206000  0.01408000  0.45243000  1
  C  C386  1  0.50623000  0.99049000  0.42284000  1
  C  C387  1  0.51046000  0.91179000  0.41065000  1
  C  C388  1  0.78099000  0.84149000  0.50667000  1
  C  C389  1  0.72833000  0.83167000  0.53428000  1
  C  C390  1  0.78214000  0.84857000  0.56728000  1
  C  C391  1  0.88871000  0.87290000  0.57216000  1
  C  C392  1  0.94037000  0.88456000  0.54439000  1
  C  C393  1  0.88547000  0.86899000  0.51130000  1
  C  C394  1  0.94007000  0.87927000  0.48387000  1
  C  C395  1  0.04385000  0.90116000  0.48848000  1
  C  C396  1  0.09832000  0.91405000  0.52086000  1
  C  C397  1  0.04807000  0.90587000  0.54803000  1
  C  C398  1  0.72499000  0.84126000  0.59428000  1
  C  C399  1  0.62271000  0.81530000  0.58944000  1
  C  C400  1  0.57125000  0.79627000  0.55719000  1
  C  C401  1  0.62256000  0.80450000  0.53033000  1
  C  C402  1  0.94349000  0.88231000  0.60651000  1
  C  C403  1  0.94770000  0.81480000  0.62841000  1
  C  C404  1  0.99036000  0.82328000  0.66163000  1
  C  C405  1  0.02540000  0.90060000  0.67412000  1
  C  C406  1  0.02416000  0.96759000  0.65237000  1
  C  C407  1  0.98576000  0.95815000  0.61877000  1
  C  C408  1  0.06166000  0.91103000  0.71067000  1
  C  C409  1  0.15587000  0.70994000  0.15841000  1
  C  C410  1  0.16917000  0.70224000  0.12513000  1
  C  C411  1  0.09120000  0.72891000  0.09999000  1
  C  C412  1  0.99840000  0.76324000  0.10760000  1
  C  C413  1  0.98662000  0.77343000  0.14084000  1
  C  C414  1  0.06516000  0.74723000  0.16596000  1
  C  C415  1  0.91531000  0.78793000  0.07997000  1
  C  C416  1  0.91691000  0.86730000  0.06596000  1
  C  C417  1  0.84713000  0.88689000  0.03578000  1
  C  C418  1  0.77449000  0.82761000  0.02103000  1
  C  C419  1  0.76606000  0.75114000  0.03695000  1
  C  C420  1  0.83733000  0.73111000  0.06680000  1
  C  C421  1  0.82644000  0.65355000  0.08246000  1
  C  C422  1  0.74964000  0.59877000  0.06982000  1
  C  C423  1  0.67992000  0.61836000  0.04048000  1
  C  C424  1  0.68873000  0.69174000  0.02436000  1
  C  C425  1  0.98641000  0.92948000  0.08105000  1
  C  C426  1  0.98839000  0.00650000  0.06721000  1
  C  C427  1  0.92268000  0.02482000  0.03695000  1
  C  C428  1  0.85440000  0.96670000  0.02165000  1
  C  C429  1  0.71026000  0.84496000  0.98817000  1
  C  C430  1  0.75484000  0.83218000  0.95905000  1
  C  C431  1  0.69613000  0.85188000  0.92692000  1
  C  C432  1  0.59185000  0.88073000  0.92428000  1
  C  C433  1  0.54578000  0.88949000  0.95338000  1
  C  C434  1  0.60623000  0.87300000  0.98559000  1
  C  C435  1  0.55742000  0.88329000  0.01427000  1
  C  C436  1  0.45333000  0.90346000  0.01164000  1
  C  C437  1  0.39319000  0.91616000  0.98011000  1
  C  C438  1  0.43843000  0.91008000  0.95179000  1
  C  C439  1  0.85781000  0.80014000  0.96062000  1
  C  C440  1  0.90189000  0.78953000  0.93234000  1
  C  C441  1  0.84605000  0.81188000  0.90103000  1
  C  C442  1  0.74632000  0.84291000  0.89847000  1
  C  C443  1  0.53240000  0.90265000  0.89149000  1
  C  C444  1  0.49845000  0.98430000  0.88535000  1
  C  C445  1  0.44791000  0.00780000  0.85420000  1
  C  C446  1  0.42618000  0.94999000  0.82852000  1
  C  C447  1  0.45698000  0.86787000  0.83462000  1
  C  C448  1  0.51087000  0.84491000  0.86560000  1
  C  C449  1  0.37037000  0.98016000  0.79548000  1
  C  C450  1  0.26518000  0.64661000  0.31240000  1
  C  C451  1  0.23401000  0.67282000  0.18521000  1
  C  C452  1  0.15033000  0.17773000  0.66134000  1
  C  C453  1  0.05067000  0.19474000  0.66873000  1
  C  C454  1  0.97297000  0.22631000  0.64450000  1
  C  C455  1  0.99383000  0.24126000  0.61237000  1
  C  C456  1  0.09434000  0.22506000  0.60511000  1
  C  C457  1  0.17174000  0.19326000  0.62928000  1
  C  C458  1  0.91251000  0.27146000  0.58532000  1
  C  C459  1  0.91786000  0.35254000  0.57304000  1
  C  C460  1  0.84919000  0.37723000  0.54333000  1
  C  C461  1  0.77653000  0.32060000  0.52673000  1
  C  C462  1  0.76522000  0.24190000  0.54048000  1
  C  C463  1  0.83341000  0.21729000  0.57037000  1
  C  C464  1  0.82071000  0.13674000  0.58330000  1
  C  C465  1  0.74527000  0.08375000  0.56819000  1
  C  C466  1  0.67849000  0.10791000  0.53884000  1
  C  C467  1  0.68924000  0.18425000  0.52522000  1
  C  C468  1  0.85790000  0.45889000  0.53109000  1
  C  C469  1  0.92791000  0.51409000  0.54756000  1
  C  C470  1  0.99374000  0.49050000  0.57715000  1
  C  C471  1  0.98951000  0.41180000  0.58934000  1
  C  C472  1  0.71900000  0.34149000  0.49332000  1
  C  C473  1  0.77166000  0.33165000  0.46571000  1
  C  C474  1  0.71786000  0.34854000  0.43271000  1
  C  C475  1  0.61130000  0.37288000  0.42781000  1
  C  C476  1  0.55961000  0.38455000  0.45558000  1
  C  C477  1  0.61452000  0.36900000  0.48868000  1
  C  C478  1  0.55991000  0.37927000  0.51611000  1
  C  C479  1  0.45612000  0.40116000  0.51150000  1
  C  C480  1  0.40167000  0.41407000  0.47912000  1
  C  C481  1  0.45192000  0.40588000  0.45195000  1
  C  C482  1  0.77501000  0.34125000  0.40571000  1
  C  C483  1  0.87729000  0.31530000  0.41055000  1
  C  C484  1  0.92874000  0.29626000  0.44280000  1
  C  C485  1  0.87744000  0.30449000  0.46966000  1
  C  C486  1  0.55654000  0.38228000  0.39345000  1
  C  C487  1  0.55233000  0.31475000  0.37157000  1
  C  C488  1  0.50913000  0.32306000  0.33838000  1
  C  C489  1  0.47356000  0.40021000  0.32587000  1
  C  C490  1  0.47533000  0.46739000  0.34759000  1
  C  C491  1  0.51419000  0.45810000  0.38117000  1
  C  C492  1  0.43684000  0.41021000  0.28931000  1
  C  C493  1  0.34419000  0.20992000  0.84159000  1
  C  C494  1  0.33086000  0.20222000  0.87486000  1
  C  C495  1  0.40879000  0.22890000  0.90001000  1
  C  C496  1  0.50160000  0.26325000  0.89241000  1
  C  C497  1  0.51341000  0.27343000  0.85917000  1
  C  C498  1  0.43490000  0.24722000  0.83404000  1
  C  C499  1  0.58466000  0.28793000  0.92004000  1
  C  C500  1  0.58308000  0.36730000  0.93405000  1
  C  C501  1  0.65284000  0.38690000  0.96423000  1
  C  C502  1  0.72547000  0.32760000  0.97897000  1
  C  C503  1  0.73393000  0.25114000  0.96306000  1
  C  C504  1  0.66266000  0.23111000  0.93321000  1
  C  C505  1  0.67355000  0.15357000  0.91755000  1
  C  C506  1  0.75035000  0.09879000  0.93019000  1
  C  C507  1  0.82009000  0.11836000  0.95953000  1
  C  C508  1  0.81128000  0.19174000  0.97565000  1
  C  C509  1  0.51357000  0.42947000  0.91895000  1
  C  C510  1  0.51160000  0.50649000  0.93279000  1
  C  C511  1  0.57730000  0.52482000  0.96305000  1
  C  C512  1  0.64558000  0.46671000  0.97836000  1
  C  C513  1  0.78969000  0.34495000  0.01182000  1
  C  C514  1  0.74509000  0.33215000  0.04094000  1
  C  C515  1  0.80379000  0.35185000  0.07306000  1
  C  C516  1  0.90807000  0.38067000  0.07569000  1
  C  C517  1  0.95416000  0.38945000  0.04659000  1
  C  C518  1  0.89373000  0.37298000  0.01439000  1
  C  C519  1  0.94257000  0.38328000  0.98571000  1
  C  C520  1  0.04667000  0.40347000  0.98836000  1
  C  C521  1  0.10682000  0.41617000  0.01990000  1
  C  C522  1  0.06153000  0.41006000  0.04820000  1
  C  C523  1  0.64211000  0.30013000  0.03938000  1
  C  C524  1  0.59807000  0.28954000  0.06767000  1
  C  C525  1  0.65392000  0.31189000  0.09897000  1
  C  C526  1  0.75367000  0.34290000  0.10153000  1
  C  C527  1  0.96765000  0.40255000  0.10844000  1
  C  C528  1  0.00170000  0.48414000  0.11452000  1
  C  C529  1  0.05219000  0.50784000  0.14564000  1
  C  C530  1  0.07391000  0.45020000  0.17139000  1
  C  C531  1  0.04338000  0.36799000  0.16530000  1
  C  C532  1  0.98945000  0.34493000  0.13434000  1
  C  C533  1  0.12991000  0.48043000  0.20441000  1
  C  C534  1  0.23482000  0.14663000  0.68760000  1
  C  C535  1  0.26608000  0.17276000  0.81479000  1
  Cl  Cl536  1  0.48043000  0.29816000  0.75022000  1
  Cl  Cl537  1  0.01970000  0.79828000  0.24977000  1
  Cl  Cl538  1  0.51958000  0.70184000  0.24979000  1
  Cl  Cl539  1  0.98027000  0.20169000  0.75024000  1
  O  O540  1  0.82835000  0.35437000  0.68200000  1
  O  O541  1  0.88742000  0.14663000  0.27411000  1
  O  O542  1  0.96317000  0.02160000  0.27604000  1
  O  O543  1  0.68071000  0.35494000  0.82148000  1
  O  O544  1  0.79091000  0.33275000  0.78547000  1
  O  O545  1  0.57274000  0.98794000  0.22403000  1
  O  O546  1  0.72791000  0.02475000  0.20959000  1
  O  O547  1  0.71100000  0.37545000  0.71588000  1
  O  O548  1  0.67166000  0.85437000  0.31802000  1
  O  O549  1  0.61581000  0.64689000  0.72573000  1
  O  O550  1  0.53712000  0.52299000  0.72410000  1
  O  O551  1  0.81913000  0.85504000  0.17850000  1
  O  O552  1  0.70904000  0.83279000  0.21454000  1
  O  O553  1  0.92704000  0.48758000  0.77610000  1
  O  O554  1  0.77184000  0.52480000  0.79047000  1
  O  O555  1  0.78896000  0.87542000  0.28412000  1
  O  O556  1  0.17164000  0.64564000  0.31800000  1
  O  O557  1  0.11259000  0.85338000  0.72589000  1
  O  O558  1  0.03682000  0.97840000  0.72396000  1
  O  O559  1  0.31928000  0.64507000  0.17852000  1
  O  O560  1  0.20908000  0.66725000  0.21453000  1
  O  O561  1  0.42725000  0.01208000  0.77597000  1
  O  O562  1  0.27209000  0.97525000  0.79041000  1
  O  O563  1  0.28899000  0.62455000  0.28412000  1
  O  O564  1  0.32833000  0.14564000  0.68198000  1
  O  O565  1  0.38423000  0.35310000  0.27427000  1
  O  O566  1  0.46287000  0.47703000  0.27590000  1
  O  O567  1  0.18086000  0.14496000  0.82150000  1
  O  O568  1  0.29096000  0.16721000  0.78547000  1
  O  O569  1  0.07300000  0.51239000  0.22391000  1
  O  O570  1  0.22820000  0.47520000  0.20953000  1
  O  O571  1  0.21103000  0.12458000  0.71588000  1
