# generated using pymatgen
data_CoC6N2O5F4
_symmetry_space_group_name_H-M   'P 1'
_cell_length_a   8.33610000
_cell_length_b   9.39030000
_cell_length_c   37.24174597
_cell_angle_alpha   84.17706180
_cell_angle_beta   87.31968520
_cell_angle_gamma   74.91950000
_symmetry_Int_Tables_number   1
_chemical_formula_structural   CoC6N2O5F4
_chemical_formula_sum   'Co8 C48 N16 O40 F32'
_cell_volume   2799.67685374
_cell_formula_units_Z   8
loop_
 _symmetry_equiv_pos_site_id
 _symmetry_equiv_pos_as_xyz
  1  'x, y, z'
loop_
 _atom_site_type_symbol
 _atom_site_label
 _atom_site_symmetry_multiplicity
 _atom_site_fract_x
 _atom_site_fract_y
 _atom_site_fract_z
 _atom_site_occupancy
  Co  Co1  1  0.22428000  0.51480000  0.61596000  1.0
  Co  Co2  1  0.28830000  0.74464000  0.63389000  1.0
  Co  Co3  1  0.29240000  0.53109000  0.14518000  1.0
  Co  Co4  1  0.06631000  0.76791000  0.13682000  1.0
  Co  Co5  1  0.89668000  0.21346000  0.86244000  1.0
  Co  Co6  1  0.65192000  0.43191000  0.87052000  1.0
  Co  Co7  1  0.48687000  0.30208667  0.36458000  1.0
  Co  Co8  1  0.84970000  0.47732000  0.36548000  1.0
  C  C1  1  0.40344000  0.81241000  0.58785000  1.0
  C  C2  1  0.33170000  0.51744000  0.56495000  1.0
  C  C3  1  0.35445000  0.49626000  0.68238000  1.0
  C  C4  1  0.97600000  0.70998000  0.64983000  1.0
  C  C5  1  0.07841000  0.80750000  0.08157000  1.0
  C  C6  1  0.39115000  0.51054000  0.09375000  1.0
  C  C7  1  0.99555000  0.54007000  0.18063000  1.0
  C  C8  1  0.27176000  0.73578000  0.19355000  1.0
  C  C9  1  0.69157000  0.47303000  0.92184000  1.0
  C  C10  1  0.99277000  0.18833000  0.91341000  1.0
  C  C11  1  0.59425000  0.19963000  0.83891000  1.0
  C  C12  1  0.83826000  0.43898000  0.80825000  1.0
  C  C13  1  0.96166000  0.48694000  0.41283000  1.0
  C  C14  1  0.49966000  0.13853000  0.40827000  1.0
  C  C15  1  0.78534000  0.27747000  0.33453000  1.0
  C  C16  1  0.51068000  0.60902000  0.34949000  1.0
  C  C17  1  0.41996000  0.41661000  0.71670000  1.0
  C  C18  1  0.49046000  0.25463000  0.75854000  1.0
  C  C19  1  0.52624000  0.10794000  0.78111000  1.0
  C  C20  1  0.48175000  0.12508000  0.82145000  1.0
  C  C21  1  0.89913000  0.47063000  0.20767000  1.0
  C  C22  1  0.84784000  0.32177000  0.24794000  1.0
  C  C23  1  0.86790000  0.18174000  0.27266000  1.0
  C  C24  1  0.74643000  0.19112000  0.30545000  1.0
  C  C25  1  0.87751000  0.51575000  0.77406000  1.0
  C  C26  1  0.86102000  0.67093000  0.73049000  1.0
  C  C27  1  0.79614000  0.80309000  0.70400000  1.0
  C  C28  1  0.80200000  0.76092000  0.66490000  1.0
  C  C29  1  0.30824000  0.78122000  0.22791000  1.0
  C  C30  1  0.29568000  0.80166000  0.28232000  1.0
  C  C31  1  0.24963000  0.78131000  0.32162000  1.0
  C  C32  1  0.39832000  0.76388000  0.34640000  1.0
  C  C33  1  0.48650000  0.86390000  0.55558000  1.0
  C  C34  1  0.52979000  0.97258000  0.50706000  1.0
  C  C35  1  0.51053000  0.08697000  0.47549000  1.0
  C  C36  1  0.49346000  0.02504000  0.43952000  1.0
  C  C37  1  0.07957000  0.84263000  0.04233000  1.0
  C  C38  1  0.12354000  0.93265000  0.99138000  1.0
  C  C39  1  0.18599000  0.01996000  0.96031000  1.0
  C  C40  1  0.05998000  0.17313000  0.95080000  1.0
  C  C41  1  0.04194000  0.49565000  0.44625000  1.0
  C  C42  1  0.18286000  0.55570000  0.48297000  1.0
  C  C43  1  0.30983000  0.62030000  0.49805000  1.0
  C  C44  1  0.41571000  0.51788000  0.52830000  1.0
  C  C45  1  0.71796000  0.50628000  0.95819000  1.0
  C  C46  1  0.69213000  0.53175000  0.01234000  1.0
  C  C47  1  0.62328000  0.54519000  0.05017000  1.0
  C  C48  1  0.46813000  0.48465000  0.05678000  1.0
  N  N1  1  0.50423000  0.47234000  0.73916000  1.0
  N  N2  1  0.55039000  0.36830000  0.76577000  1.0
  N  N3  1  0.75365000  0.53955000  0.22274000  1.0
  N  N4  1  0.72014000  0.44317000  0.24846000  1.0
  N  N5  1  0.02725000  0.48387000  0.75747000  1.0
  N  N6  1  0.01672000  0.58404000  0.72960000  1.0
  N  N7  1  0.33585000  0.91374000  0.23157000  1.0
  N  N8  1  0.32973000  0.92611000  0.26654000  1.0
  N  N9  1  0.64943000  0.81247000  0.54823000  1.0
  N  N10  1  0.67736000  0.88248000  0.51708000  1.0
  N  N11  1  0.97677000  0.80460000  0.02063000  1.0
  N  N12  1  0.00495000  0.86188000  0.98795000  1.0
  N  N13  1  0.03272000  0.40814000  0.47669000  1.0
  N  N14  1  0.12366000  0.44604000  0.50023000  1.0
  N  N15  1  0.83788000  0.56950000  0.96578000  1.0
  N  N16  1  0.82166000  0.58499000  0.00050000  1.0
  O  O1  1  0.35956000  0.63042000  0.67523000  1.0
  O  O2  1  0.29584000  0.42975000  0.66013000  1.0
  O  O3  1  0.17714000  0.58592000  0.57076000  1.0
  O  O4  1  0.41405000  0.44817000  0.59298000  1.0
  O  O5  1  0.01898000  0.58867000  0.63496000  1.0
  O  O6  1  0.07730000  0.78943000  0.65170000  1.0
  O  O7  1  0.48558000  0.71850000  0.61269000  1.0
  O  O8  1  0.24389000  0.85727000  0.59286000  1.0
  O  O9  1  0.94468000  0.67571000  0.16864000  1.0
  O  O10  1  0.13634000  0.46146000  0.17104000  1.0
  O  O11  1  0.44718000  0.58125000  0.11655000  1.0
  O  O12  1  0.26386000  0.46123000  0.10461000  1.0
  O  O13  1  0.34166000  0.60568000  0.18511000  1.0
  O  O14  1  0.15958000  0.82354000  0.17416000  1.0
  O  O15  1  0.98401000  0.72837000  0.09733000  1.0
  O  O16  1  0.16886000  0.85622000  0.10235000  1.0
  O  O17  1  0.53247000  0.32510000  0.85089000  1.0
  O  O18  1  0.74927000  0.13725000  0.84124000  1.0
  O  O19  1  0.03811000  0.27321000  0.88732000  1.0
  O  O20  1  0.88272000  0.12075000  0.90575000  1.0
  O  O21  1  0.93257000  0.31448000  0.81988000  1.0
  O  O22  1  0.70933000  0.50056000  0.82598000  1.0
  O  O23  1  0.60210000  0.38366000  0.91592000  1.0
  O  O24  1  0.75769000  0.53184000  0.89389000  1.0
  O  O25  1  0.89003000  0.35254000  0.33032000  1.0
  O  O26  1  0.70273000  0.29042000  0.36384000  1.0
  O  O27  1  0.47884000  0.27643000  0.41235000  1.0
  O  O28  1  0.52518000  0.10570000  0.37531000  1.0
  O  O29  1  0.44149000  0.50536000  0.36143000  1.0
  O  O30  1  0.66633000  0.59341000  0.34183000  1.0
  O  O31  1  0.01900000  0.37951000  0.39249000  1.0
  O  O32  1  0.83070000  0.58751000  0.40185000  1.0
  O  O33  1  0.40950000  0.28088000  0.72790000  1.0
  O  O34  1  0.96010000  0.33545000  0.22274000  1.0
  O  O35  1  0.77195000  0.63248000  0.75815000  1.0
  O  O36  1  0.28069000  0.70972000  0.25893000  1.0
  O  O37  1  0.40876000  0.96458000  0.53066000  1.0
  O  O38  1  0.17162000  0.92404000  0.02504000  1.0
  O  O39  1  0.13375000  0.58883000  0.44925000  1.0
  O  O40  1  0.62433000  0.48201000  0.98652000  1.0
  F  F1  1  0.43457000  0.02067000  0.76842000  1.0
  F  F2  1  0.69285000  0.03904000  0.77698000  1.0
  F  F3  1  0.49744000  0.98593000  0.83951000  1.0
  F  F4  1  0.31704000  0.20520000  0.82484000  1.0
  F  F5  1  0.84934000  0.07095000  0.25236000  1.0
  F  F6  1  0.02927000  0.14181000  0.28485000  1.0
  F  F7  1  0.75580000  0.04850000  0.32056000  1.0
  F  F8  1  0.58509000  0.25337000  0.29441000  1.0
  F  F9  1  0.63231000  0.86711000  0.71315000  1.0
  F  F10  1  0.88630000  0.90622000  0.70667000  1.0
  F  F11  1  0.71912000  0.88394000  0.64310000  1.0
  F  F12  1  0.72046000  0.65040000  0.66383000  1.0
  F  F13  1  0.12514000  0.90358000  0.32999000  1.0
  F  F14  1  0.18416000  0.65849000  0.32737000  1.0
  F  F15  1  0.33759000  0.79486000  0.38076000  1.0
  F  F16  1  0.48776000  0.86590000  0.33441000  1.0
  F  F17  1  0.36953000  0.19875000  0.48115000  1.0
  F  F18  1  0.64766000  0.14509000  0.47380000  1.0
  F  F19  1  0.34080000  0.99122000  0.43936000  1.0
  F  F20  1  0.61987000  0.89814000  0.43534000  1.0
  F  F21  1  0.33645000  0.04110000  0.96961000  1.0
  F  F22  1  0.21622000  0.93547000  0.93112000  1.0
  F  F23  1  0.13676000  0.28632000  0.95340000  1.0
  F  F24  1  0.92566000  0.19479000  0.97492000  1.0
  F  F25  1  0.41628000  0.64610000  0.46990000  1.0
  F  F26  1  0.22990000  0.75573000  0.51025000  1.0
  F  F27  1  0.55927000  0.56243000  0.53133000  1.0
  F  F28  1  0.46383000  0.37426000  0.51902000  1.0
  F  F29  1  0.74605000  0.46834000  0.07387000  1.0
  F  F30  1  0.58270000  0.69386000  0.05605000  1.0
  F  F31  1  0.51198000  0.33294000  0.05324000  1.0
  F  F32  1  0.34952000  0.55387000  0.03146000  1.0
