# generated using pymatgen
data_CuH9C16N2O9
_symmetry_space_group_name_H-M   'P 1'
_cell_length_a   9.61207000
_cell_length_b   10.77655000
_cell_length_c   10.84546000
_cell_angle_alpha   87.48002000
_cell_angle_beta   89.04272000
_cell_angle_gamma   90.24623000
_symmetry_Int_Tables_number   1
_chemical_formula_structural   CuH9C16N2O9
_chemical_formula_sum   'Cu2 H18 C32 N4 O18'
_cell_volume   1122.16916975
_cell_formula_units_Z   2
loop_
 _symmetry_equiv_pos_site_id
 _symmetry_equiv_pos_as_xyz
  1  'x, y, z'
loop_
 _atom_site_type_symbol
 _atom_site_label
 _atom_site_symmetry_multiplicity
 _atom_site_fract_x
 _atom_site_fract_y
 _atom_site_fract_z
 _atom_site_occupancy
  Cu  Cu0  1  0.64066000  0.49998000  0.50000000  1
  Cu  Cu1  1  0.35934000  0.50002000  0.50000000  1
  H  H2  1  0.01822000  0.16297000  0.33668000  1
  H  H3  1  0.98135000  0.83744000  0.66324000  1
  H  H4  1  0.25955000  0.08455000  0.31938000  1
  H  H5  1  0.74003000  0.91580000  0.68093000  1
  H  H6  1  0.43664000  0.20438000  0.19550000  1
  H  H7  1  0.56314000  0.79577000  0.80484000  1
  H  H8  1  0.12755000  0.47960000  0.10041000  1
  H  H9  1  0.87241000  0.52048000  0.89919000  1
  H  H10  1  0.95248000  0.36006000  0.22664000  1
  H  H11  1  0.04729000  0.64022000  0.77293000  1
  H  H12  1  0.32742000  0.11308000  0.62451000  1
  H  H13  1  0.67258000  0.88691000  0.37550000  1
  H  H14  1  0.77892000  0.65716000  0.34120000  1
  H  H15  1  0.22107000  0.34284000  0.65881000  1
  H  H16  1  0.26693000  0.28997000  0.92889000  1
  H  H17  1  0.73333000  0.70983000  0.07110000  1
  H  H18  1  0.34270000  0.79377000  0.68394000  1
  H  H19  1  0.65729000  0.20623000  0.31606000  1
  C  C20  1  0.50007000  0.73723000  0.50320000  1
  C  C21  1  0.49993000  0.26277000  0.49680000  1
  C  C22  1  0.50063000  0.49875000  0.26265000  1
  C  C23  1  0.49937000  0.50125000  0.73735000  1
  C  C24  1  0.23129000  0.17096000  0.27185000  1
  C  C25  1  0.76838000  0.82932000  0.72830000  1
  C  C26  1  0.33123000  0.23877000  0.20160000  1
  C  C27  1  0.66854000  0.76141000  0.79857000  1
  C  C28  1  0.29490000  0.35087000  0.13984000  1
  C  C29  1  0.70498000  0.64923000  0.86013000  1
  C  C30  1  0.15724000  0.39351000  0.14796000  1
  C  C31  1  0.84264000  0.60663000  0.85179000  1
  C  C32  1  0.05800000  0.32607000  0.21926000  1
  C  C33  1  0.94177000  0.67418000  0.78047000  1
  C  C34  1  0.09508000  0.21500000  0.28138000  1
  C  C35  1  0.90458000  0.78532000  0.71855000  1
  C  C36  1  0.40195000  0.42724000  0.93849000  1
  C  C37  1  0.59807000  0.57272000  0.06151000  1
  C  C38  1  0.49887000  0.50282000  0.87154000  1
  C  C39  1  0.50114000  0.49717000  0.12846000  1
  C  C40  1  0.59865000  0.57449000  0.93190000  1
  C  C41  1  0.40134000  0.42551000  0.06810000  1
  C  C42  1  0.40219000  0.93518000  0.57766000  1
  C  C43  1  0.59781000  0.06482000  0.42235000  1
  C  C44  1  0.40156000  0.06373000  0.56864000  1
  C  C45  1  0.59844000  0.93627000  0.43137000  1
  C  C46  1  0.49938000  0.12891000  0.49373000  1
  C  C47  1  0.50062000  0.87109000  0.50628000  1
  C  C48  1  0.07606000  0.59291000  0.43915000  1
  C  C49  1  0.92394000  0.40708000  0.56083000  1
  C  C50  1  0.92877000  0.59266000  0.43829000  1
  C  C51  1  0.07124000  0.40734000  0.56171000  1
  N  N52  1  0.85207000  0.49997000  0.50003000  1
  N  N53  1  0.14793000  0.50003000  0.49997000  1
  N  N54  1  0.14846000  0.69127000  0.37232000  1
  N  N55  1  0.85155000  0.30867000  0.62760000  1
  O  O56  1  0.61874000  0.68034000  0.49999000  1
  O  O57  1  0.38126000  0.31966000  0.50001000  1
  O  O58  1  0.38117000  0.68037000  0.49999000  1
  O  O59  1  0.61883000  0.31963000  0.50001000  1
  O  O60  1  0.61878000  0.49998000  0.31965000  1
  O  O61  1  0.38122000  0.50002000  0.68035000  1
  O  O62  1  0.38121000  0.50000000  0.31964000  1
  O  O63  1  0.61879000  0.50000000  0.68036000  1
  O  O64  1  0.86681000  0.68843000  0.37235000  1
  O  O65  1  0.13320000  0.31157000  0.62765000  1
  O  O66  1  0.31321000  0.35335000  0.87362000  1
  O  O67  1  0.68684000  0.64660000  0.12639000  1
  O  O68  1  0.30799000  0.87727000  0.65904000  1
  O  O69  1  0.69200000  0.12274000  0.34097000  1
  O  O70  1  0.13747000  0.80396000  0.40968000  1
  O  O71  1  0.19008000  0.67511000  0.25952000  1
  O  O72  1  0.86271000  0.19598000  0.59027000  1
  O  O73  1  0.80969000  0.32482000  0.74033000  1
