# generated using pymatgen
data_H9C14N2O
_symmetry_space_group_name_H-M   'P 1'
_cell_length_a   29.17940000
_cell_length_b   29.17940000
_cell_length_c   32.99270000
_cell_angle_alpha   90.12570000
_cell_angle_beta   89.88570000
_cell_angle_gamma   90.00000000
_symmetry_Int_Tables_number   1
_chemical_formula_structural   H9C14N2O
_chemical_formula_sum   'H144 C224 N32 O16'
_cell_volume   28091.09469099
_cell_formula_units_Z   16
loop_
 _symmetry_equiv_pos_site_id
 _symmetry_equiv_pos_as_xyz
  1  'x, y, z'
loop_
 _atom_site_type_symbol
 _atom_site_label
 _atom_site_symmetry_multiplicity
 _atom_site_fract_x
 _atom_site_fract_y
 _atom_site_fract_z
 _atom_site_occupancy
  H  7  1  0.73531800  0.83072800  0.88751900  1
  H  8  1  0.67319800  0.96117100  0.87964000  1
  H  9  1  0.61591600  0.85073900  0.81833600  1
  H  16  1  0.75916500  0.86180500  0.94862600  1
  H  17  1  0.82737900  0.97997100  0.98922200  1
  H  18  1  0.74391500  0.98652500  0.88674600  1
  H  23  1  0.81765000  0.05238800  0.95486000  1
  H  24  1  0.61477400  0.96108700  0.81100300  1
  H  25  1  0.64599900  0.77855200  0.82124800  1
  H  26  1  0.81402500  0.85664600  0.00242100  1
  H  33  1  0.25230000  0.15878000  0.88669700  1
  H  34  1  0.31477000  0.02842500  0.88001500  1
  H  35  1  0.37324600  0.13842700  0.81917400  1
  H  42  1  0.22807600  0.12805500  0.94807900  1
  H  43  1  0.15975200  0.00994500  0.98848400  1
  H  44  1  0.24371700  0.00315200  0.88600300  1
  H  49  1  0.16977100  0.93745700  0.95411800  1
  H  50  1  0.37432300  0.02479400  0.81576900  1
  H  51  1  0.34261400  0.21058600  0.82113100  1
  H  52  1  0.17296800  0.13325400  0.00201800  1
  H  59  1  0.32943300  0.75337000  0.38694100  1
  H  60  1  0.45984300  0.81566400  0.37934200  1
  H  61  1  0.34979800  0.87278400  0.31777700  1
  H  68  1  0.36020700  0.72963600  0.44819400  1
  H  69  1  0.47830100  0.66161100  0.48880300  1
  H  70  1  0.48514400  0.74487900  0.38621000  1
  H  75  1  0.55082700  0.67145200  0.45447700  1
  H  76  1  0.45962600  0.87448600  0.31024500  1
  H  77  1  0.27762800  0.84259100  0.32052900  1
  H  78  1  0.35493400  0.67525800  0.50235100  1
  H  85  1  0.65752000  0.23655900  0.38718000  1
  H  86  1  0.52714200  0.17423200  0.38047300  1
  H  87  1  0.63740100  0.11558100  0.31969500  1
  H  94  1  0.62655200  0.26098500  0.44843300  1
  H  95  1  0.50834600  0.32944900  0.48887600  1
  H  96  1  0.50183600  0.24523200  0.38654400  1
  H  101  1  0.43594500  0.31946300  0.45451300  1
  H  102  1  0.52405600  0.11454000  0.31594600  1
  H  103  1  0.70960000  0.14610400  0.32172900  1
  H  104  1  0.63162000  0.31665000  0.50199100  1
  H  111  1  0.23566400  0.65866600  0.82489800  1
  H  112  1  0.17287400  0.52847000  0.83197400  1
  H  113  1  0.11546600  0.63884400  0.89347200  1
  H  120  1  0.26065400  0.62764200  0.76398500  1
  H  121  1  0.32916600  0.50924800  0.72412800  1
  H  122  1  0.24356500  0.50281300  0.82551200  1
  H  127  1  0.31851700  0.43692200  0.75815900  1
  H  128  1  0.11367000  0.52901800  0.90092400  1
  H  129  1  0.14592100  0.71092700  0.89100600  1
  H  130  1  0.31937100  0.63233500  0.71193300  1
  H  137  1  0.75172300  0.33026700  0.82546700  1
  H  138  1  0.81454700  0.46048600  0.83130400  1
  H  139  1  0.87298000  0.35063100  0.89214400  1
  H  146  1  0.72644800  0.36102700  0.76443200  1
  H  147  1  0.65799600  0.47942100  0.72511800  1
  H  148  1  0.74358600  0.48595000  0.82621900  1
  H  153  1  0.66888200  0.55182300  0.75915100  1
  H  154  1  0.87399600  0.46421600  0.89540800  1
  H  155  1  0.84221600  0.27853900  0.89062700  1
  H  156  1  0.66819600  0.35629200  0.71220700  1
  H  163  1  0.82942400  0.73688800  0.32501800  1
  H  164  1  0.95963700  0.67413300  0.33175500  1
  H  165  1  0.84948700  0.61700100  0.39354200  1
  H  172  1  0.86037000  0.76179300  0.26407400  1
  H  173  1  0.97881600  0.83010600  0.22428000  1
  H  174  1  0.98519200  0.74483900  0.32556000  1
  H  179  1  0.05118800  0.81934500  0.25821800  1
  H  180  1  0.95899500  0.61510700  0.40100700  1
  H  181  1  0.77738500  0.64742400  0.39122600  1
  H  182  1  0.85567300  0.82016800  0.21198300  1
  H  189  1  0.15785800  0.25277400  0.32546900  1
  H  190  1  0.02765300  0.31562100  0.33139200  1
  H  191  1  0.13759100  0.37438100  0.39213300  1
  H  198  1  0.12708300  0.22731400  0.26445200  1
  H  199  1  0.00872200  0.15870500  0.22501000  1
  H  200  1  0.00212300  0.24465700  0.32619700  1
  H  205  1  0.93633500  0.16955400  0.25909100  1
  H  206  1  0.02448900  0.37572400  0.39596100  1
  H  207  1  0.20969300  0.34359900  0.39055700  1
  H  208  1  0.13180000  0.16865300  0.21227700  1
  H  214  1  0.50162000  0.07587700  0.83048100  1
  H  215  1  0.56797300  0.02739600  0.82964300  1
  H  217  1  0.48778000  0.91638400  0.87067600  1
  H  219  1  0.39803500  0.94186400  0.85375300  1
  H  227  1  0.57486000  0.98730600  0.33064300  1
  H  228  1  0.52642000  0.92090200  0.32960300  1
  H  230  1  0.41508500  0.00091000  0.37061300  1
  H  232  1  0.44070900  0.09081600  0.35384200  1
  H  240  1  0.00142400  0.41339400  0.88072600  1
  H  241  1  0.06768500  0.46201200  0.88154800  1
  H  243  1  0.98749000  0.57281000  0.84039200  1
  H  245  1  0.89768000  0.54715300  0.85734600  1
  H  253  1  0.07488800  0.50279500  0.38022700  1
  H  254  1  0.02632800  0.56912500  0.38110600  1
  H  256  1  0.91514900  0.48866700  0.34087600  1
  H  258  1  0.94100700  0.39886200  0.35806700  1
  H  266  1  0.93115100  0.90872000  0.14037600  1
  H  267  1  0.89874400  0.94113000  0.07998700  1
  H  269  1  0.80635500  0.83041900  0.07235500  1
  H  271  1  0.80460300  0.79285200  0.14746800  1
  H  279  1  0.05645700  0.08051200  0.14043700  1
  H  280  1  0.08883200  0.04834900  0.07969000  1
  H  282  1  0.18079100  0.15942300  0.07214800  1
  H  284  1  0.18258500  0.19677600  0.14755600  1
  H  292  1  0.40717900  0.55693800  0.63945800  1
  H  293  1  0.43943400  0.58957800  0.57899000  1
  H  295  1  0.32880900  0.68214000  0.57238800  1
  H  297  1  0.29150700  0.68360300  0.64775400  1
  H  305  1  0.57909700  0.43169700  0.64139800  1
  H  306  1  0.54672800  0.39956500  0.58075100  1
  H  308  1  0.65799400  0.30793100  0.57199400  1
  H  310  1  0.69572900  0.30581700  0.64708700  1
  H  318  1  0.73392200  0.18933700  0.83466800  1
  H  319  1  0.72922700  0.10982500  0.85218600  1
  H  321  1  0.82902100  0.12943500  0.94238400  1
  H  323  1  0.82165800  0.22811900  0.95382700  1
  H  331  1  0.25361200  0.79987400  0.83382300  1
  H  332  1  0.25818600  0.87954400  0.85110700  1
  H  334  1  0.15888700  0.86039000  0.94208500  1
  H  336  1  0.16668100  0.76190200  0.95380200  1
  H  344  1  0.68824500  0.75463200  0.33396800  1
  H  345  1  0.60859000  0.75923000  0.35130800  1
  H  347  1  0.62795700  0.66055900  0.44242300  1
  H  349  1  0.72647600  0.66850100  0.45404400  1
  H  357  1  0.29882000  0.23495900  0.33459500  1
  H  358  1  0.37836100  0.23035500  0.35203000  1
  H  360  1  0.35892500  0.33075500  0.44209500  1
  H  362  1  0.26029500  0.32347700  0.45368000  1
  H  370  1  0.23401000  0.29946300  0.87757300  1
  H  371  1  0.22920300  0.37903500  0.86029800  1
  H  373  1  0.32963800  0.36002700  0.77019600  1
  H  375  1  0.32260800  0.26152400  0.75832600  1
  H  383  1  0.75344600  0.68957000  0.87846500  1
  H  384  1  0.75794500  0.60984000  0.86134000  1
  H  386  1  0.65849300  0.62882100  0.77080900  1
  H  388  1  0.66634000  0.72712800  0.75871500  1
  H  396  1  0.18836400  0.73524200  0.37783600  1
  H  397  1  0.10874100  0.73065500  0.36064700  1
  H  399  1  0.12819200  0.82986900  0.26993500  1
  H  401  1  0.22660300  0.82204100  0.25797500  1
  H  409  1  0.79832000  0.25466600  0.37814200  1
  H  410  1  0.87801200  0.25930800  0.36096200  1
  H  412  1  0.85941200  0.15865500  0.27103600  1
  H  414  1  0.76103300  0.16578800  0.25899100  1
  C  1  1  0.71167100  0.89977600  0.88733100  1
  C  2  1  0.70997800  0.85201900  0.87746600  1
  C  3  1  0.67570100  0.83311100  0.85175900  1
  C  4  1  0.64148800  0.86301000  0.83673400  1
  C  5  1  0.64148400  0.90987800  0.84619500  1
  C  6  1  0.67623100  0.92756100  0.87108500  1
  C  10  1  0.74522000  0.92043600  0.91328700  1
  C  11  1  0.76745300  0.89555200  0.94447200  1
  C  12  1  0.79707800  0.91667600  0.97302600  1
  C  13  1  0.80601200  0.96418100  0.96891300  1
  C  14  1  0.78602800  0.99061300  0.93769300  1
  C  15  1  0.75634200  0.96788400  0.91047600  1
  C  19  1  0.79533000  0.03814300  0.93458000  1
  C  20  1  0.60747700  0.93842700  0.83251800  1
  C  21  1  0.67323400  0.78676100  0.83906100  1
  C  22  1  0.81530800  0.89064300  0.00467000  1
  C  27  1  0.27608000  0.08980800  0.88695600  1
  C  28  1  0.27790800  0.13748100  0.87702400  1
  C  29  1  0.31263000  0.15619900  0.85162700  1
  C  30  1  0.34725900  0.12624400  0.83719400  1
  C  31  1  0.34714500  0.07943700  0.84678400  1
  C  32  1  0.31183900  0.06192400  0.87120800  1
  C  36  1  0.24218600  0.06930200  0.91267100  1
  C  37  1  0.21976800  0.09430500  0.94384800  1
  C  38  1  0.19005300  0.07322400  0.97237300  1
  C  39  1  0.18116500  0.02570400  0.96817900  1
  C  40  1  0.20128400  0.99919700  0.93690700  1
  C  41  1  0.23106900  0.02185700  0.90972500  1
  C  45  1  0.19209000  0.95164500  0.93378400  1
  C  46  1  0.38175300  0.05077300  0.83423200  1
  C  47  1  0.31515800  0.20243200  0.83877300  1
  C  48  1  0.17180100  0.09925600  0.00416300  1
  C  53  1  0.39843400  0.77713300  0.38689800  1
  C  54  1  0.35074100  0.77878000  0.37697800  1
  C  55  1  0.33199800  0.81299700  0.35118700  1
  C  56  1  0.36196400  0.84723600  0.33620500  1
  C  57  1  0.40875300  0.84732200  0.34578900  1
  C  58  1  0.42628100  0.81264200  0.37075800  1
  C  62  1  0.41897500  0.74358100  0.41283400  1
  C  63  1  0.39398700  0.72138600  0.44406600  1
  C  64  1  0.41501900  0.69179000  0.47261400  1
  C  65  1  0.46255200  0.68291200  0.46847700  1
  C  66  1  0.48907600  0.70285800  0.43721000  1
  C  67  1  0.46642600  0.73245400  0.40996400  1
  C  71  1  0.53663000  0.69363800  0.43411500  1
  C  72  1  0.43735500  0.88139900  0.33225900  1
  C  73  1  0.28573800  0.81539900  0.33839300  1
  C  74  1  0.38892600  0.67364000  0.50435500  1
  C  79  1  0.58851900  0.21286900  0.38740700  1
  C  80  1  0.63623900  0.21098600  0.37747800  1
  C  81  1  0.65507000  0.17620700  0.35213000  1
  C  82  1  0.62515300  0.14160600  0.33768700  1
  C  83  1  0.57829700  0.14178400  0.34725300  1
  C  84  1  0.56070200  0.17707800  0.37171000  1
  C  88  1  0.56790200  0.24676100  0.41314000  1
  C  89  1  0.59278400  0.26920000  0.44428700  1
  C  90  1  0.57164000  0.29902800  0.47275700  1
  C  91  1  0.52413600  0.30794200  0.46860400  1
  C  92  1  0.49771900  0.28775400  0.43739700  1
  C  93  1  0.52046000  0.25788200  0.41024600  1
  C  97  1  0.45018200  0.29701300  0.43426300  1
  C  98  1  0.54963000  0.10719400  0.33478600  1
  C  99  1  0.70138400  0.17359500  0.33933600  1
  C  100  1  0.59762100  0.31738600  0.50443100  1
  C  105  1  0.21173600  0.58971800  0.82473700  1
  C  106  1  0.21010700  0.63744800  0.83472300  1
  C  107  1  0.17563400  0.65638400  0.86034000  1
  C  108  1  0.14115500  0.62655700  0.87512100  1
  C  109  1  0.14100900  0.57974700  0.86543800  1
  C  110  1  0.17594200  0.56203600  0.84064600  1
  C  114  1  0.24564300  0.56897200  0.79907500  1
  C  115  1  0.26864400  0.59383800  0.76821700  1
  C  116  1  0.29870800  0.57257800  0.74001900  1
  C  117  1  0.30736200  0.52504500  0.74415100  1
  C  118  1  0.28667500  0.49865800  0.77509700  1
  C  119  1  0.25651800  0.52146000  0.80196100  1
  C  123  1  0.29587300  0.45112200  0.77825900  1
  C  124  1  0.10682400  0.55124700  0.87896700  1
  C  125  1  0.17324700  0.70268600  0.87320700  1
  C  126  1  0.31789100  0.59842600  0.70869500  1
  C  131  1  0.77562800  0.39919400  0.82486000  1
  C  132  1  0.77744400  0.35153800  0.83486400  1
  C  133  1  0.81224900  0.33283700  0.86007400  1
  C  134  1  0.84698200  0.36278000  0.87421000  1
  C  135  1  0.84695400  0.40953900  0.86445500  1
  C  136  1  0.81159300  0.42702200  0.84020500  1
  C  140  1  0.74146600  0.41977600  0.79957800  1
  C  141  1  0.71841600  0.39482900  0.76878900  1
  C  142  1  0.68834900  0.41606600  0.74075900  1
  C  143  1  0.67973900  0.46361700  0.74504800  1
  C  144  1  0.70044000  0.49004400  0.77598300  1
  C  145  1  0.73055000  0.46726900  0.80269400  1
  C  149  1  0.69140900  0.53761700  0.77921400  1
  C  150  1  0.88151200  0.43826100  0.87691800  1
  C  151  1  0.81474500  0.28665500  0.87308100  1
  C  152  1  0.66926800  0.39024000  0.70932800  1
  C  157  1  0.89836100  0.71295000  0.32468400  1
  C  158  1  0.85065400  0.71132900  0.33472900  1
  C  159  1  0.83182200  0.67699000  0.36041600  1
  C  160  1  0.86170500  0.64259600  0.37515000  1
  C  161  1  0.90847900  0.64240100  0.36534500  1
  C  162  1  0.92607900  0.67718500  0.34046300  1
  C  166  1  0.91905800  0.74682100  0.29908400  1
  C  167  1  0.89419400  0.76974600  0.26825900  1
  C  168  1  0.91544800  0.79977800  0.24014100  1
  C  169  1  0.96299700  0.80837900  0.24426900  1
  C  170  1  0.98937300  0.78775900  0.27518200  1
  C  171  1  0.96655600  0.75773000  0.30202100  1
  C  175  1  0.03692700  0.79686100  0.27833700  1
  C  176  1  0.93706000  0.60830400  0.37877500  1
  C  177  1  0.78556000  0.67464400  0.37338000  1
  C  178  1  0.88959900  0.81890300  0.20884600  1
  C  183  1  0.08893000  0.27667000  0.32492400  1
  C  184  1  0.13659600  0.27852100  0.33492000  1
  C  185  1  0.15534300  0.31346100  0.36009200  1
  C  186  1  0.12541700  0.34827000  0.37424100  1
  C  187  1  0.07864900  0.34819500  0.36451400  1
  C  188  1  0.06114300  0.31274700  0.34024200  1
  C  192  1  0.06831500  0.24246300  0.29958200  1
  C  193  1  0.09325500  0.21936700  0.26873800  1
  C  194  1  0.07204000  0.18918700  0.24068300  1
  C  195  1  0.02450000  0.18054400  0.24496000  1
  C  196  1  0.99805200  0.20133700  0.27591000  1
  C  197  1  0.02080900  0.23156900  0.30265200  1
  C  201  1  0.95049100  0.19222900  0.27913800  1
  C  202  1  0.04993300  0.38285600  0.37682900  1
  C  203  1  0.20155200  0.31602900  0.37303700  1
  C  204  1  0.09788200  0.17003400  0.20924600  1
  C  209  1  0.53341700  0.96681600  0.84832200  1
  C  210  1  0.53691100  0.01340700  0.83697100  1
  C  211  1  0.49813500  0.04195300  0.83773900  1
  C  212  1  0.45516100  0.02426400  0.84931400  1
  C  213  1  0.45137500  0.97773900  0.86098400  1
  C  216  1  0.49057800  0.94954600  0.86086300  1
  C  222  1  0.46568100  0.95538900  0.34817700  1
  C  223  1  0.51235300  0.95196200  0.33688700  1
  C  224  1  0.54086400  0.99076000  0.33777800  1
  C  225  1  0.52305800  0.03368900  0.34942300  1
  C  226  1  0.47644800  0.03740500  0.36101100  1
  C  229  1  0.44829100  0.99817900  0.36078000  1
  C  235  1  0.03309600  0.52250500  0.86284700  1
  C  236  1  0.03661100  0.47594600  0.87428600  1
  C  237  1  0.99789700  0.44731700  0.87349300  1
  C  238  1  0.95493800  0.46489700  0.86187700  1
  C  239  1  0.95114200  0.51140800  0.85015900  1
  C  242  1  0.99029100  0.53967800  0.85027100  1
  C  248  1  0.96565200  0.53441100  0.36294100  1
  C  249  1  0.01232400  0.53799600  0.37401300  1
  C  250  1  0.04090100  0.49923700  0.37322200  1
  C  251  1  0.02317100  0.45618900  0.36189300  1
  C  252  1  0.97656600  0.45232900  0.35047800  1
  C  255  1  0.94834600  0.49151500  0.35059000  1
  C  261  1  0.84985900  0.88858900  0.07017200  1
  C  262  1  0.88563600  0.91105400  0.09096800  1
  C  263  1  0.90465500  0.89203800  0.12637900  1
  C  264  1  0.88723800  0.85093000  0.14281300  1
  C  265  1  0.85089300  0.82843900  0.12241400  1
  C  268  1  0.83264100  0.84720400  0.08648500  1
  C  274  1  0.13749200  0.10110200  0.06990600  1
  C  275  1  0.10185400  0.07844900  0.09076800  1
  C  276  1  0.08286300  0.09731500  0.12638800  1
  C  277  1  0.10016400  0.13846000  0.14293100  1
  C  278  1  0.13638300  0.16113100  0.12247500  1
  C  281  1  0.15460000  0.14252100  0.08633700  1
  C  287  1  0.38692100  0.63857600  0.56968800  1
  C  288  1  0.40939400  0.60265600  0.59019600  1
  C  289  1  0.39048600  0.58351500  0.62566400  1
  C  290  1  0.34943600  0.60089400  0.64239500  1
  C  291  1  0.32693500  0.63737700  0.62229100  1
  C  294  1  0.34559800  0.65575900  0.58630700  1
  C  300  1  0.59955600  0.35109100  0.57037000  1
  C  301  1  0.57691700  0.38656200  0.59155000  1
  C  302  1  0.59590800  0.40541700  0.62711000  1
  C  303  1  0.63715400  0.38810900  0.64329800  1
  C  304  1  0.65983000  0.35207300  0.62250600  1
  C  307  1  0.64109300  0.33400200  0.58642500  1
  C  313  1  0.77902800  0.11164300  0.89872300  1
  C  314  1  0.75151400  0.13041200  0.86777700  1
  C  315  1  0.75414700  0.17732800  0.85764600  1
  C  316  1  0.78495400  0.20727100  0.87747000  1
  C  317  1  0.81189100  0.18848800  0.90941600  1
  C  320  1  0.80895000  0.14156500  0.91944700  1
  C  326  1  0.20860000  0.87797700  0.89799900  1
  C  327  1  0.23603500  0.85902300  0.86691500  1
  C  328  1  0.23348400  0.81201500  0.85693100  1
  C  329  1  0.20285500  0.78215100  0.87706100  1
  C  330  1  0.17602800  0.80113100  0.90915800  1
  C  333  1  0.17886700  0.84814300  0.91902100  1
  C  339  1  0.61027700  0.70996400  0.39828000  1
  C  340  1  0.62915800  0.73721600  0.36714200  1
  C  341  1  0.67615700  0.73466200  0.35713100  1
  C  342  1  0.70607500  0.70419500  0.37728100  1
  C  343  1  0.68716900  0.67756200  0.40943700  1
  C  346  1  0.64016100  0.68040300  0.41932400  1
  C  352  1  0.37664200  0.28046800  0.39849200  1
  C  353  1  0.35780800  0.25275500  0.36760600  1
  C  354  1  0.31087700  0.25533800  0.35752500  1
  C  355  1  0.28096500  0.28628200  0.37733800  1
  C  356  1  0.29982100  0.31343500  0.40921200  1
  C  359  1  0.34675900  0.31053700  0.41919900  1
  C  365  1  0.27930500  0.37754200  0.81383200  1
  C  366  1  0.25163400  0.35856700  0.84466700  1
  C  367  1  0.25433600  0.31161700  0.85465400  1
  C  368  1  0.28534400  0.28183400  0.83477100  1
  C  369  1  0.31243900  0.30082000  0.80293300  1
  C  372  1  0.30944200  0.34777700  0.79306500  1
  C  378  1  0.70827000  0.61130100  0.81469500  1
  C  379  1  0.73578600  0.63033300  0.84558800  1
  C  380  1  0.73325400  0.67736600  0.85549800  1
  C  381  1  0.70264400  0.70720400  0.83542000  1
  C  382  1  0.67577300  0.68815100  0.80348100  1
  C  385  1  0.67852600  0.64110200  0.79375300  1
  C  391  1  0.11045700  0.78019800  0.31390000  1
  C  392  1  0.12931500  0.75278500  0.34487100  1
  C  393  1  0.17628400  0.75536700  0.35482100  1
  C  394  1  0.20622100  0.78594200  0.33471100  1
  C  395  1  0.18734100  0.81273100  0.30271300  1
  C  398  1  0.14035400  0.80990900  0.29292900  1
  C  404  1  0.87674400  0.20907600  0.31459400  1
  C  405  1  0.85761000  0.23686700  0.34534300  1
  C  406  1  0.81058800  0.23427300  0.35527000  1
  C  407  1  0.78087700  0.20326000  0.33541100  1
  C  408  1  0.80002600  0.17606000  0.30364300  1
  C  411  1  0.84705400  0.17893500  0.29384700  1
  N  220  1  0.56942700  0.93953000  0.85202400  1
  N  221  1  0.42026200  0.05285500  0.85281800  1
  N  233  1  0.43852000  0.91930000  0.35198700  1
  N  234  1  0.55158300  0.06859000  0.35321200  1
  N  246  1  0.06911300  0.54980600  0.85910200  1
  N  247  1  0.92011400  0.43623100  0.85833500  1
  N  259  1  0.93845900  0.57045100  0.35898300  1
  N  260  1  0.05174700  0.42130600  0.35812800  1
  N  272  1  0.83273800  0.90831600  0.03699500  1
  N  273  1  0.90749800  0.83368100  0.17561100  1
  N  285  1  0.15458200  0.08150900  0.03653400  1
  N  286  1  0.07994500  0.15558100  0.17592600  1
  N  298  1  0.40656500  0.65578300  0.53644100  1
  N  299  1  0.33228500  0.58056700  0.67526000  1
  N  311  1  0.57986400  0.33408900  0.53707400  1
  N  312  1  0.65436600  0.40823600  0.67624500  1
  N  324  1  0.77516800  0.06607300  0.90689800  1
  N  325  1  0.78593400  0.25162200  0.86399200  1
  N  337  1  0.21235100  0.92362000  0.90605100  1
  N  338  1  0.20191900  0.73768200  0.86371400  1
  N  350  1  0.56464100  0.71372400  0.40635100  1
  N  351  1  0.75052000  0.70321300  0.36388400  1
  N  363  1  0.42222800  0.27665300  0.40663000  1
  N  364  1  0.23658000  0.28717800  0.36392900  1
  N  376  1  0.27540300  0.42314300  0.80579500  1
  N  377  1  0.28632900  0.23741800  0.84806500  1
  N  389  1  0.71194100  0.56562600  0.80672900  1
  N  390  1  0.70177900  0.75172600  0.84863800  1
  N  402  1  0.06483300  0.77646600  0.30590400  1
  N  403  1  0.25065700  0.78686100  0.34797700  1
  N  415  1  0.92240700  0.21287000  0.30660400  1
  N  416  1  0.73636700  0.20237500  0.34864100  1
  O  218  1  0.41113200  0.96077500  0.87554800  1
  O  231  1  0.45934100  0.07756900  0.37568400  1
  O  244  1  0.91094800  0.52828400  0.83555700  1
  O  257  1  0.95952700  0.41205300  0.33606200  1
  O  270  1  0.83505500  0.78720400  0.13563600  1
  O  283  1  0.15211300  0.20237500  0.13587500  1
  O  296  1  0.28577300  0.65321300  0.63584200  1
  O  309  1  0.70118200  0.33637900  0.63552100  1
  O  322  1  0.84076800  0.21372100  0.93275700  1
  O  335  1  0.14738600  0.77604500  0.93285200  1
  O  348  1  0.71231300  0.64907400  0.43312400  1
  O  361  1  0.27463400  0.34245200  0.43255700  1
  O  374  1  0.34152900  0.27577900  0.77953800  1
  O  387  1  0.64709300  0.71315500  0.77985800  1
  O  400  1  0.21248100  0.84134800  0.27905300  1
  O  413  1  0.77510000  0.14692300  0.28028600  1
