# generated using pymatgen
data_SmH2C7(NO3)2
_symmetry_space_group_name_H-M   'P 1'
_cell_length_a   8.18225000
_cell_length_b   9.61263000
_cell_length_c   16.28871000
_cell_angle_alpha   89.99981000
_cell_angle_beta   89.99866000
_cell_angle_gamma   82.02676000
_symmetry_Int_Tables_number   1
_chemical_formula_structural   SmH2C7(NO3)2
_chemical_formula_sum   'Sm4 H8 C28 N8 O24'
_cell_volume   1268.76998530
_cell_formula_units_Z   4
loop_
 _symmetry_equiv_pos_site_id
 _symmetry_equiv_pos_as_xyz
  1  'x, y, z'
loop_
 _atom_site_type_symbol
 _atom_site_label
 _atom_site_symmetry_multiplicity
 _atom_site_fract_x
 _atom_site_fract_y
 _atom_site_fract_z
 _atom_site_occupancy
  Sm  Sm1  1  0.05063000  0.13677000  0.66439000  1.0
  Sm  Sm2  1  0.44937000  0.36323000  0.16440000  1.0
  Sm  Sm3  1  0.94942000  0.86319000  0.33560000  1.0
  Sm  Sm4  1  0.55057000  0.63683000  0.83560000  1.0
  H  H1  1  0.02173000  0.70487000  0.61179000  1.0
  H  H2  1  0.39051000  0.33279000  0.74672000  1.0
  H  H3  1  0.47821000  0.79510000  0.11181000  1.0
  H  H4  1  0.10947000  0.16720000  0.24673000  1.0
  H  H5  1  0.97811000  0.29500000  0.38820000  1.0
  H  H6  1  0.60956000  0.66716000  0.25323000  1.0
  H  H7  1  0.52188000  0.20500000  0.88821000  1.0
  H  H8  1  0.89042000  0.83285000  0.75321000  1.0
  C  C1  1  0.08302000  0.48222000  0.63293000  1.0
  C  C2  1  0.26681000  0.79879000  0.71196000  1.0
  C  C3  1  0.10509000  0.62275000  0.64218000  1.0
  C  C4  1  0.23423000  0.65112000  0.69220000  1.0
  C  C5  1  0.93726000  0.44245000  0.58427000  1.0
  C  C6  1  0.30790000  0.41516000  0.71601000  1.0
  C  C7  1  0.09056000  0.00781000  0.48748000  1.0
  C  C8  1  0.41695000  0.01776000  0.13294000  1.0
  C  C9  1  0.23314000  0.70119000  0.21196000  1.0
  C  C10  1  0.39486000  0.87723000  0.14219000  1.0
  C  C11  1  0.26572000  0.84887000  0.19220000  1.0
  C  C12  1  0.56274000  0.05751000  0.08430000  1.0
  C  C13  1  0.19206000  0.08483000  0.21602000  1.0
  C  C14  1  0.40943000  0.49220000  0.98748000  1.0
  C  C15  1  0.91696000  0.51768000  0.36707000  1.0
  C  C16  1  0.73307000  0.20115000  0.28805000  1.0
  C  C17  1  0.89481000  0.37717000  0.35783000  1.0
  C  C18  1  0.76566000  0.34883000  0.30781000  1.0
  C  C19  1  0.06273000  0.55741000  0.41576000  1.0
  C  C20  1  0.69211000  0.58479000  0.28397000  1.0
  C  C21  1  0.90943000  0.99216000  0.51249000  1.0
  C  C22  1  0.58302000  0.98232000  0.86707000  1.0
  C  C23  1  0.76692000  0.29885000  0.78805000  1.0
  C  C24  1  0.60517000  0.12283000  0.85783000  1.0
  C  C25  1  0.73432000  0.15117000  0.80781000  1.0
  C  C26  1  0.43726000  0.94259000  0.91579000  1.0
  C  C27  1  0.80786000  0.91522000  0.78396000  1.0
  C  C28  1  0.59057000  0.50784000  0.01249000  1.0
  N  N1  1  0.18501000  0.37788000  0.66990000  1.0
  N  N2  1  0.33696000  0.54720000  0.72877000  1.0
  N  N3  1  0.31497000  0.12210000  0.16992000  1.0
  N  N4  1  0.16299000  0.95279000  0.22878000  1.0
  N  N5  1  0.81503000  0.62203000  0.33006000  1.0
  N  N6  1  0.66296000  0.45276000  0.27123000  1.0
  N  N7  1  0.68495000  0.87797000  0.83006000  1.0
  N  N8  1  0.83701000  0.04725000  0.77122000  1.0
  O  O1  1  0.93472000  0.30861000  0.57690000  1.0
  O  O2  1  0.15211000  0.89742000  0.69591000  1.0
  O  O3  1  0.18199000  0.04876000  0.54275000  1.0
  O  O4  1  0.40381000  0.81196000  0.74520000  1.0
  O  O5  1  0.13341000  0.97948000  0.41402000  1.0
  O  O6  1  0.83390000  0.53707000  0.55681000  1.0
  O  O7  1  0.56530000  0.19135000  0.07695000  1.0
  O  O8  1  0.34785000  0.60257000  0.19592000  1.0
  O  O9  1  0.31801000  0.45124000  0.04275000  1.0
  O  O10  1  0.09614000  0.68803000  0.24520000  1.0
  O  O11  1  0.36658000  0.52053000  0.91402000  1.0
  O  O12  1  0.66611000  0.96287000  0.05686000  1.0
  O  O13  1  0.06527000  0.69127000  0.42309000  1.0
  O  O14  1  0.84777000  0.10252000  0.30407000  1.0
  O  O15  1  0.81802000  0.95123000  0.45723000  1.0
  O  O16  1  0.59605000  0.18802000  0.25480000  1.0
  O  O17  1  0.86658000  0.02051000  0.58597000  1.0
  O  O18  1  0.16601000  0.46281000  0.44328000  1.0
  O  O19  1  0.43476000  0.80872000  0.92314000  1.0
  O  O20  1  0.65222000  0.39748000  0.80407000  1.0
  O  O21  1  0.68198000  0.54877000  0.95722000  1.0
  O  O22  1  0.90394000  0.31198000  0.75480000  1.0
  O  O23  1  0.63341000  0.47949000  0.08596000  1.0
  O  O24  1  0.33401000  0.03717000  0.94332000  1.0
