# generated using pymatgen
data_YH3(C3O2)3
_symmetry_space_group_name_H-M   'P 1'
_cell_length_a   10.36798000
_cell_length_b   10.37336000
_cell_length_c   14.06048000
_cell_angle_alpha   90.00000000
_cell_angle_beta   90.00000000
_cell_angle_gamma   90.00000000
_symmetry_Int_Tables_number   1
_chemical_formula_structural   YH3(C3O2)3
_chemical_formula_sum   'Y4 H12 C36 O24'
_cell_volume   1512.21571790
_cell_formula_units_Z   4
loop_
 _symmetry_equiv_pos_site_id
 _symmetry_equiv_pos_as_xyz
  1  'x, y, z'
loop_
 _atom_site_type_symbol
 _atom_site_label
 _atom_site_symmetry_multiplicity
 _atom_site_fract_x
 _atom_site_fract_y
 _atom_site_fract_z
 _atom_site_occupancy
  Y  Y0  1  0.37227000  0.37232000  0.12502000  1
  Y  Y1  1  0.62773000  0.62767000  0.62501000  1
  Y  Y2  1  0.37227000  0.62767000  0.87499000  1
  Y  Y3  1  0.62773000  0.37232000  0.37499000  1
  H  H4  1  0.42098000  0.03158000  0.89185000  1
  H  H5  1  0.57902000  0.96841000  0.39185000  1
  H  H6  1  0.03163000  0.57916000  0.64179000  1
  H  H7  1  0.96836000  0.42083000  0.14179000  1
  H  H8  1  0.42098000  0.96841000  0.10815000  1
  H  H9  1  0.57902000  0.03158000  0.60815000  1
  H  H10  1  0.03163000  0.42083000  0.35822000  1
  H  H11  1  0.96836000  0.57916000  0.85822000  1
  H  H12  1  0.50000000  0.39054000  0.75000000  1
  H  H13  1  0.50000000  0.60946000  0.25000000  1
  H  H14  1  0.39086000  0.50000000  0.50000000  1
  H  H15  1  0.60914000  0.50000000  0.00000000  1
  C  C16  1  0.45672000  0.21963000  0.83036000  1
  C  C17  1  0.45540000  0.08466000  0.83011000  1
  C  C18  1  0.41714000  0.29582000  0.91517000  1
  C  C19  1  0.54328000  0.78036000  0.33036000  1
  C  C20  1  0.54460000  0.91534000  0.33011000  1
  C  C21  1  0.58285000  0.70418000  0.41517000  1
  C  C22  1  0.21996000  0.54333000  0.58044000  1
  C  C23  1  0.08483000  0.54476000  0.58008000  1
  C  C24  1  0.29560000  0.58273000  0.66572000  1
  C  C25  1  0.78004000  0.45667000  0.08044000  1
  C  C26  1  0.91517000  0.45524000  0.08008000  1
  C  C27  1  0.70440000  0.41727000  0.16573000  1
  C  C28  1  0.45672000  0.78036000  0.16964000  1
  C  C29  1  0.45540000  0.91534000  0.16990000  1
  C  C30  1  0.41714000  0.70418000  0.08483000  1
  C  C31  1  0.54328000  0.21963000  0.66964000  1
  C  C32  1  0.54460000  0.08466000  0.66990000  1
  C  C33  1  0.58285000  0.29582000  0.58483000  1
  C  C34  1  0.21996000  0.45667000  0.41956000  1
  C  C35  1  0.08483000  0.45524000  0.41993000  1
  C  C36  1  0.29560000  0.41727000  0.33428000  1
  C  C37  1  0.78004000  0.54333000  0.91956000  1
  C  C38  1  0.91517000  0.54476000  0.91992000  1
  C  C39  1  0.70440000  0.58273000  0.83428000  1
  C  C40  1  0.50000000  0.28603000  0.75000000  1
  C  C41  1  0.50000000  0.01754000  0.75000000  1
  C  C42  1  0.50000000  0.87353000  0.75000000  1
  C  C43  1  0.50000000  0.71396000  0.25000000  1
  C  C44  1  0.50000000  0.98245000  0.25000000  1
  C  C45  1  0.50000000  0.12647000  0.25000000  1
  C  C46  1  0.28629000  0.50000000  0.50000000  1
  C  C47  1  0.01774000  0.50000000  0.50000000  1
  C  C48  1  0.87354000  0.50000000  0.50000000  1
  C  C49  1  0.71371000  0.50000000  0.00000000  1
  C  C50  1  0.98226000  0.50000000  0.00000000  1
  C  C51  1  0.12646000  0.50000000  0.00000000  1
  O  O52  1  0.40331000  0.23972000  0.99513000  1
  O  O53  1  0.40230000  0.41767000  0.90537000  1
  O  O54  1  0.58171000  0.81768000  0.69607000  1
  O  O55  1  0.59669000  0.76028000  0.49514000  1
  O  O56  1  0.59770000  0.58233000  0.40537000  1
  O  O57  1  0.41829000  0.18232000  0.19607000  1
  O  O58  1  0.23872000  0.59674000  0.74538000  1
  O  O59  1  0.41771000  0.59743000  0.65708000  1
  O  O60  1  0.81763000  0.41648000  0.44767000  1
  O  O61  1  0.76128000  0.40326000  0.24538000  1
  O  O62  1  0.58229000  0.40257000  0.15708000  1
  O  O63  1  0.18237000  0.58351000  0.94767000  1
  O  O64  1  0.40331000  0.76028000  0.00487000  1
  O  O65  1  0.40230000  0.58233000  0.09463000  1
  O  O66  1  0.58171000  0.18232000  0.30394000  1
  O  O67  1  0.59669000  0.23972000  0.50487000  1
  O  O68  1  0.59770000  0.41767000  0.59463000  1
  O  O69  1  0.41829000  0.81768000  0.80393000  1
  O  O70  1  0.23872000  0.40326000  0.25462000  1
  O  O71  1  0.41771000  0.40257000  0.34293000  1
  O  O72  1  0.81763000  0.58351000  0.55233000  1
  O  O73  1  0.76128000  0.59674000  0.75462000  1
  O  O74  1  0.58229000  0.59743000  0.84292000  1
  O  O75  1  0.18237000  0.41648000  0.05233000  1
