# generated using pymatgen
data_InH6C8NO5
_symmetry_space_group_name_H-M   'P 1'
_cell_length_a   8.07857000
_cell_length_b   17.38653499
_cell_length_c   17.39647000
_cell_angle_alpha   117.62395397
_cell_angle_beta   98.88683000
_cell_angle_gamma   98.90956891
_symmetry_Int_Tables_number   1
_chemical_formula_structural   InH6C8NO5
_chemical_formula_sum   'In6 H36 C48 N6 O30'
_cell_volume   2066.11289856
_cell_formula_units_Z   6
loop_
 _symmetry_equiv_pos_site_id
 _symmetry_equiv_pos_as_xyz
  1  'x, y, z'
loop_
 _atom_site_type_symbol
 _atom_site_label
 _atom_site_symmetry_multiplicity
 _atom_site_fract_x
 _atom_site_fract_y
 _atom_site_fract_z
 _atom_site_occupancy
  In  In1  1  0.07290000  0.72897000  0.30035000  1.0
  In  In2  1  0.34346000  0.57130000  0.27097000  1.0
  In  In3  1  0.77275000  0.69996000  0.42857000  1.0
  In  In4  1  0.92710000  0.27103000  0.69965000  1.0
  In  In5  1  0.65654000  0.42870000  0.72903000  1.0
  In  In6  1  0.22726000  0.30004000  0.57142000  1.0
  H  H1  1  0.90598000  0.13345000  0.72876000  1.0
  H  H2  1  0.09055000  0.21151000  0.80617000  1.0
  H  H3  1  0.74530000  0.62061000  0.25714000  1.0
  H  H4  1  0.39238000  0.96197000  0.54610000  1.0
  H  H5  1  0.37040000  0.22204000  0.74979000  1.0
  H  H6  1  0.91019000  0.00098000  0.61399000  1.0
  H  H7  1  0.77151000  0.59484000  0.86656000  1.0
  H  H8  1  0.87850000  0.59493000  0.78876000  1.0
  H  H9  1  0.12293000  0.63601000  0.37894000  1.0
  H  H10  1  0.42977000  0.58409000  0.03792000  1.0
  H  H11  1  0.14734000  0.52775000  0.77804000  1.0
  H  H12  1  0.90840000  0.61279000  0.99912000  1.0
  H  H13  1  0.17776000  0.27109000  0.40502000  1.0
  H  H14  1  0.28460000  0.19342000  0.40533000  1.0
  H  H15  1  0.48778000  0.74268000  0.36373000  1.0
  H  H16  1  0.84573000  0.45416000  0.41593000  1.0
  H  H17  1  0.62121000  0.25013000  0.47241000  1.0
  H  H18  1  0.29591000  0.38579000  0.38737000  1.0
  H  H19  1  0.09403000  0.86655000  0.27124000  1.0
  H  H20  1  0.90945000  0.78849000  0.19383000  1.0
  H  H21  1  0.25472000  0.37940000  0.74287000  1.0
  H  H22  1  0.60762000  0.03803000  0.45390000  1.0
  H  H23  1  0.62960000  0.77796000  0.25021000  1.0
  H  H24  1  0.08981000  0.99902000  0.38601000  1.0
  H  H25  1  0.22850000  0.40516000  0.13344000  1.0
  H  H26  1  0.12150000  0.40507000  0.21123000  1.0
  H  H27  1  0.87707000  0.36399000  0.62106000  1.0
  H  H28  1  0.57025000  0.41592000  0.96209000  1.0
  H  H29  1  0.85266000  0.47225000  0.22196000  1.0
  H  H30  1  0.09160000  0.38721000  0.00088000  1.0
  H  H31  1  0.82225000  0.72891000  0.59497000  1.0
  H  H32  1  0.71540000  0.80658000  0.59466000  1.0
  H  H33  1  0.51222000  0.25732000  0.63626000  1.0
  H  H34  1  0.15427000  0.54584000  0.58407000  1.0
  H  H35  1  0.37879000  0.74987000  0.52759000  1.0
  H  H36  1  0.70410000  0.61421000  0.61263000  1.0
  C  C1  1  0.05099000  0.87824000  0.49877000  1.0
  C  C2  1  0.14114000  0.97264000  0.57080000  1.0
  C  C3  1  0.31912000  0.00571000  0.58557000  1.0
  C  C4  1  0.40196000  0.09495000  0.65135000  1.0
  C  C5  1  0.59485000  0.12802000  0.67025000  1.0
  C  C6  1  0.30671000  0.15179000  0.70115000  1.0
  C  C7  1  0.13005000  0.11706000  0.68840000  1.0
  C  C8  1  0.04736000  0.02769000  0.62382000  1.0
  C  C9  1  0.17279000  0.62079000  0.12185000  1.0
  C  C10  1  0.16806000  0.59827000  0.02741000  1.0
  C  C11  1  0.31291000  0.57995000  0.99426000  1.0
  C  C12  1  0.30679000  0.55656000  0.90507000  1.0
  C  C13  1  0.46686000  0.54217000  0.87208000  1.0
  C  C14  1  0.15450000  0.54951000  0.84835000  1.0
  C  C15  1  0.01251000  0.57144000  0.88312000  1.0
  C  C16  1  0.01907000  0.59616000  0.97245000  1.0
  C  C17  1  0.55146000  0.50092000  0.37912000  1.0
  C  C18  1  0.57000000  0.42914000  0.40195000  1.0
  C  C19  1  0.73331000  0.41440000  0.42012000  1.0
  C  C20  1  0.75092000  0.34850000  0.44342000  1.0
  C  C21  1  0.92512000  0.32959000  0.45751000  1.0
  C  C22  1  0.60602000  0.29874000  0.45072000  1.0
  C  C23  1  0.44199000  0.31145000  0.42891000  1.0
  C  C24  1  0.42343000  0.37605000  0.40410000  1.0
  C  C25  1  0.94901000  0.12176000  0.50123000  1.0
  C  C26  1  0.85886000  0.02736000  0.42919000  1.0
  C  C27  1  0.68089000  0.99430000  0.41444000  1.0
  C  C28  1  0.59805000  0.90505000  0.34865000  1.0
  C  C29  1  0.40515000  0.87198000  0.32975000  1.0
  C  C30  1  0.69329000  0.84821000  0.29885000  1.0
  C  C31  1  0.86996000  0.88294000  0.31160000  1.0
  C  C32  1  0.95264000  0.97231000  0.37618000  1.0
  C  C33  1  0.82721000  0.37921000  0.87815000  1.0
  C  C34  1  0.83194000  0.40173000  0.97259000  1.0
  C  C35  1  0.68709000  0.42005000  0.00574000  1.0
  C  C36  1  0.69321000  0.44344000  0.09492000  1.0
  C  C37  1  0.53315000  0.45783000  0.12792000  1.0
  C  C38  1  0.84550000  0.45049000  0.15165000  1.0
  C  C39  1  0.98750000  0.42857000  0.11689000  1.0
  C  C40  1  0.98093000  0.40384000  0.02754000  1.0
  C  C41  1  0.44855000  0.49908000  0.62088000  1.0
  C  C42  1  0.43001000  0.57086000  0.59805000  1.0
  C  C43  1  0.26670000  0.58561000  0.57989000  1.0
  C  C44  1  0.24908000  0.65150000  0.55657000  1.0
  C  C45  1  0.07488000  0.67041000  0.54248000  1.0
  C  C46  1  0.39398000  0.70126000  0.54928000  1.0
  C  C47  1  0.55801000  0.68855000  0.57109000  1.0
  C  C48  1  0.57659000  0.62396000  0.59590000  1.0
  N  N1  1  0.02892000  0.17260000  0.73928000  1.0
  N  N2  1  0.85587000  0.56669000  0.82752000  1.0
  N  N3  1  0.29004000  0.26041000  0.43355000  1.0
  N  N4  1  0.97108000  0.82740000  0.26072000  1.0
  N  N5  1  0.14413000  0.43331000  0.17248000  1.0
  N  N6  1  0.70996000  0.73959000  0.56645000  1.0
  O  O1  1  0.13557000  0.83686000  0.44351000  1.0
  O  O2  1  0.89669000  0.84624000  0.49871000  1.0
  O  O3  1  0.65008000  0.20817000  0.68169000  1.0
  O  O4  1  0.68834000  0.07872000  0.67523000  1.0
  O  O5  1  0.81440000  0.68213000  0.30339000  1.0
  O  O6  1  0.29783000  0.60604000  0.16284000  1.0
  O  O7  1  0.05196000  0.65385000  0.15432000  1.0
  O  O8  1  0.44153000  0.47384000  0.79176000  1.0
  O  O9  1  0.61026000  0.59574000  0.92152000  1.0
  O  O10  1  0.13071000  0.62087000  0.31749000  1.0
  O  O11  1  0.69088000  0.55713000  0.39421000  1.0
  O  O12  1  0.39755000  0.49979000  0.34557000  1.0
  O  O13  1  0.96842000  0.31805000  0.52617000  1.0
  O  O14  1  0.01418000  0.32451000  0.40336000  1.0
  O  O15  1  0.51086000  0.69612000  0.37849000  1.0
  O  O16  1  0.86444000  0.16314000  0.55649000  1.0
  O  O17  1  0.10331000  0.15376000  0.50129000  1.0
  O  O18  1  0.34993000  0.79183000  0.31831000  1.0
  O  O19  1  0.31166000  0.92128000  0.32477000  1.0
  O  O20  1  0.18560000  0.31787000  0.69661000  1.0
  O  O21  1  0.70217000  0.39396000  0.83716000  1.0
  O  O22  1  0.94805000  0.34615000  0.84568000  1.0
  O  O23  1  0.55847000  0.52616000  0.20823000  1.0
  O  O24  1  0.38975000  0.40426000  0.07848000  1.0
  O  O25  1  0.86929000  0.37913000  0.68251000  1.0
  O  O26  1  0.30912000  0.44287000  0.60579000  1.0
  O  O27  1  0.60245000  0.50021000  0.65443000  1.0
  O  O28  1  0.03159000  0.68196000  0.47383000  1.0
  O  O29  1  0.98583000  0.67549000  0.59663000  1.0
  O  O30  1  0.48915000  0.30389000  0.62151000  1.0
