# generated using pymatgen
data_ZnH22C27(NO3)2
_symmetry_space_group_name_H-M   'P 1'
_cell_length_a   7.73479000
_cell_length_b   8.55977000
_cell_length_c   27.52168000
_cell_angle_alpha   88.41783000
_cell_angle_beta   87.27556000
_cell_angle_gamma   86.07350000
_symmetry_Int_Tables_number   1
_chemical_formula_structural   ZnH22C27(NO3)2
_chemical_formula_sum   'Zn2 H44 C54 N4 O12'
_cell_volume   1815.28172958
_cell_formula_units_Z   2
loop_
 _symmetry_equiv_pos_site_id
 _symmetry_equiv_pos_as_xyz
  1  'x, y, z'
loop_
 _atom_site_type_symbol
 _atom_site_label
 _atom_site_symmetry_multiplicity
 _atom_site_fract_x
 _atom_site_fract_y
 _atom_site_fract_z
 _atom_site_occupancy
  Zn  Zn0  1  0.69306000  0.51799000  0.49438000  1
  Zn  Zn1  1  0.30694000  0.48201000  0.50562000  1
  H  H2  1  0.98790000  0.37879000  0.53540000  1
  H  H3  1  0.76225000  0.51526000  0.25381000  1
  H  H4  1  0.25344000  0.92989000  0.95530000  1
  H  H5  1  0.75852000  0.28612000  0.02076000  1
  H  H6  1  0.29748000  0.00989000  0.50570000  1
  H  H7  1  0.70250000  0.99011000  0.49421000  1
  H  H8  1  0.07441000  0.83016000  0.31530000  1
  H  H9  1  0.96550000  0.65361000  0.30484000  1
  H  H10  1  0.91314000  0.76243000  0.35890000  1
  H  H11  1  0.10401000  0.52018000  0.37556000  1
  H  H12  1  0.19484000  0.70156000  0.38997000  1
  H  H13  1  0.01223000  0.62081000  0.46445000  1
  H  H14  1  0.01490000  0.34564000  0.70476000  1
  H  H15  1  0.87143000  0.19767000  0.68931000  1
  H  H16  1  0.06421000  0.23031000  0.65193000  1
  H  H17  1  0.82373000  0.34198000  0.61054000  1
  H  H18  1  0.93664000  0.50445000  0.63094000  1
  H  H19  1  0.30266000  0.18195000  0.92202000  1
  H  H20  1  0.49954000  0.16539000  0.88378000  1
  H  H21  1  0.30595000  0.26656000  0.86153000  1
  H  H22  1  0.34092000  0.02109000  0.82487000  1
  H  H23  1  0.15682000  0.01130000  0.86712000  1
  H  H24  1  0.21295000  0.61929000  0.25952000  1
  H  H25  1  0.92312000  0.09814000  0.05813000  1
  H  H26  1  0.70445000  0.03618000  0.05597000  1
  H  H27  1  0.84777000  0.95363000  0.10095000  1
  H  H28  1  0.85226000  0.21118000  0.13958000  1
  H  H29  1  0.63882000  0.13877000  0.13799000  1
  H  H30  1  0.17749000  0.18118000  0.09071000  1
  H  H31  1  0.40904000  0.17870000  0.09123000  1
  H  H32  1  0.29437000  0.29912000  0.04730000  1
  H  H33  1  0.40906000  0.08570000  0.00220000  1
  H  H34  1  0.18396000  0.04525000  0.01793000  1
  H  H35  1  0.82226000  0.54101000  0.73066000  1
  H  H36  1  0.18174000  0.48432000  0.91041000  1
  H  H37  1  0.28145000  0.46043000  0.96819000  1
  H  H38  1  0.13487000  0.62915000  0.95648000  1
  H  H39  1  0.00242000  0.43579000  0.01080000  1
  H  H40  1  0.03584000  0.28579000  0.96621000  1
  H  H41  1  0.28398000  0.94761000  0.12444000  1
  H  H42  1  0.92870000  0.36935000  0.87917000  1
  H  H43  1  0.24492000  0.51238000  0.66284000  1
  H  H44  1  0.75834000  0.46752000  0.34089000  1
  H  H45  1  0.26717000  0.54358000  0.75012000  1
  C  C46  1  0.45401000  0.79483000  0.50121000  1
  C  C47  1  0.48162000  0.74509000  0.86627000  1
  C  C48  1  0.48263000  0.52795000  0.35274000  1
  C  C49  1  0.52288000  0.48731000  0.64734000  1
  C  C50  1  0.47300000  0.76619000  0.97008000  1
  C  C51  1  0.65503000  0.52327000  0.02146000  1
  C  C52  1  0.70052000  0.55198000  0.97222000  1
  C  C53  1  0.46414000  0.76655000  0.02257000  1
  C  C54  1  0.59184000  0.65814000  0.94563000  1
  C  C55  1  0.54640000  0.63382000  0.04735000  1
  C  C56  1  0.36339000  0.86271000  0.94065000  1
  C  C57  1  0.54599000  0.20517000  0.49876000  1
  C  C58  1  0.70263000  0.37823000  0.04361000  1
  C  C59  1  0.38314000  0.86925000  0.88983000  1
  C  C60  1  0.67706000  0.34911000  0.09353000  1
  C  C61  1  0.49420000  0.50693000  0.40585000  1
  C  C62  1  0.50668000  0.49194000  0.59416000  1
  C  C63  1  0.37653000  0.88801000  0.05182000  1
  C  C64  1  0.84160000  0.46865000  0.94730000  1
  C  C65  1  0.42984000  0.95843000  0.50193000  1
  C  C66  1  0.57015000  0.04157000  0.49799000  1
  C  C67  1  0.42005000  0.71258000  0.17633000  1
  C  C68  1  0.52196000  0.61042000  0.09821000  1
  C  C69  1  0.67844000  0.49394000  0.82341000  1
  C  C70  1  0.56566000  0.45815000  0.17309000  1
  C  C71  1  0.46528000  0.70786000  0.81689000  1
  C  C72  1  0.64012000  0.53054000  0.27462000  1
  C  C73  1  0.38467000  0.53262000  0.72712000  1
  C  C74  1  0.63743000  0.50481000  0.32442000  1
  C  C75  1  0.37233000  0.50963000  0.67759000  1
  C  C76  1  0.32633000  0.58013000  0.32992000  1
  C  C77  1  0.68779000  0.47629000  0.66853000  1
  C  C78  1  0.33006000  0.59177000  0.27876000  1
  C  C79  1  0.59297000  0.64562000  0.89440000  1
  C  C80  1  0.69702000  0.52669000  0.71605000  1
  C  C81  1  0.48609000  0.56926000  0.25125000  1
  C  C82  1  0.54717000  0.54937000  0.74622000  1
  C  C83  1  0.16071000  0.62724000  0.35984000  1
  C  C84  1  0.02046000  0.72428000  0.33272000  1
  C  C85  1  0.85358000  0.40824000  0.64272000  1
  C  C86  1  0.95659000  0.28854000  0.67438000  1
  C  C87  1  0.30041000  0.01319000  0.86376000  1
  C  C88  1  0.35576000  0.16565000  0.88427000  1
  C  C89  1  0.74447000  0.19086000  0.11571000  1
  C  C90  1  0.43023000  0.72756000  0.12552000  1
  C  C91  1  0.80878000  0.06253000  0.08022000  1
  C  C92  1  0.31543000  0.05035000  0.03166000  1
  C  C93  1  0.29852000  0.18497000  0.06752000  1
  C  C94  1  0.00892000  0.41361000  0.97126000  1
  C  C95  1  0.16100000  0.50216000  0.95008000  1
  C  C96  1  0.70093000  0.52745000  0.87175000  1
  C  C97  1  0.35669000  0.86144000  0.10231000  1
  C  C98  1  0.83139000  0.44655000  0.89765000  1
  C  C99  1  0.59004000  0.47053000  0.12189000  1
  N  N100  1  0.48870000  0.58024000  0.19898000  1
  N  N101  1  0.56274000  0.58406000  0.79669000  1
  N  N102  1  0.04968000  0.45796000  0.51312000  1
  N  N103  1  0.95032000  0.54204000  0.48688000  1
  O  O104  1  0.61075000  0.73857000  0.49678000  1
  O  O105  1  0.76745000  0.36796000  0.80375000  1
  O  O106  1  0.34758000  0.78844000  0.78977000  1
  O  O107  1  0.61851000  0.32635000  0.19756000  1
  O  O108  1  0.38925000  0.26143000  0.50322000  1
  O  O109  1  0.32161000  0.71163000  0.50519000  1
  O  O110  1  0.67839000  0.28837000  0.49481000  1
  O  O111  1  0.64456000  0.51344000  0.42455000  1
  O  O112  1  0.35544000  0.48656000  0.57545000  1
  O  O113  1  0.35541000  0.48650000  0.43296000  1
  O  O114  1  0.64459000  0.51350000  0.56704000  1
  O  O115  1  0.34647000  0.83157000  0.20303000  1
