# generated using pymatgen
data_SmH6(C2O)6
_symmetry_space_group_name_H-M   'P 1'
_cell_length_a   9.90980000
_cell_length_b   10.53140000
_cell_length_c   11.06190000
_cell_angle_alpha   77.71100000
_cell_angle_beta   76.63800000
_cell_angle_gamma   66.32000000
_symmetry_Int_Tables_number   1
_chemical_formula_structural   SmH6(C2O)6
_chemical_formula_sum   'Sm2 H12 C24 O12'
_cell_volume   1019.26588569
_cell_formula_units_Z   2
loop_
 _symmetry_equiv_pos_site_id
 _symmetry_equiv_pos_as_xyz
  1  'x, y, z'
loop_
 _atom_site_type_symbol
 _atom_site_label
 _atom_site_symmetry_multiplicity
 _atom_site_fract_x
 _atom_site_fract_y
 _atom_site_fract_z
 _atom_site_occupancy
  Sm  Sm1  1  0.94398000  0.22639000  0.82287000  1.0
  Sm  Sm2  1  0.05602000  0.77361000  0.17713000  1.0
  H  H1  1  0.65130000  0.86100000  0.14710000  1.0
  H  H2  1  0.59690000  0.11700000  0.82250000  1.0
  H  H3  1  0.43820000  0.41230000  0.70650000  1.0
  H  H4  1  0.73810000  0.50430000  0.42650000  1.0
  H  H5  1  0.31360000  0.91900000  0.50730000  1.0
  H  H6  1  0.45340000  0.18270000  0.60780000  1.0
  H  H7  1  0.34870000  0.13900000  0.85290000  1.0
  H  H8  1  0.40310000  0.88300000  0.17750000  1.0
  H  H9  1  0.56180000  0.58770000  0.29350000  1.0
  H  H10  1  0.26190000  0.49570000  0.57350000  1.0
  H  H11  1  0.68640000  0.08100000  0.49270000  1.0
  H  H12  1  0.54660000  0.81730000  0.39220000  1.0
  C  C1  1  0.64870000  0.98720000  0.98180000  1.0
  C  C2  1  0.59110000  0.91680000  0.08800000  1.0
  C  C3  1  0.55810000  0.06990000  0.89400000  1.0
  C  C4  1  0.80860000  0.97440000  0.96480000  1.0
  C  C5  1  0.60580000  0.44860000  0.57910000  1.0
  C  C6  1  0.46300000  0.44720000  0.62340000  1.0
  C  C7  1  0.64310000  0.50220000  0.45590000  1.0
  C  C8  1  0.72030000  0.38970000  0.66480000  1.0
  C  C9  1  0.35840000  0.06350000  0.56610000  1.0
  C  C10  1  0.38840000  0.95250000  0.50380000  1.0
  C  C11  1  0.47160000  0.10980000  0.56390000  1.0
  C  C12  1  0.20740000  0.12860000  0.64430000  1.0
  C  C13  1  0.35130000  0.01280000  0.01820000  1.0
  C  C14  1  0.40890000  0.08320000  0.91200000  1.0
  C  C15  1  0.44190000  0.93010000  0.10600000  1.0
  C  C16  1  0.19140000  0.02560000  0.03520000  1.0
  C  C17  1  0.39420000  0.55140000  0.42090000  1.0
  C  C18  1  0.53700000  0.55280000  0.37660000  1.0
  C  C19  1  0.35690000  0.49780000  0.54410000  1.0
  C  C20  1  0.27970000  0.61030000  0.33520000  1.0
  C  C21  1  0.64160000  0.93650000  0.43390000  1.0
  C  C22  1  0.61160000  0.04750000  0.49620000  1.0
  C  C23  1  0.52840000  0.89020000  0.43610000  1.0
  C  C24  1  0.79260000  0.87140000  0.35570000  1.0
  O  O1  1  0.85630000  0.04420000  0.87070000  1.0
  O  O2  1  0.88050000  0.89800000  0.04840000  1.0
  O  O3  1  0.85310000  0.37980000  0.62420000  1.0
  O  O4  1  0.68120000  0.34840000  0.77980000  1.0
  O  O5  1  0.17290000  0.24480000  0.67930000  1.0
  O  O6  1  0.11950000  0.06120000  0.67500000  1.0
  O  O7  1  0.14370000  0.95580000  0.12930000  1.0
  O  O8  1  0.11950000  0.10200000  0.95160000  1.0
  O  O9  1  0.14690000  0.62020000  0.37580000  1.0
  O  O10  1  0.31880000  0.65160000  0.22020000  1.0
  O  O11  1  0.82710000  0.75520000  0.32070000  1.0
  O  O12  1  0.88050000  0.93880000  0.32500000  1.0
