# generated using pymatgen
data_H18C30O
_symmetry_space_group_name_H-M   'P 1'
_cell_length_a   21.68005000
_cell_length_b   28.90110000
_cell_length_c   43.39300000
_cell_angle_alpha   89.98610000
_cell_angle_beta   89.35650000
_cell_angle_gamma   89.04000000
_symmetry_Int_Tables_number   1
_chemical_formula_structural   H18C30O
_chemical_formula_sum   'H144 C240 O8'
_cell_volume   27183.53750741
_cell_formula_units_Z   8
loop_
 _symmetry_equiv_pos_site_id
 _symmetry_equiv_pos_as_xyz
  1  'x, y, z'
loop_
 _atom_site_type_symbol
 _atom_site_label
 _atom_site_symmetry_multiplicity
 _atom_site_fract_x
 _atom_site_fract_y
 _atom_site_fract_z
 _atom_site_occupancy
  C  1  1  0.25889900  0.03023600  0.23995000  1
  C  2  1  0.29955800  0.05777300  0.25748550  1
  C  3  1  0.30132700  0.10648600  0.25501100  1
  C  4  1  0.26027900  0.12971000  0.23496250  1
  C  5  1  0.21774600  0.10425700  0.21761400  1
  C  6  1  0.21848300  0.05537600  0.21998100  1
  C  9  1  0.25811800  0.97977100  0.24308750  1
  C  10  1  0.30751600  0.95369600  0.25660000  1
  C  11  1  0.30679800  0.90495000  0.26059200  1
  C  12  1  0.25454400  0.88092700  0.25017550  1
  C  13  1  0.20651300  0.90461500  0.23479800  1
  C  14  1  0.20809700  0.95322500  0.23217950  1
  C  21  1  0.75695700  0.03083600  0.73353300  1
  C  22  1  0.71638800  0.05855450  0.71540550  1
  C  23  1  0.71662200  0.10744000  0.71579950  1
  C  24  1  0.75960600  0.13050850  0.73433100  1
  C  25  1  0.80196400  0.10478500  0.75229000  1
  C  26  1  0.79909200  0.05584200  0.75210700  1
  C  29  1  0.75553100  0.98019000  0.73254650  1
  C  30  1  0.70463300  0.95501250  0.72080000  1
  C  31  1  0.70466100  0.90608900  0.71853550  1
  C  32  1  0.75574300  0.88064850  0.72996550  1
  C  33  1  0.80627400  0.90380000  0.74285800  1
  C  34  1  0.80635900  0.95268700  0.74283900  1
  C  41  1  0.25056500  0.47658850  0.73226200  1
  C  42  1  0.29539200  0.45069350  0.71516600  1
  C  43  1  0.29960200  0.40194050  0.71707700  1
  C  44  1  0.25775600  0.37784850  0.73626700  1
  C  45  1  0.21175600  0.40227250  0.75337400  1
  C  46  1  0.20953600  0.45120000  0.75151400  1
  C  49  1  0.24397800  0.52525250  0.72826700  1
  C  50  1  0.29473000  0.55324850  0.72317650  1
  C  51  1  0.28877000  0.59831700  0.71276050  1
  C  52  1  0.22781100  0.61444650  0.70187850  1
  C  53  1  0.17710800  0.58575000  0.71061700  1
  C  54  1  0.18547400  0.54477350  0.72558600  1
  C  61  1  0.76041200  0.47226600  0.24063450  1
  C  62  1  0.71714300  0.44466500  0.25706650  1
  C  63  1  0.71508400  0.39599900  0.25447500  1
  C  64  1  0.75778200  0.37264000  0.23494300  1
  C  65  1  0.80255100  0.39790900  0.21845600  1
  C  66  1  0.80283200  0.44673100  0.22140500  1
  C  69  1  0.76123200  0.52295300  0.24378800  1
  C  70  1  0.71481400  0.54870300  0.26046200  1
  C  71  1  0.71609100  0.59728900  0.26437700  1
  C  72  1  0.76378400  0.62242300  0.25013500  1
  C  73  1  0.80932800  0.59906500  0.23228500  1
  C  74  1  0.80835200  0.55030500  0.23003300  1
  C  81  1  0.97174900  0.28247200  0.15022000  1
  C  82  1  0.01050200  0.25059900  0.16597200  1
  C  83  1  0.04907100  0.21836300  0.15000100  1
  C  84  1  0.04715500  0.21818600  0.11739100  1
  C  85  1  0.00990000  0.24967300  0.10044500  1
  C  86  1  0.97318100  0.28174700  0.11759200  1
  C  87  1  0.08998700  0.18734000  0.16599500  1
  C  88  1  0.07034300  0.16168600  0.19203700  1
  C  89  1  0.11163500  0.13244000  0.20811000  1
  C  90  1  0.17413800  0.12813600  0.19877000  1
  C  91  1  0.19394300  0.15337000  0.17269200  1
  C  92  1  0.15248300  0.18214000  0.15648500  1
  C  93  1  0.93088800  0.31386800  0.16640900  1
  C  94  1  0.95024400  0.33965300  0.19222900  1
  C  95  1  0.90890300  0.36925900  0.20845500  1
  C  96  1  0.84662000  0.37382000  0.19948800  1
  C  97  1  0.82720100  0.34859300  0.17355500  1
  C  98  1  0.86862600  0.31935800  0.15727350  1
  C  99  1  0.00932000  0.24918600  0.06722700  1
  C  100  1  0.95504400  0.25982700  0.05056000  1
  C  101  1  0.95472700  0.26018600  0.01811500  1
  C  102  1  0.00828100  0.24886500  0.00044550  1
  C  103  1  0.06230500  0.23753000  0.01715900  1
  C  104  1  0.06299300  0.23816700  0.04960100  1
  C  120  1  0.04390700  0.28413000  0.81758250  1
  C  121  1  0.00602200  0.25274000  0.80164100  1
  C  122  1  0.96836200  0.22050200  0.81742000  1
  C  123  1  0.97072600  0.21983550  0.85004100  1
  C  124  1  0.00650600  0.25107500  0.86718350  1
  C  125  1  0.04194700  0.28321000  0.85021200  1
  C  126  1  0.92814000  0.18958200  0.80155350  1
  C  127  1  0.94716000  0.16496700  0.77474400  1
  C  128  1  0.90678200  0.13506750  0.75939400  1
  C  129  1  0.84585600  0.12869800  0.77034950  1
  C  130  1  0.82645200  0.15320550  0.79698650  1
  C  131  1  0.86693800  0.18277050  0.81234700  1
  C  132  1  0.08449300  0.31545850  0.80190700  1
  C  133  1  0.06548600  0.34217700  0.77621500  1
  C  134  1  0.10627500  0.37264400  0.76117200  1
  C  135  1  0.16773200  0.37722500  0.77119200  1
  C  136  1  0.18695000  0.35070200  0.79679800  1
  C  137  1  0.14607300  0.32063900  0.81188950  1
  C  138  1  0.00698700  0.25022750  0.90041000  1
  C  139  1  0.06068400  0.26080700  0.91717650  1
  C  140  1  0.06090000  0.26079500  0.94961800  1
  C  141  1  0.00787900  0.24910700  0.96719700  1
  C  142  1  0.95443600  0.23788850  0.95039000  1
  C  143  1  0.95379800  0.23891500  0.91794800  1
  C  159  1  0.08256800  0.72993950  0.78152850  1
  C  160  1  0.03769500  0.76249100  0.77071300  1
  C  161  1  0.99979500  0.78959800  0.79069100  1
  C  162  1  0.00798100  0.78469600  0.82274100  1
  C  163  1  0.05116700  0.75284650  0.83498400  1
  C  164  1  0.08703900  0.72573650  0.81413950  1
  C  165  1  0.95255800  0.81982600  0.77917550  1
  C  166  1  0.96371600  0.85074250  0.75448250  1
  C  167  1  0.91623900  0.87962450  0.74302700  1
  C  168  1  0.85605000  0.87795300  0.75575850  1
  C  169  1  0.84485400  0.84750500  0.78059650  1
  C  170  1  0.89231000  0.81891550  0.79207650  1
  C  171  1  0.11975600  0.70203350  0.76115950  1
  C  172  1  0.10529900  0.69727850  0.73037250  1
  C  173  1  0.12417900  0.65955550  0.71367900  1
  C  174  1  0.17465000  0.63019750  0.72520200  1
  C  175  1  0.18960000  0.63671200  0.75787600  1
  C  176  1  0.16951500  0.67644950  0.77191650  1
  C  177  1  0.05811000  0.74847450  0.86755900  1
  C  178  1  0.11744500  0.74798450  0.88097150  1
  C  179  1  0.12430600  0.74476300  0.91312050  1
  C  180  1  0.07206100  0.74187700  0.93238050  1
  C  181  1  0.01289800  0.74217950  0.91957800  1
  C  182  1  0.00593700  0.74550500  0.88744200  1
  C  198  1  0.97045400  0.72191100  0.16966300  1
  C  199  1  0.00755400  0.75315600  0.18609500  1
  C  200  1  0.04360300  0.78664800  0.17068950  1
  C  201  1  0.04111800  0.78860600  0.13812400  1
  C  202  1  0.00538100  0.75772800  0.12087700  1
  C  203  1  0.97078400  0.72448900  0.13709300  1
  C  204  1  0.08282100  0.81733600  0.18695250  1
  C  205  1  0.06292300  0.84127600  0.21388400  1
  C  206  1  0.10239500  0.87167400  0.22931550  1
  C  207  1  0.16291400  0.87873700  0.21816200  1
  C  208  1  0.18311000  0.85492100  0.19139700  1
  C  209  1  0.14371800  0.82473800  0.17610150  1
  C  210  1  0.93183400  0.68933300  0.18499300  1
  C  211  1  0.95312400  0.66166600  0.20978000  1
  C  212  1  0.91390000  0.63003300  0.22464900  1
  C  213  1  0.85230900  0.62533400  0.21504800  1
  C  214  1  0.83088200  0.65262000  0.19026700  1
  C  215  1  0.87003000  0.68407000  0.17552100  1
  C  216  1  0.00410600  0.76008800  0.08803200  1
  C  217  1  0.94753000  0.75838500  0.07201600  1
  C  218  1  0.94630800  0.76068000  0.03963450  1
  C  219  1  0.00155100  0.76460400  0.02273300  1
  C  220  1  0.05805500  0.76631000  0.03813200  1
  C  221  1  0.05936500  0.76414700  0.07051900  1
  C  237  1  0.46985200  0.28642000  0.65085200  1
  C  238  1  0.50883100  0.25500900  0.66676100  1
  C  239  1  0.54761300  0.22311600  0.65073400  1
  C  240  1  0.54558200  0.22246000  0.61818800  1
  C  241  1  0.50823600  0.25378850  0.60124900  1
  C  242  1  0.47139000  0.28585400  0.61826900  1
  C  243  1  0.58902600  0.19275700  0.66656050  1
  C  244  1  0.56907200  0.16531300  0.69165300  1
  C  245  1  0.61068400  0.13576400  0.70716200  1
  C  246  1  0.67348200  0.13333300  0.69815200  1
  C  247  1  0.69368500  0.16063850  0.67315100  1
  C  248  1  0.65190800  0.18966350  0.65745800  1
  C  249  1  0.42840600  0.31720200  0.66683550  1
  C  250  1  0.44784800  0.34451500  0.69188850  1
  C  251  1  0.40601200  0.37412300  0.70769350  1
  C  252  1  0.34352000  0.37690700  0.69893100  1
  C  253  1  0.32380700  0.34978650  0.67397000  1
  C  254  1  0.36575300  0.32062150  0.65805850  1
  C  255  1  0.50768000  0.25306100  0.56815500  1
  C  256  1  0.45345700  0.26390850  0.55153900  1
  C  257  1  0.45322400  0.26409450  0.51915100  1
  C  258  1  0.50665600  0.25197450  0.50165000  1
  C  259  1  0.56055200  0.24024750  0.51831750  1
  C  260  1  0.56131800  0.24147750  0.55068700  1
  C  276  1  0.54450800  0.28294900  0.31921200  1
  C  277  1  0.50594000  0.25215300  0.30338200  1
  C  278  1  0.46701600  0.22141600  0.31950700  1
  C  279  1  0.46843600  0.22139400  0.35208000  1
  C  280  1  0.50534000  0.25221200  0.36891450  1
  C  281  1  0.54233200  0.28311500  0.35178200  1
  C  282  1  0.42638400  0.19136600  0.30375100  1
  C  283  1  0.44720800  0.16325700  0.27890600  1
  C  284  1  0.40647400  0.13385800  0.26355400  1
  C  285  1  0.34372700  0.13213500  0.27253500  1
  C  286  1  0.32257800  0.16018800  0.29721600  1
  C  287  1  0.36347900  0.18911000  0.31272600  1
  C  288  1  0.58626800  0.31239300  0.30322350  1
  C  289  1  0.56698200  0.34053800  0.27831400  1
  C  290  1  0.60891400  0.36942500  0.26285000  1
  C  291  1  0.67134300  0.37047700  0.27175500  1
  C  292  1  0.69095000  0.34236700  0.29649200  1
  C  293  1  0.64888600  0.31396300  0.31209000  1
  C  294  1  0.50560700  0.25200000  0.40201500  1
  C  295  1  0.55967200  0.26191000  0.41864150  1
  C  296  1  0.55972800  0.26256500  0.45101700  1
  C  297  1  0.50629600  0.25181500  0.46852900  1
  C  298  1  0.45252700  0.24108000  0.45187100  1
  C  299  1  0.45192400  0.24186100  0.41948450  1
  C  315  1  0.54882600  0.71892500  0.32816000  1
  C  316  1  0.51702500  0.75382800  0.31149100  1
  C  317  1  0.47716600  0.78707000  0.32588700  1
  C  318  1  0.47249400  0.78515300  0.35855700  1
  C  319  1  0.50483600  0.75192100  0.37653150  1
  C  320  1  0.54139000  0.71852300  0.36054900  1
  C  321  1  0.44101500  0.81994900  0.30809100  1
  C  322  1  0.42032200  0.80876400  0.27813000  1
  C  323  1  0.38048400  0.83836600  0.26165300  1
  C  324  1  0.35676400  0.87989600  0.27478350  1
  C  325  1  0.37960600  0.89274900  0.30388400  1
  C  326  1  0.42116000  0.86364500  0.31994800  1
  C  327  1  0.58856800  0.68556100  0.31309400  1
  C  328  1  0.57121500  0.66303000  0.28557600  1
  C  329  1  0.61163600  0.63160400  0.27035150  1
  C  330  1  0.67071100  0.62162100  0.28229550  1
  C  331  1  0.68797500  0.64338400  0.30996900  1
  C  332  1  0.64753000  0.67463300  0.32512600  1
  C  333  1  0.50189300  0.75206600  0.40971900  1
  C  334  1  0.55458300  0.74079900  0.42743600  1
  C  335  1  0.55247100  0.74078500  0.45984700  1
  C  336  1  0.49794600  0.75312500  0.47642700  1
  C  337  1  0.44536800  0.76478000  0.45870350  1
  C  338  1  0.44715600  0.76397100  0.42622500  1
  C  354  1  0.46206400  0.72136400  0.65981400  1
  C  355  1  0.49806800  0.75481100  0.67506200  1
  C  356  1  0.53246200  0.78840200  0.65866900  1
  C  357  1  0.52781200  0.78861850  0.62612400  1
  C  358  1  0.49397200  0.75552300  0.60959950  1
  C  359  1  0.46139800  0.72238000  0.62713400  1
  C  360  1  0.57324800  0.82011300  0.67357650  1
  C  361  1  0.55803700  0.84266900  0.70175400  1
  C  362  1  0.59950400  0.87302700  0.71603700  1
  C  363  1  0.65770500  0.88204500  0.70252350  1
  C  364  1  0.67298000  0.85999750  0.67433800  1
  C  365  1  0.63182200  0.82960700  0.66032250  1
  C  366  1  0.42569100  0.68805100  0.67636400  1
  C  367  1  0.38714500  0.70169600  0.70145300  1
  C  368  1  0.34453500  0.67096150  0.71478350  1
  C  369  1  0.33912900  0.62511950  0.70376250  1
  C  370  1  0.37928500  0.61066750  0.67959450  1
  C  371  1  0.42180500  0.64147000  0.66632250  1
  C  372  1  0.49429800  0.75517000  0.57638050  1
  C  373  1  0.44164900  0.74318700  0.55925300  1
  C  374  1  0.44282700  0.74231300  0.52677400  1
  C  375  1  0.49645200  0.75395200  0.50964350  1
  C  376  1  0.54889600  0.76631300  0.52682900  1
  C  377  1  0.54806600  0.76639000  0.55925400  1
  H  7  1  0.32786700  0.04275200  0.27337550  1
  H  16  1  0.17137900  0.96883900  0.22173850  1
  H  17  1  0.29364500  0.18545000  0.21949000  1
  H  18  1  0.23038700  0.83031700  0.27501200  1
  H  19  1  0.18899700  0.03828950  0.20603000  1
  H  20  1  0.34672200  0.96996100  0.26301200  1
  H  27  1  0.68658600  0.04341300  0.70059800  1
  H  36  1  0.84508000  0.96801550  0.75081650  1
  H  37  1  0.72900400  0.18845800  0.74885500  1
  H  38  1  0.78364100  0.82401150  0.71192500  1
  H  39  1  0.82820300  0.03862450  0.76660450  1
  H  40  1  0.66624100  0.97212500  0.71315950  1
  H  47  1  0.32448200  0.46737100  0.70025100  1
  H  56  1  0.15015100  0.52374900  0.72307850  1
  H  57  1  0.29315200  0.32166900  0.75092500  1
  H  58  1  0.23548000  0.60382950  0.65701050  1
  H  59  1  0.17641900  0.46858250  0.76417400  1
  H  60  1  0.33482100  0.54360400  0.73233450  1
  H  67  1  0.68664700  0.45934800  0.27230000  1
  H  76  1  0.84298400  0.53536300  0.21731200  1
  H  77  1  0.72420000  0.31725900  0.21931600  1
  H  78  1  0.79519500  0.67748400  0.26737800  1
  H  79  1  0.83498800  0.46333100  0.20844500  1
  H  80  1  0.67833400  0.53256600  0.27042400  1
  H  105  1  0.92404100  0.38603900  0.22764300  1
  H  106  1  0.99481200  0.33691000  0.19960600  1
  H  107  1  0.78209600  0.35028500  0.16683900  1
  H  108  1  0.85199600  0.30059300  0.13926900  1
  H  109  1  0.91443000  0.26718900  0.06187800  1
  H  110  1  0.91449400  0.26963100  0.00758600  1
  H  111  1  0.10396200  0.23099900  0.06018800  1
  H  112  1  0.10223500  0.22808500  0.00590800  1
  H  113  1  0.16922000  0.20087400  0.13829800  1
  H  114  1  0.23923400  0.15191700  0.16576700  1
  H  115  1  0.09622000  0.11563500  0.22741200  1
  H  116  1  0.02559300  0.16425000  0.19967400  1
  H  117  1  0.01064400  0.25086050  0.18956000  1
  H  118  1  0.94761700  0.30611400  0.10604950  1
  H  119  1  0.07262900  0.19355800  0.10576400  1
  H  144  1  0.09139100  0.39023000  0.74209900  1
  H  145  1  0.02145100  0.33974900  0.76820750  1
  H  146  1  0.23155600  0.35217600  0.80419300  1
  H  147  1  0.16264600  0.30124700  0.82981500  1
  H  148  1  0.10099200  0.26834500  0.90593700  1
  H  149  1  0.10065600  0.27019200  0.96021800  1
  H  150  1  0.91321000  0.23177300  0.90730000  1
  H  151  1  0.91495400  0.22820500  0.96157100  1
  H  152  1  0.85023200  0.20076550  0.83104700  1
  H  153  1  0.78197400  0.15072100  0.80492200  1
  H  154  1  0.92161400  0.11909250  0.73954000  1
  H  155  1  0.99088900  0.16860200  0.76607700  1
  H  156  1  0.00594400  0.25333650  0.77806350  1
  H  157  1  0.06637700  0.30740700  0.86193200  1
  H  158  1  0.94656000  0.19503200  0.86160650  1
  H  183  1  0.11672600  0.66053300  0.69106150  1
  H  184  1  0.10049500  0.72625950  0.71825200  1
  H  185  1  0.22824600  0.62224200  0.76572000  1
  H  186  1  0.19894100  0.69213500  0.78572900  1
  H  187  1  0.15623200  0.75091050  0.86750150  1
  H  188  1  0.16719000  0.74475750  0.92262700  1
  H  189  1  0.96231600  0.74520550  0.87868000  1
  H  190  1  0.97510300  0.73996300  0.93373450  1
  H  191  1  0.88183000  0.79642200  0.80951700  1
  H  192  1  0.80164400  0.84528350  0.79020500  1
  H  193  1  0.92549000  0.90083900  0.72471750  1
  H  194  1  0.00672000  0.85261650  0.74464450  1
  H  195  1  0.03053300  0.76598150  0.74761300  1
  H  196  1  0.11648100  0.70157000  0.82335050  1
  H  197  1  0.98246100  0.80525200  0.83749050  1
  H  222  1  0.92998200  0.61157100  0.24310800  1
  H  223  1  0.99750800  0.66433400  0.21726500  1
  H  224  1  0.78591200  0.65094500  0.18341500  1
  H  225  1  0.85206800  0.70427300  0.15832900  1
  H  226  1  0.90652800  0.75618100  0.08379800  1
  H  227  1  0.90535800  0.75962400  0.02826800  1
  H  228  1  0.10124000  0.76476300  0.08115100  1
  H  229  1  0.09807200  0.76899500  0.02566200  1
  H  230  1  0.16073700  0.80729300  0.15723300  1
  H  231  1  0.22728600  0.85848900  0.18321200  1
  H  232  1  0.08725900  0.88767500  0.24910100  1
  H  233  1  0.01918700  0.83705100  0.22240500  1
  H  234  1  0.00825000  0.75153700  0.20965400  1
  H  235  1  0.94601400  0.70106500  0.12481100  1
  H  236  1  0.06496300  0.81375400  0.12666400  1
  H  261  1  0.42108500  0.39254550  0.72621300  1
  H  262  1  0.49277400  0.34309900  0.69886000  1
  H  263  1  0.27844700  0.35029550  0.66762200  1
  H  264  1  0.34942600  0.30059050  0.64059300  1
  H  265  1  0.41289500  0.27160900  0.56280600  1
  H  266  1  0.41317100  0.27386450  0.50857750  1
  H  267  1  0.60223600  0.23418700  0.56128850  1
  H  268  1  0.60029300  0.23017050  0.50713250  1
  H  269  1  0.66839600  0.20966350  0.63982250  1
  H  270  1  0.73915600  0.16013300  0.66649700  1
  H  271  1  0.59515000  0.11704900  0.72563200  1
  H  272  1  0.52391400  0.16645350  0.69878200  1
  H  273  1  0.50896000  0.25533000  0.69035600  1
  H  274  1  0.44563500  0.31012450  0.60673500  1
  H  275  1  0.57117400  0.19776300  0.60667800  1
  H  300  1  0.59388200  0.38882500  0.24458750  1
  H  301  1  0.52204000  0.34050100  0.27135100  1
  H  302  1  0.73617600  0.34189000  0.30306200  1
  H  303  1  0.66495900  0.29343700  0.32958000  1
  H  304  1  0.60028000  0.26852700  0.40739500  1
  H  305  1  0.59967600  0.27163250  0.46157000  1
  H  306  1  0.41113200  0.23527700  0.40886000  1
  H  307  1  0.41278600  0.23205300  0.46307900  1
  H  308  1  0.34631500  0.20962100  0.33014900  1
  H  309  1  0.27704000  0.16033500  0.30374350  1
  H  310  1  0.42261400  0.11462400  0.24527500  1
  H  311  1  0.49239400  0.16376200  0.27185700  1
  H  312  1  0.50633200  0.25203000  0.27978400  1
  H  313  1  0.56783200  0.30701300  0.36320150  1
  H  314  1  0.44285500  0.19745200  0.36370850  1
  H  339  1  0.59863800  0.61759900  0.24980350  1
  H  340  1  0.52901400  0.66976700  0.27608850  1
  H  341  1  0.73125100  0.63808900  0.31865700  1
  H  342  1  0.66289300  0.69097700  0.34443050  1
  H  343  1  0.59590500  0.73293300  0.41692200  1
  H  344  1  0.59170600  0.73107100  0.47117900  1
  H  345  1  0.40738800  0.77183700  0.41475600  1
  H  346  1  0.40491600  0.77482600  0.46925100  1
  H  347  1  0.43543100  0.87456700  0.34105200  1
  H  348  1  0.36352200  0.92228400  0.31446600  1
  H  349  1  0.36605300  0.82780800  0.24044150  1
  H  350  1  0.43118800  0.77751500  0.26829600  1
  H  351  1  0.52448000  0.75553000  0.28821700  1
  H  352  1  0.56247800  0.69255900  0.37277900  1
  H  353  1  0.44462600  0.80862600  0.36975050  1
  H  378  1  0.31488200  0.68329300  0.73150250  1
  H  379  1  0.38662300  0.73529150  0.70890800  1
  H  380  1  0.37555000  0.57832050  0.67024850  1
  H  381  1  0.44855900  0.62985000  0.64826100  1
  H  382  1  0.40120000  0.73535700  0.57026900  1
  H  383  1  0.40380700  0.73223000  0.51578300  1
  H  384  1  0.58804300  0.77432500  0.57022400  1
  H  385  1  0.58869200  0.77602700  0.51593900  1
  H  386  1  0.64640600  0.81310200  0.64062500  1
  H  387  1  0.71549800  0.86444150  0.66433900  1
  H  388  1  0.58776100  0.88729300  0.73691500  1
  H  389  1  0.51639400  0.83703200  0.71228300  1
  H  390  1  0.50122100  0.75343000  0.69855600  1
  H  391  1  0.43626400  0.69827000  0.61574700  1
  H  392  1  0.54942600  0.81418300  0.61402600  1
  O  8  1  0.25958800  0.17696400  0.23343300  1
  O  15  1  0.24947400  0.83428200  0.25453450  1
  O  28  1  0.76138000  0.17777250  0.73434500  1
  O  35  1  0.75549700  0.83333250  0.72883600  1
  O  48  1  0.25947800  0.33054600  0.73700200  1
  O  55  1  0.22292900  0.62978050  0.67051550  1
  O  68  1  0.75789400  0.32539300  0.23319900  1
  O  75  1  0.76360400  0.66967000  0.25222950  1
