# generated using pymatgen
data_H42C55N4
_symmetry_space_group_name_H-M   'P 1'
_cell_length_a   9.99346667
_cell_length_b   30.52910000
_cell_length_c   42.99260000
_cell_angle_alpha   89.97770000
_cell_angle_beta   90.01510000
_cell_angle_gamma   90.02130000
_symmetry_Int_Tables_number   1
_chemical_formula_structural   H42C55N4
_chemical_formula_sum   'H84 C110 N8'
_cell_volume   13116.67632589
_cell_formula_units_Z   2
loop_
 _symmetry_equiv_pos_site_id
 _symmetry_equiv_pos_as_xyz
  1  'x, y, z'
loop_
 _atom_site_type_symbol
 _atom_site_label
 _atom_site_symmetry_multiplicity
 _atom_site_fract_x
 _atom_site_fract_y
 _atom_site_fract_z
 _atom_site_occupancy
  C  1  1  0.97198900  0.01443567  0.09948400  1
  C  2  1  0.97064400  0.96929700  0.09771400  1
  C  3  1  0.96761200  0.95740333  0.06633400  1
  C  5  1  0.97043900  0.03117667  0.06922300  1
  C  6  1  0.96995300  0.07647133  0.06143400  1
  C  7  1  0.96744800  0.09337633  0.03066200  1
  C  9  1  0.96514100  0.09747367  0.97863633  1
  C  10  1  0.96169400  0.14013067  0.99036900  1
  C  11  1  0.96437400  0.13761867  0.02239800  1
  C  12  1  0.96531200  0.08550767  0.94670933  1
  C  13  1  0.96807700  0.04171367  0.93543367  1
  C  15  1  0.97107000  0.96794400  0.93254633  1
  C  16  1  0.97302000  0.98468500  0.90228700  1
  C  17  1  0.97149900  0.02982433  0.90405600  1
  C  18  1  0.97041900  0.92265100  0.94033533  1
  C  19  1  0.96768700  0.90574400  0.97110500  1
  C  21  1  0.96514000  0.90164100  0.02313000  1
  C  22  1  0.96169300  0.85898500  0.01139400  1
  C  23  1  0.96454100  0.86150000  0.97936567  1
  C  24  1  0.96510200  0.91360733  0.05505800  1
  C  25  1  0.96055700  0.87900600  0.07729767  1
  C  26  1  0.83810400  0.86741000  0.09149500  1
  C  27  1  0.83151400  0.83151200  0.11195600  1
  C  28  1  0.94680800  0.80630300  0.11861867  1
  C  29  1  0.06899600  0.81809700  0.10438300  1
  C  30  1  0.07634000  0.85427400  0.08416700  1
  C  31  1  0.97261000  0.89175600  0.91551600  1
  C  32  1  0.85315700  0.87136767  0.90551633  1
  C  33  1  0.85630900  0.83958500  0.88184900  1
  C  34  1  0.97861100  0.82790100  0.86757000  1
  C  35  1  0.09734800  0.84889800  0.87714967  1
  C  36  1  0.09474800  0.88031667  0.90108600  1
  C  37  1  0.96079300  0.12010733  0.92447000  1
  C  38  1  0.07665500  0.14480533  0.91757600  1
  C  39  1  0.06929600  0.18102567  0.89739800  1
  C  40  1  0.94709800  0.19283267  0.88316933  1
  C  41  1  0.83173900  0.16764633  0.88985567  1
  C  42  1  0.83830700  0.13173033  0.91029967  1
  C  43  1  0.97200000  0.10736333  0.08625700  1
  C  44  1  0.09399100  0.11869467  0.10082400  1
  C  45  1  0.85257200  0.12784400  0.09613200  1
  C  46  1  0.85562300  0.15962733  0.11980100  1
  C  47  1  0.97779300  0.17121467  0.13420800  1
  C  48  1  0.09647200  0.15009133  0.12477600  1
  C  83  1  0.99060300  0.28546667  0.16850367  1
  C  84  1  0.98031600  0.32913533  0.15777200  1
  C  85  1  0.99840700  0.36475067  0.17806200  1
  C  86  1  0.02523700  0.35785167  0.21000700  1
  C  87  1  0.03806900  0.31426533  0.22072600  1
  C  88  1  0.02110900  0.27863633  0.20029600  1
  C  89  1  0.04272800  0.39265367  0.23050600  1
  C  90  1  0.96121400  0.42767300  0.23159633  1
  C  91  1  0.98003500  0.46275667  0.25152200  1
  C  92  1  0.96719800  0.45782533  0.28405533  1
  C  93  1  0.97901300  0.49424233  0.30419433  1
  C  94  1  0.00085400  0.53620833  0.29109500  1
  C  95  1  0.01225300  0.54209433  0.25858100  1
  C  96  1  0.00276200  0.50490867  0.23907100  1
  C  97  1  0.03288700  0.58385033  0.24651500  1
  C  98  1  0.96202900  0.60046567  0.22269100  1
  C  99  1  0.98196700  0.64211367  0.21105100  1
  C  100  1  0.05250400  0.64806367  0.18291400  1
  C  101  1  0.92266800  0.67876000  0.22558300  1
  C  102  1  0.93286000  0.72060300  0.21202433  1
  C  103  1  0.00196600  0.72669233  0.18364300  1
  C  104  1  0.06339600  0.68999000  0.16955100  1
  C  105  1  0.96190900  0.48844467  0.33603500  1
  C  106  1  0.04376500  0.50551667  0.35771767  1
  C  107  1  0.02643200  0.49941867  0.38942433  1
  C  108  1  0.02235400  0.45705867  0.40264967  1
  C  109  1  0.01994800  0.53606167  0.40940500  1
  C  110  1  0.00918100  0.53050167  0.44180600  1
  C  111  1  0.00633900  0.48816467  0.45530500  1
  C  112  1  0.01194400  0.45164600  0.43505600  1
  C  134  1  0.00166600  0.47961367  0.48953900  1
  C  137  1  0.00574800  0.77009733  0.16787800  1
  C  140  1  0.96892900  0.24935433  0.14570300  1
  C  143  1  0.99081300  0.71366300  0.83322800  1
  C  144  1  0.98025600  0.66999300  0.84394667  1
  C  145  1  0.99819100  0.63437867  0.82365400  1
  C  146  1  0.02515700  0.64127667  0.79171900  1
  C  147  1  0.03823000  0.68486500  0.78101133  1
  C  148  1  0.02140000  0.72049300  0.80144267  1
  C  149  1  0.04251200  0.60647933  0.77121300  1
  C  150  1  0.96092800  0.57145733  0.77011200  1
  C  151  1  0.97973600  0.53636833  0.75019600  1
  C  152  1  0.96695800  0.54128033  0.71765900  1
  C  153  1  0.97871800  0.50485200  0.69753300  1
  C  154  1  0.00047800  0.46289433  0.71064667  1
  C  155  1  0.01191300  0.45703133  0.74316400  1
  C  156  1  0.00242700  0.49422367  0.76266333  1
  C  157  1  0.03252600  0.41528333  0.75524100  1
  C  158  1  0.96167300  0.39866367  0.77906067  1
  C  159  1  0.98161000  0.35702467  0.79071800  1
  C  160  1  0.05256900  0.35109767  0.81880567  1
  C  161  1  0.92206300  0.32037067  0.77622600  1
  C  162  1  0.93225900  0.27854500  0.78980800  1
  C  163  1  0.00182700  0.27246700  0.81813567  1
  C  164  1  0.06345500  0.30918467  0.83218800  1
  C  165  1  0.96173300  0.51063967  0.66568533  1
  C  166  1  0.04360900  0.49356400  0.64402633  1
  C  167  1  0.02634700  0.49964467  0.61231367  1
  C  168  1  0.02226400  0.54199833  0.59908233  1
  C  169  1  0.01978800  0.46299367  0.59234000  1
  C  170  1  0.00904700  0.46854133  0.55993533  1
  C  171  1  0.00625900  0.51087433  0.54643000  1
  C  172  1  0.01191800  0.54739967  0.56667300  1
  C  194  1  0.00167700  0.51941633  0.51219400  1
  C  197  1  0.00575300  0.22906833  0.83390933  1
  C  200  1  0.96927400  0.74977500  0.85603067  1
  H  49  1  0.18585100  0.15828467  0.13481900  1
  H  50  1  0.18178500  0.10441733  0.09393800  1
  H  51  1  0.76850600  0.17449433  0.12642700  1
  H  52  1  0.76313400  0.12025333  0.08584300  1
  H  53  1  0.97338100  0.03173933  0.11982800  1
  H  54  1  0.97166500  0.94891000  0.11657500  1
  H  55  1  0.96511100  0.99741900  0.02803500  1
  H  56  1  0.96481500  0.00169567  0.97372800  1
  H  57  1  0.96307400  0.16408167  0.03694500  1
  H  58  1  0.95844100  0.16872267  0.97802700  1
  H  59  1  0.16599400  0.13748867  0.92800633  1
  H  60  1  0.15330500  0.19943833  0.89366567  1
  H  61  1  0.75262700  0.11472500  0.91528133  1
  H  62  1  0.74137900  0.17598000  0.88038567  1
  H  63  1  0.97261600  0.05021467  0.88519667  1
  H  64  1  0.97451600  0.96738100  0.88194433  1
  H  65  1  0.95835600  0.83039033  0.02373300  1
  H  66  1  0.96325900  0.83503933  0.96481600  1
  H  67  1  0.76361300  0.87904100  0.91570400  1
  H  68  1  0.76914800  0.82480600  0.87511800  1
  H  69  1  0.18256000  0.89452600  0.90806300  1
  H  70  1  0.18680600  0.84066533  0.86718067  1
  H  71  1  0.16570300  0.86161400  0.07375700  1
  H  72  1  0.15295400  0.79967200  0.10810400  1
  H  73  1  0.74114600  0.82316900  0.12141600  1
  H  74  1  0.75244600  0.88440600  0.08650700  1
  H  76  1  0.91659900  0.80203833  0.82737633  1
  H  78  1  0.84317100  0.75738900  0.13966500  1
  H  80  1  0.91543800  0.19715267  0.17433600  1
  H  82  1  0.84352700  0.24180633  0.86219867  1
  H  113  1  0.95975100  0.33539033  0.13486800  1
  H  114  1  0.99146800  0.39581200  0.16922867  1
  H  115  1  0.03086400  0.24769167  0.20905000  1
  H  116  1  0.05882800  0.30802133  0.24363500  1
  H  117  1  0.01163200  0.50860367  0.21544867  1
  H  118  1  0.94806300  0.42737967  0.29313000  1
  H  119  1  0.00542800  0.56303733  0.30540033  1
  H  120  1  0.02937400  0.42980767  0.38886900  1
  H  121  1  0.09445100  0.62189367  0.17165300  1
  H  122  1  0.11289800  0.69333733  0.14885000  1
  H  123  1  0.88613300  0.74639900  0.22261900  1
  H  124  1  0.86867800  0.67511900  0.24566400  1
  H  125  1  0.01109800  0.42050167  0.44389333  1
  H  126  1  0.00538800  0.55796367  0.45531200  1
  H  127  1  0.02369200  0.56719633  0.40054900  1
  H  128  1  0.89170300  0.58241233  0.21248900  1
  H  129  1  0.10128000  0.60263767  0.25682600  1
  H  130  1  0.11885300  0.39092667  0.24541300  1
  H  131  1  0.88459800  0.42966167  0.21687000  1
  H  132  1  0.12023400  0.52419333  0.35105533  1
  H  133  1  0.88587300  0.46968833  0.34290433  1
  H  135  1  0.08904800  0.45954067  0.49515600  1
  H  136  1  0.91187900  0.46021633  0.49424533  1
  H  138  1  0.11061200  0.77970800  0.16542800  1
  H  139  1  0.95592100  0.79523800  0.18185600  1
  H  141  1  0.04054200  0.25427367  0.12674700  1
  H  142  1  0.86807200  0.25303900  0.13610200  1
  H  173  1  0.95959700  0.66373633  0.86684567  1
  H  174  1  0.99108300  0.60331567  0.83248233  1
  H  175  1  0.03133900  0.75143700  0.79269533  1
  H  176  1  0.05903400  0.69111300  0.75810700  1
  H  177  1  0.01126300  0.49054333  0.78628767  1
  H  178  1  0.94786400  0.57172067  0.70857367  1
  H  179  1  0.00515900  0.43606333  0.69634733  1
  H  180  1  0.02937500  0.56925533  0.61285800  1
  H  181  1  0.09478200  0.37727467  0.83002367  1
  H  182  1  0.11342400  0.30583800  0.85283400  1
  H  183  1  0.88547300  0.25273000  0.77922967  1
  H  184  1  0.86779200  0.32400333  0.75618000  1
  H  185  1  0.01113200  0.57854033  0.55783033  1
  H  186  1  0.00523000  0.44107467  0.54643267  1
  H  187  1  0.02350100  0.43186300  0.60120100  1
  H  188  1  0.89128300  0.41669467  0.78923500  1
  H  189  1  0.10101600  0.39652267  0.74496467  1
  H  190  1  0.11862400  0.60820833  0.75631167  1
  H  191  1  0.88438300  0.56944667  0.78484900  1
  H  192  1  0.11998300  0.47486967  0.65071000  1
  H  193  1  0.88575400  0.52939333  0.65879167  1
  H  195  1  0.08911400  0.53949300  0.50659700  1
  H  196  1  0.91194000  0.53881267  0.50746533  1
  H  198  1  0.11063700  0.21947500  0.83631733  1
  H  199  1  0.95577000  0.20391533  0.81995600  1
  H  201  1  0.04068100  0.74478967  0.87502667  1
  H  202  1  0.86830200  0.74615200  0.86557133  1
  N  4  1  0.96793900  0.99566100  0.05031500  1
  N  8  1  0.96820300  0.07070800  0.00366900  1
  N  14  1  0.96834800  0.00345867  0.95145300  1
  N  20  1  0.96834200  0.92841000  0.99809933  1
  N  75  1  0.98648900  0.79527767  0.84423333  1
  N  77  1  0.94062900  0.76748100  0.13681800  1
  N  79  1  0.98561400  0.20385333  0.15753500  1
  N  81  1  0.94096400  0.23168033  0.86499767  1
