# generated using pymatgen
data_CuH12(CN2)12
_symmetry_space_group_name_H-M   'P 1'
_cell_length_a   8.24513000
_cell_length_b   8.72122000
_cell_length_c   20.97354000
_cell_angle_alpha   90.00227000
_cell_angle_beta   89.99954000
_cell_angle_gamma   89.77972000
_symmetry_Int_Tables_number   1
_chemical_formula_structural   CuH12(CN2)12
_chemical_formula_sum   'Cu2 H24 C24 N48'
_cell_volume   1508.14562365
_cell_formula_units_Z   2
loop_
 _symmetry_equiv_pos_site_id
 _symmetry_equiv_pos_as_xyz
  1  'x, y, z'
loop_
 _atom_site_type_symbol
 _atom_site_label
 _atom_site_symmetry_multiplicity
 _atom_site_fract_x
 _atom_site_fract_y
 _atom_site_fract_z
 _atom_site_occupancy
  Cu  Cu0  1  0.00001000  0.50000000  0.50000000  1
  Cu  Cu1  1  0.50000000  0.00000000  1.00000000  1
  H  H2  1  0.41098000  0.37396000  0.50314000  1
  H  H3  1  0.17980000  0.93717000  0.49651000  1
  H  H4  1  0.93495000  0.67697000  0.63933000  1
  H  H5  1  0.44599000  0.66612000  0.65970000  1
  H  H6  1  0.50899000  0.79330000  0.86040000  1
  H  H7  1  0.00568000  0.85756000  0.82925000  1
  H  H8  1  0.58903000  0.62605000  0.49686000  1
  H  H9  1  0.82021000  0.06283000  0.50349000  1
  H  H10  1  0.06506000  0.32303000  0.36067000  1
  H  H11  1  0.55402000  0.33389000  0.34030000  1
  H  H12  1  0.49102000  0.20671000  0.13960000  1
  H  H13  1  0.99433000  0.14244000  0.17076000  1
  H  H14  1  0.08905000  0.12602000  0.00317000  1
  H  H15  1  0.32024000  0.56279000  0.99657000  1
  H  H16  1  0.56510000  0.82297000  0.13943000  1
  H  H17  1  0.05400000  0.83380000  0.15981000  1
  H  H18  1  0.99108000  0.70665000  0.36049000  1
  H  H19  1  0.49432000  0.64240000  0.32930000  1
  H  H20  1  0.91096000  0.87399000  0.99683000  1
  H  H21  1  0.67977000  0.43721000  0.00344000  1
  H  H22  1  0.43491000  0.17703000  0.86057000  1
  H  H23  1  0.94601000  0.16620000  0.84019000  1
  H  H24  1  0.00893000  0.29335000  0.63951000  1
  H  H25  1  0.50569000  0.35760000  0.67070000  1
  C  C26  1  0.31725000  0.28721000  0.50222000  1
  C  C27  1  0.19849000  0.06003000  0.49959000  1
  C  C28  1  0.06199000  0.65966000  0.62880000  1
  C  C29  1  0.32680000  0.65285000  0.63918000  1
  C  C30  1  0.38355000  0.82418000  0.86842000  1
  C  C31  1  0.12278000  0.85756000  0.85242000  1
  C  C32  1  0.68276000  0.71279000  0.49779000  1
  C  C33  1  0.80153000  0.93997000  0.50041000  1
  C  C34  1  0.93802000  0.34034000  0.37121000  1
  C  C35  1  0.67321000  0.34715000  0.36082000  1
  C  C36  1  0.61646000  0.17582000  0.13159000  1
  C  C37  1  0.87723000  0.14245000  0.14759000  1
  C  C38  1  0.18278000  0.21279000  0.00235000  1
  C  C39  1  0.30156000  0.43995000  0.99971000  1
  C  C40  1  0.43804000  0.84039000  0.12894000  1
  C  C41  1  0.17326000  0.84719000  0.13933000  1
  C  C42  1  0.11650000  0.67577000  0.36853000  1
  C  C43  1  0.37728000  0.64238000  0.35250000  1
  C  C44  1  0.81723000  0.78722000  0.99765000  1
  C  C45  1  0.69845000  0.56006000  0.00030000  1
  C  C46  1  0.56197000  0.15961000  0.87106000  1
  C  C47  1  0.82675000  0.15281000  0.86067000  1
  C  C48  1  0.88351000  0.32423000  0.63147000  1
  C  C49  1  0.62273000  0.35763000  0.64751000  1
  N  N50  1  0.15880000  0.30683000  0.50875000  1
  N  N51  1  0.08400000  0.16432000  0.50543000  1
  N  N52  1  0.34774000  0.13213000  0.49649000  1
  N  N53  1  0.50166000  0.07131000  0.49170000  1
  N  N54  1  0.12520000  0.60722000  0.57516000  1
  N  N55  1  0.29222000  0.60197000  0.58146000  1
  N  N56  1  0.18472000  0.68990000  0.67121000  1
  N  N57  1  0.15585000  0.74330000  0.73202000  1
  N  N58  1  0.32085000  0.88167000  0.92114000  1
  N  N59  1  0.15572000  0.90350000  0.91109000  1
  N  N60  1  0.26390000  0.80683000  0.82319000  1
  N  N61  1  0.29330000  0.75111000  0.76276000  1
  N  N62  1  0.84121000  0.69318000  0.49126000  1
  N  N63  1  0.91601000  0.83568000  0.49458000  1
  N  N64  1  0.65227000  0.86787000  0.50351000  1
  N  N65  1  0.49835000  0.92869000  0.50830000  1
  N  N66  1  0.87481000  0.39278000  0.42484000  1
  N  N67  1  0.70779000  0.39803000  0.41854000  1
  N  N68  1  0.81530000  0.31010000  0.32879000  1
  N  N69  1  0.84416000  0.25670000  0.26798000  1
  N  N70  1  0.67917000  0.11834000  0.07887000  1
  N  N71  1  0.84429000  0.09650000  0.08891000  1
  N  N72  1  0.73611000  0.19318000  0.17681000  1
  N  N73  1  0.70671000  0.24889000  0.23724000  1
  N  N74  1  0.34125000  0.19313000  0.00880000  1
  N  N75  1  0.41605000  0.33564000  0.00549000  1
  N  N76  1  0.15230000  0.36786000  0.99665000  1
  N  N77  1  0.99843000  0.42872000  0.99164000  1
  N  N78  1  0.37485000  0.89301000  0.07535000  1
  N  N79  1  0.20783000  0.89824000  0.08165000  1
  N  N80  1  0.31533000  0.81006000  0.17134000  1
  N  N81  1  0.34415000  0.75662000  0.23214000  1
  N  N82  1  0.17924000  0.61831000  0.42125000  1
  N  N83  1  0.34437000  0.59646000  0.41119000  1
  N  N84  1  0.23613000  0.69311000  0.32330000  1
  N  N85  1  0.20671000  0.74886000  0.26289000  1
  N  N86  1  0.65876000  0.80687000  0.99120000  1
  N  N87  1  0.58396000  0.66437000  0.99452000  1
  N  N88  1  0.84772000  0.63214000  0.00335000  1
  N  N89  1  0.00159000  0.57128000  0.00836000  1
  N  N90  1  0.62516000  0.10700000  0.92466000  1
  N  N91  1  0.79218000  0.10176000  0.91835000  1
  N  N92  1  0.68468000  0.18995000  0.82866000  1
  N  N93  1  0.65586000  0.24339000  0.76786000  1
  N  N94  1  0.82077000  0.38169000  0.57875000  1
  N  N95  1  0.65565000  0.40355000  0.58881000  1
  N  N96  1  0.76389000  0.30689000  0.67670000  1
  N  N97  1  0.79330000  0.25114000  0.73712000  1
