# generated using pymatgen
data_H28C47(N4O)2
_symmetry_space_group_name_H-M   'P 1'
_cell_length_a   41.08480000
_cell_length_b   41.08480000
_cell_length_c   41.08480000
_cell_angle_alpha   90.00000000
_cell_angle_beta   90.00000000
_cell_angle_gamma   90.00000000
_symmetry_Int_Tables_number   1
_chemical_formula_structural   H28C47(N4O)2
_chemical_formula_sum   'H224 C376 N64 O16'
_cell_volume   69349.53150772
_cell_formula_units_Z   8
loop_
 _symmetry_equiv_pos_site_id
 _symmetry_equiv_pos_as_xyz
  1  'x, y, z'
loop_
 _atom_site_type_symbol
 _atom_site_label
 _atom_site_symmetry_multiplicity
 _atom_site_fract_x
 _atom_site_fract_y
 _atom_site_fract_z
 _atom_site_occupancy
  H  25  1  0.08507700  0.02192300  0.90245700  1
  H  26  1  0.04890600  0.97698100  0.90861000  1
  H  27  1  0.97199600  0.91082800  0.97287000  1
  H  28  1  0.94136900  0.90005500  0.02042200  1
  H  29  1  0.96867400  0.99096700  0.05887100  1
  H  30  1  0.05741200  0.05674100  0.99476400  1
  H  31  1  0.05738300  0.96436800  0.02633400  1
  H  32  1  0.08469800  0.99922000  0.11872500  1
  H  33  1  0.04845500  0.04410300  0.11246300  1
  H  34  1  0.96888300  0.03002900  0.96184700  1
  H  35  1  0.97160900  0.11011500  0.04791900  1
  H  36  1  0.94116300  0.12084000  0.00023800  1
  H  39  1  0.99303300  0.96161500  0.93677600  1
  H  40  1  0.02510800  0.93945900  0.95522400  1
  H  42  1  0.99262700  0.05936800  0.08407900  1
  H  43  1  0.02473900  0.08159300  0.06577700  1
  H  47  1  0.11631800  0.06787800  0.95963600  1
  H  48  1  0.93298200  0.95401900  0.09091000  1
  H  49  1  0.93326200  0.06696700  0.92961100  1
  H  51  1  0.11660900  0.95397300  0.06220900  1
  H  76  1  0.43539900  0.99862200  0.40245000  1
  H  77  1  0.47159300  0.04354700  0.40858400  1
  H  78  1  0.54858700  0.10965700  0.47279500  1
  H  79  1  0.57927000  0.12040000  0.52032100  1
  H  80  1  0.55184600  0.02955100  0.55883400  1
  H  81  1  0.46308600  0.96379600  0.49475000  1
  H  82  1  0.46307400  0.05610000  0.52634300  1
  H  83  1  0.43611500  0.02134500  0.61888300  1
  H  84  1  0.47233500  0.97647000  0.61254000  1
  H  85  1  0.55160800  0.99051200  0.46178100  1
  H  86  1  0.54898600  0.91041900  0.54784900  1
  H  87  1  0.57938900  0.89970700  0.50014300  1
  H  90  1  0.52747900  0.05889500  0.43673800  1
  H  91  1  0.49541400  0.08106700  0.45518500  1
  H  93  1  0.52803700  0.96118500  0.58402300  1
  H  94  1  0.49590100  0.93893100  0.56579800  1
  H  98  1  0.40410300  0.95252900  0.45959500  1
  H  99  1  0.58711000  0.06678600  0.59110600  1
  H  100  1  0.58724400  0.95365600  0.42958400  1
  H  102  1  0.40453600  0.06756300  0.56163300  1
  H  127  1  0.25411800  0.83817100  0.15246800  1
  H  128  1  0.29916600  0.80307700  0.16136300  1
  H  129  1  0.36115800  0.72436700  0.22772600  1
  H  130  1  0.36933300  0.69334600  0.27563500  1
  H  131  1  0.27711400  0.72186500  0.30993900  1
  H  132  1  0.21357000  0.80877300  0.24188400  1
  H  133  1  0.30618100  0.80880700  0.27928600  1
  H  134  1  0.26561400  0.83794200  0.36877600  1
  H  135  1  0.22063400  0.80277100  0.35982900  1
  H  136  1  0.24281300  0.72195300  0.21104800  1
  H  137  1  0.15879700  0.72403600  0.29330300  1
  H  138  1  0.15069400  0.69309000  0.24533600  1
  H  141  1  0.31288200  0.74671400  0.18942500  1
  H  142  1  0.33393100  0.77846700  0.20963900  1
  H  144  1  0.20701700  0.74642600  0.33163600  1
  H  145  1  0.18590100  0.77819000  0.31150700  1
  H  149  1  0.18575100  0.85020900  0.20807900  1
  H  150  1  0.31326900  0.68858000  0.34486900  1
  H  151  1  0.20673900  0.68862400  0.17607100  1
  H  153  1  0.33407200  0.84989300  0.31322000  1
  H  178  1  0.26632900  0.18235800  0.65250100  1
  H  179  1  0.22134700  0.21754400  0.66134400  1
  H  180  1  0.15937400  0.29626300  0.72770900  1
  H  181  1  0.15114400  0.32716900  0.77567600  1
  H  182  1  0.24339600  0.29872300  0.80994400  1
  H  183  1  0.30692600  0.21182200  0.74187500  1
  H  184  1  0.21434100  0.21185700  0.77928800  1
  H  185  1  0.25490700  0.18277700  0.86880000  1
  H  186  1  0.29991400  0.21789900  0.85980400  1
  H  187  1  0.27774500  0.29866500  0.71099500  1
  H  188  1  0.36179300  0.29652300  0.79321500  1
  H  189  1  0.36992500  0.32740600  0.74521700  1
  H  192  1  0.20770000  0.27397500  0.68938300  1
  H  193  1  0.18661400  0.24222300  0.70956600  1
  H  195  1  0.31354600  0.27420600  0.83158400  1
  H  196  1  0.33465200  0.24243400  0.81145800  1
  H  200  1  0.33477100  0.17067900  0.70810100  1
  H  201  1  0.20777300  0.33288200  0.84445300  1
  H  202  1  0.31347300  0.33252200  0.67627600  1
  H  204  1  0.18664800  0.17060700  0.81312700  1
  H  229  1  0.76761400  0.18747400  0.86841800  1
  H  230  1  0.72123900  0.22010900  0.85848000  1
  H  231  1  0.65804600  0.29765000  0.79336800  1
  H  232  1  0.64936900  0.32977100  0.74648700  1
  H  233  1  0.74278500  0.30533400  0.71210700  1
  H  234  1  0.80891400  0.21894800  0.78005400  1
  H  235  1  0.71188600  0.21887400  0.74016400  1
  H  236  1  0.75300300  0.18786300  0.65155200  1
  H  237  1  0.79934400  0.22054300  0.66150700  1
  H  238  1  0.77796100  0.30519500  0.80823300  1
  H  239  1  0.86256700  0.29791500  0.72679100  1
  H  240  1  0.87128300  0.32988300  0.77377500  1
  H  243  1  0.70595900  0.27575900  0.83142100  1
  H  244  1  0.68666000  0.24387600  0.80967800  1
  H  246  1  0.81458500  0.27609700  0.68875800  1
  H  247  1  0.83401600  0.24417300  0.71032100  1
  H  251  1  0.83976700  0.18111200  0.81683700  1
  H  252  1  0.70627800  0.34117200  0.67906300  1
  H  253  1  0.81448100  0.34094100  0.84135000  1
  H  255  1  0.68134900  0.18056800  0.70361700  1
  H  280  1  0.75291500  0.83293300  0.36844300  1
  H  281  1  0.79932400  0.80035900  0.35847100  1
  H  282  1  0.86251800  0.72280700  0.29338800  1
  H  283  1  0.87115400  0.69057400  0.24656800  1
  H  284  1  0.77779600  0.71512000  0.21210000  1
  H  285  1  0.71167900  0.80156400  0.28001300  1
  H  286  1  0.80869500  0.80167800  0.24012700  1
  H  287  1  0.76750500  0.83281100  0.15159400  1
  H  288  1  0.72121500  0.80004700  0.16150000  1
  H  289  1  0.74263200  0.71537400  0.30820900  1
  H  290  1  0.65800900  0.72264100  0.22678600  1
  H  291  1  0.64926200  0.69076600  0.27381900  1
  H  294  1  0.81462700  0.74476900  0.33138000  1
  H  295  1  0.83394300  0.77664700  0.30964200  1
  H  297  1  0.70602700  0.74441600  0.18870600  1
  H  298  1  0.68658200  0.77633300  0.21026700  1
  H  302  1  0.68108600  0.83982800  0.31657200  1
  H  303  1  0.81480000  0.67987600  0.17862300  1
  H  304  1  0.70644100  0.67914400  0.34102900  1
  H  306  1  0.83943900  0.83941400  0.20342800  1
  H  331  1  0.58297700  0.51373500  0.40189300  1
  H  332  1  0.54968700  0.46799000  0.41310900  1
  H  333  1  0.47096900  0.40771700  0.48070500  1
  H  334  1  0.43852000  0.40135500  0.52806100  1
  H  335  1  0.46623100  0.49486900  0.55955200  1
  H  336  1  0.55235700  0.55760500  0.48929000  1
  H  337  1  0.55244200  0.46348000  0.53137100  1
  H  338  1  0.58278700  0.50719200  0.61894100  1
  H  339  1  0.54948300  0.55293400  0.60773000  1
  H  340  1  0.46620600  0.52611600  0.46117800  1
  H  341  1  0.47074100  0.61318300  0.54013600  1
  H  342  1  0.43825900  0.61951800  0.49279700  1
  H  345  1  0.49380500  0.45406100  0.44111700  1
  H  346  1  0.52563400  0.43489300  0.46302500  1
  H  348  1  0.49366400  0.56683900  0.57965400  1
  H  349  1  0.52547100  0.58610400  0.55780000  1
  H  353  1  0.59109700  0.58651100  0.45249800  1
  H  354  1  0.42402000  0.46276000  0.58999600  1
  H  355  1  0.42403500  0.55816700  0.43070200  1
  H  357  1  0.59164200  0.43481700  0.56795900  1
  H  382  1  0.93760200  0.50685900  0.90192400  1
  H  383  1  0.97088400  0.55261000  0.91313800  1
  H  384  1  0.04957400  0.61290300  0.98073700  1
  H  385  1  0.08205100  0.61926000  0.02807000  1
  H  386  1  0.05435600  0.52574400  0.05957300  1
  H  387  1  0.96822600  0.46299800  0.98932400  1
  H  388  1  0.96810700  0.55711300  0.03134700  1
  H  389  1  0.93742400  0.51325500  0.11872300  1
  H  390  1  0.97085200  0.46758400  0.10761500  1
  H  391  1  0.05441900  0.49449900  0.96123600  1
  H  392  1  0.04975400  0.40739400  0.04013700  1
  H  393  1  0.08229000  0.40107000  0.99283900  1
  H  396  1  0.02675500  0.56656000  0.94114800  1
  H  397  1  0.99492200  0.58571000  0.96306600  1
  H  399  1  0.02681400  0.45373000  0.07967200  1
  H  400  1  0.99503200  0.43449100  0.05775800  1
  H  404  1  0.92948900  0.43409000  0.95253900  1
  H  405  1  0.09640100  0.55788200  0.09013300  1
  H  406  1  0.09638200  0.46240700  0.93061100  1
  H  408  1  0.92977900  0.58608500  0.06810100  1
  H  418  1  0.87641600  0.88635400  0.17447600  1
  H  419  1  0.91139500  0.91631600  0.13854700  1
  H  422  1  0.80222600  0.81978900  0.04840100  1
  H  423  1  0.80951500  0.82525100  0.10396400  1
  H  435  1  0.64407700  0.13421300  0.67446300  1
  H  436  1  0.60914000  0.10421200  0.63852300  1
  H  439  1  0.71835800  0.20071900  0.54840900  1
  H  440  1  0.71102600  0.19528400  0.60397000  1
  H  452  1  0.37360000  0.64683500  0.43711300  1
  H  453  1  0.34490600  0.67360400  0.39447200  1
  H  456  1  0.46388400  0.56920500  0.32910700  1
  H  457  1  0.45069900  0.58131900  0.38244500  1
  H  469  1  0.14700600  0.37377300  0.93711200  1
  H  470  1  0.17566800  0.34698500  0.89445400  1
  H  473  1  0.05660800  0.45132500  0.82915300  1
  H  474  1  0.06983600  0.43922800  0.88248900  1
  H  486  1  0.64368000  0.88608600  0.34583300  1
  H  487  1  0.60875800  0.91597100  0.38188500  1
  H  490  1  0.71875200  0.82002500  0.47165300  1
  H  491  1  0.71116500  0.82536600  0.41612000  1
  H  503  1  0.87682200  0.13439000  0.84586900  1
  H  504  1  0.91175000  0.10454100  0.88194600  1
  H  507  1  0.80184300  0.20065700  0.97163600  1
  H  508  1  0.80941600  0.19525600  0.91610500  1
  H  520  1  0.14654400  0.64674200  0.08380200  1
  H  521  1  0.17513800  0.67358400  0.12646500  1
  H  524  1  0.05663400  0.56858900  0.19173900  1
  H  525  1  0.06975600  0.58082000  0.13841000  1
  H  537  1  0.37403100  0.37385800  0.58375800  1
  H  538  1  0.34545100  0.34698500  0.62641400  1
  H  541  1  0.46383300  0.45207900  0.69174000  1
  H  542  1  0.45073100  0.43986300  0.63840600  1
  H  554  1  0.16134100  0.11641900  0.83456800  1
  H  555  1  0.12197200  0.08299800  0.86096300  1
  H  558  1  0.17825300  0.20439300  0.96785100  1
  H  559  1  0.19339400  0.19137700  0.91513800  1
  H  571  1  0.35904700  0.90429500  0.33459800  1
  H  572  1  0.39840300  0.93772100  0.36100200  1
  H  575  1  0.34262500  0.81588800  0.46765700  1
  H  576  1  0.32734200  0.82901900  0.41501200  1
  H  588  1  0.63823800  0.39930100  0.59601800  1
  H  589  1  0.66867700  0.36401500  0.63122100  1
  H  592  1  0.56900300  0.46851800  0.72351500  1
  H  593  1  0.57520300  0.46302700  0.66780900  1
  H  605  1  0.88224100  0.62107600  0.09595000  1
  H  606  1  0.85181300  0.65633500  0.13118200  1
  H  609  1  0.95190100  0.55212400  0.22335600  1
  H  610  1  0.94559500  0.55757100  0.16765700  1
  H  622  1  0.35978200  0.11612300  0.68681600  1
  H  623  1  0.39903100  0.08255200  0.66043100  1
  H  626  1  0.34296800  0.20392900  0.55340900  1
  H  627  1  0.32783400  0.19103100  0.60615600  1
  H  639  1  0.16041000  0.90440000  0.18682500  1
  H  640  1  0.12114100  0.93791300  0.16037300  1
  H  643  1  0.17797900  0.81694900  0.05328700  1
  H  644  1  0.19288700  0.82978600  0.10611000  1
  H  656  1  0.88248100  0.39882600  0.92455300  1
  H  657  1  0.85207600  0.36362800  0.88923100  1
  H  660  1  0.95156500  0.46861800  0.79728700  1
  H  661  1  0.94541000  0.46289600  0.85297400  1
  H  673  1  0.63810200  0.62179400  0.42451900  1
  H  674  1  0.66849000  0.65700700  0.38920200  1
  H  677  1  0.56911500  0.55193600  0.29723900  1
  H  678  1  0.57525400  0.55766300  0.35292800  1
  C  1  1  0.98902700  0.04024600  0.00827700  1
  C  2  1  0.98947200  0.06388400  0.03341500  1
  C  3  1  0.03099800  0.03116100  0.06557100  1
  C  4  1  0.03326100  0.00791200  0.04015400  1
  C  5  1  0.05537600  0.98134300  0.04447100  1
  C  6  1  0.07422800  0.97713900  0.07319100  1
  C  7  1  0.07109700  0.00077600  0.09789300  1
  C  8  1  0.04990300  0.02732200  0.09409100  1
  C  9  1  0.97099600  0.09268900  0.03010100  1
  C  10  1  0.95277000  0.09888900  0.00189100  1
  C  11  1  0.95097600  0.07602600  0.97622200  1
  C  12  1  0.96911400  0.04671300  0.98033500  1
  C  13  1  0.03340200  0.01315500  0.98086600  1
  C  14  1  0.03127300  0.98989800  0.95544300  1
  C  15  1  0.98966900  0.95711500  0.98742500  1
  C  16  1  0.98905100  0.98077100  0.01253900  1
  C  17  1  0.97125600  0.92826200  0.99067700  1
  C  18  1  0.95291900  0.92203900  0.01880400  1
  C  19  1  0.95092800  0.94492300  0.04444100  1
  C  20  1  0.96903400  0.97426700  0.04039800  1
  C  21  1  0.05551800  0.03973900  0.97664000  1
  C  22  1  0.07447200  0.04395500  0.94798700  1
  C  23  1  0.07142900  0.02033900  0.92325800  1
  C  24  1  0.05027400  0.99375900  0.92699200  1
  C  37  1  0.01115600  0.01052200  0.01045700  1
  C  38  1  0.00966500  0.96103100  0.95756800  1
  C  41  1  0.00934600  0.05999100  0.06336000  1
  C  44  1  0.93344900  0.93758700  0.07319400  1
  C  45  1  0.93358100  0.08330900  0.94741100  1
  C  46  1  0.09707400  0.06923000  0.94502000  1
  C  50  1  0.09691700  0.95192100  0.07609200  1
  C  52  1  0.53150300  0.98028400  0.50822700  1
  C  53  1  0.53109600  0.95664300  0.53336000  1
  C  54  1  0.48961400  0.98935800  0.56556600  1
  C  55  1  0.48726700  0.01258200  0.54013400  1
  C  56  1  0.46512100  0.03912300  0.54447100  1
  C  57  1  0.44634500  0.04332500  0.57324300  1
  C  58  1  0.44962300  0.01976300  0.59799200  1
  C  59  1  0.47079900  0.99321600  0.59414400  1
  C  60  1  0.54958000  0.92784600  0.53003300  1
  C  61  1  0.56777900  0.92165700  0.50180800  1
  C  62  1  0.56956800  0.94453400  0.47614900  1
  C  63  1  0.55140100  0.97382700  0.48027000  1
  C  64  1  0.48710700  0.00736900  0.48083700  1
  C  65  1  0.48923400  0.03062800  0.45541400  1
  C  66  1  0.53084800  0.06340500  0.48738700  1
  C  67  1  0.53145200  0.03975300  0.51250800  1
  C  68  1  0.54929000  0.09223900  0.49061900  1
  C  69  1  0.56766700  0.09844100  0.51872400  1
  C  70  1  0.56961900  0.07557100  0.54437600  1
  C  71  1  0.55149600  0.04623900  0.54035000  1
  C  72  1  0.46499200  0.98078500  0.47661600  1
  C  73  1  0.44602600  0.97657700  0.44797300  1
  C  74  1  0.44905600  0.00019900  0.42324600  1
  C  75  1  0.47022500  0.02677100  0.42696800  1
  C  88  1  0.50935800  0.00999600  0.51042400  1
  C  89  1  0.51085000  0.05948900  0.45753100  1
  C  92  1  0.51127900  0.96053900  0.56333900  1
  C  95  1  0.58719700  0.08287400  0.57306600  1
  C  96  1  0.58692700  0.93723400  0.44731400  1
  C  97  1  0.42339700  0.95133400  0.44504800  1
  C  101  1  0.42372600  0.06855500  0.57634400  1
  C  103  1  0.23035500  0.74186000  0.25699300  1
  C  104  1  0.20544700  0.74237400  0.28086500  1
  C  105  1  0.23630200  0.78446000  0.31414000  1
  C  106  1  0.26112800  0.78618800  0.29024300  1
  C  107  1  0.28794300  0.80763400  0.29621600  1
  C  108  1  0.29093200  0.82663600  0.32506200  1
  C  109  1  0.26523900  0.82442800  0.34784100  1
  C  110  1  0.23854500  0.80377100  0.34252100  1
  C  111  1  0.17702200  0.72355200  0.27630200  1
  C  112  1  0.17233300  0.70511400  0.24792100  1
  C  113  1  0.19622600  0.70389500  0.22319100  1
  C  114  1  0.22528200  0.72202800  0.22874400  1
  C  115  1  0.25868200  0.78627100  0.23090300  1
  C  116  1  0.28352100  0.78465000  0.20701000  1
  C  117  1  0.31444700  0.74253400  0.24018300  1
  C  118  1  0.28952800  0.74190200  0.26404200  1
  C  119  1  0.34292200  0.72377800  0.24471300  1
  C  120  1  0.34765600  0.70530900  0.27306400  1
  C  121  1  0.32375900  0.70397500  0.29778100  1
  C  122  1  0.29465600  0.72203500  0.29225400  1
  C  123  1  0.23184000  0.80770000  0.22497900  1
  C  124  1  0.22883700  0.82677000  0.19617900  1
  C  125  1  0.25452500  0.82463500  0.17338900  1
  C  126  1  0.28125700  0.80402400  0.17867800  1
  C  139  1  0.25992300  0.76400500  0.26054100  1
  C  140  1  0.31225600  0.76300900  0.21047600  1
  C  143  1  0.20760500  0.76277800  0.31062600  1
  C  146  1  0.32949900  0.68685500  0.32703300  1
  C  147  1  0.19053000  0.68680300  0.19391400  1
  C  148  1  0.20227000  0.84772900  0.19058500  1
  C  152  1  0.31742400  0.84771900  0.33061800  1
  C  154  1  0.29019000  0.27877200  0.75695300  1
  C  155  1  0.31510700  0.27825100  0.78081600  1
  C  156  1  0.28425100  0.23617400  0.81410100  1
  C  157  1  0.25942200  0.23444600  0.79020900  1
  C  158  1  0.23260600  0.21300200  0.79619400  1
  C  159  1  0.22961500  0.19401900  0.82505400  1
  C  160  1  0.25529900  0.19625200  0.84783900  1
  C  161  1  0.28200900  0.21688100  0.84249100  1
  C  162  1  0.34354800  0.29704200  0.77623500  1
  C  163  1  0.34826700  0.31541800  0.74782100  1
  C  164  1  0.32435300  0.31667900  0.72311100  1
  C  165  1  0.29527700  0.29858000  0.72869000  1
  C  166  1  0.26184800  0.23436700  0.73087100  1
  C  167  1  0.23701900  0.23600400  0.70696900  1
  C  168  1  0.20610100  0.27812200  0.74014700  1
  C  169  1  0.23100900  0.27873500  0.76401400  1
  C  170  1  0.17760700  0.29684000  0.74470100  1
  C  171  1  0.17283800  0.31524500  0.77308800  1
  C  172  1  0.19674500  0.31660600  0.79779800  1
  C  173  1  0.22586500  0.29857000  0.79224900  1
  C  174  1  0.28867300  0.21291600  0.72495400  1
  C  175  1  0.29166000  0.19380800  0.69617200  1
  C  176  1  0.26596200  0.19594100  0.67339200  1
  C  177  1  0.23926300  0.21660700  0.67865200  1
  C  190  1  0.26061700  0.25663700  0.76050900  1
  C  191  1  0.20829900  0.25766400  0.71042500  1
  C  194  1  0.31295000  0.25785200  0.81057900  1
  C  197  1  0.19091800  0.33356100  0.82713500  1
  C  198  1  0.33011000  0.33367100  0.69378200  1
  C  199  1  0.31815900  0.17270600  0.69064900  1
  C  203  1  0.20306800  0.17302700  0.83072300  1
  C  205  1  0.79008200  0.28355700  0.76295300  1
  C  206  1  0.81515200  0.28169000  0.73930000  1
  C  207  1  0.78350600  0.23983700  0.70673500  1
  C  208  1  0.75834600  0.23922900  0.73035000  1
  C  209  1  0.73057400  0.21910900  0.72370500  1
  C  210  1  0.72700800  0.20061500  0.69452600  1
  C  211  1  0.75350400  0.20123500  0.67256500  1
  C  212  1  0.78108400  0.22041800  0.67848400  1
  C  213  1  0.84414900  0.29963400  0.74351300  1
  C  214  1  0.84915000  0.31876500  0.77129700  1
  C  215  1  0.82496100  0.32190000  0.79558300  1
  C  216  1  0.79551800  0.30417800  0.79059100  1
  C  217  1  0.76239100  0.23917500  0.78983400  1
  C  218  1  0.73717000  0.23964200  0.81338500  1
  C  219  1  0.70551300  0.28154900  0.78089900  1
  C  220  1  0.73062500  0.28353800  0.75729900  1
  C  221  1  0.67649800  0.29946100  0.77669500  1
  C  222  1  0.67151600  0.31868200  0.74896700  1
  C  223  1  0.69574600  0.32194400  0.72473700  1
  C  224  1  0.72520700  0.30424600  0.72972400  1
  C  225  1  0.79019400  0.21909900  0.79647900  1
  C  226  1  0.79373600  0.20051400  0.82560600  1
  C  227  1  0.76715900  0.20096200  0.84747800  1
  C  228  1  0.73955800  0.22011300  0.84156400  1
  C  241  1  0.76036300  0.26143700  0.76011300  1
  C  242  1  0.70772100  0.26017600  0.80988000  1
  C  245  1  0.81291600  0.26042500  0.71024000  1
  C  248  1  0.68940800  0.34030600  0.69635200  1
  C  249  1  0.83131900  0.34016700  0.82402700  1
  C  250  1  0.82171200  0.18185200  0.83288400  1
  C  254  1  0.69903400  0.18196900  0.68720000  1
  C  256  1  0.73051300  0.73697500  0.26291200  1
  C  257  1  0.70545000  0.73882500  0.23925300  1
  C  258  1  0.73709000  0.78069000  0.20668900  1
  C  259  1  0.76225700  0.78128800  0.23029500  1
  C  260  1  0.79001700  0.80143000  0.22365700  1
  C  261  1  0.79356800  0.81996900  0.19450100  1
  C  262  1  0.76704200  0.81938300  0.17257100  1
  C  263  1  0.73948200  0.80015900  0.17846800  1
  C  264  1  0.67644700  0.72089900  0.24348400  1
  C  265  1  0.67140800  0.70185300  0.27132200  1
  C  266  1  0.69560700  0.69869300  0.29560100  1
  C  267  1  0.72507500  0.71637200  0.29056500  1
  C  268  1  0.75821900  0.78136100  0.28977400  1
  C  269  1  0.78343000  0.78088900  0.31333700  1
  C  270  1  0.81508700  0.73897600  0.28086000  1
  C  271  1  0.78998000  0.73698700  0.25725600  1
  C  272  1  0.84407800  0.72101100  0.27669800  1
  C  273  1  0.84904800  0.70175100  0.24899700  1
  C  274  1  0.82483200  0.69852500  0.22475200  1
  C  275  1  0.79538900  0.71625700  0.22969600  1
  C  276  1  0.73040600  0.80142500  0.29642800  1
  C  277  1  0.72685000  0.81997700  0.32557300  1
  C  278  1  0.75340500  0.81950700  0.34746600  1
  C  279  1  0.78103000  0.80039800  0.34152800  1
  C  292  1  0.76024200  0.75908800  0.26006200  1
  C  293  1  0.81287700  0.76035100  0.30983900  1
  C  296  1  0.70768700  0.76008800  0.21019000  1
  C  299  1  0.83108500  0.67998100  0.19648500  1
  C  300  1  0.68923300  0.68053100  0.32412200  1
  C  301  1  0.69882700  0.83853800  0.33294000  1
  C  305  1  0.82149300  0.83875700  0.18725400  1
  C  307  1  0.48712600  0.54006600  0.50623600  1
  C  308  1  0.48846000  0.56594600  0.52902500  1
  C  309  1  0.53051500  0.53573300  0.56287400  1
  C  310  1  0.53146900  0.50986200  0.54006100  1
  C  311  1  0.55198000  0.48258700  0.54734300  1
  C  312  1  0.57055900  0.48009700  0.57652200  1
  C  313  1  0.56944400  0.50705300  0.59790000  1
  C  314  1  0.54989200  0.53424600  0.59123800  1
  C  315  1  0.46983300  0.59439200  0.52378000  1
  C  316  1  0.45074100  0.59815000  0.49570100  1
  C  317  1  0.44895900  0.57337200  0.47191900  1
  C  318  1  0.46680700  0.54429100  0.47820800  1
  C  319  1  0.53145700  0.51118400  0.48064200  1
  C  320  1  0.53058000  0.48526700  0.45787700  1
  C  321  1  0.48856200  0.45501700  0.49174100  1
  C  322  1  0.48717300  0.48092400  0.51450100  1
  C  323  1  0.47000800  0.42653200  0.49703000  1
  C  324  1  0.45093500  0.42275500  0.52512100  1
  C  325  1  0.44909500  0.44755900  0.54887200  1
  C  326  1  0.46687800  0.47667500  0.54254300  1
  C  327  1  0.55193100  0.53848100  0.47333500  1
  C  328  1  0.57056800  0.54094700  0.44418800  1
  C  329  1  0.56955800  0.51392200  0.42288600  1
  C  330  1  0.55001100  0.48672700  0.42955000  1
  C  343  1  0.50922900  0.51051200  0.51035600  1
  C  344  1  0.50963800  0.45618100  0.46242600  1
  C  347  1  0.50951900  0.56478300  0.55835500  1
  C  350  1  0.43092300  0.44314200  0.57763900  1
  C  351  1  0.43073800  0.57777800  0.44318100  1
  C  352  1  0.58980200  0.56838300  0.43656300  1
  C  356  1  0.58972400  0.45263700  0.58418900  1
  C  358  1  0.03345400  0.48054700  0.00626700  1
  C  359  1  0.03208600  0.45465400  0.02904500  1
  C  360  1  0.98999800  0.48486300  0.06286500  1
  C  361  1  0.98910200  0.51075800  0.04008100  1
  C  362  1  0.96857400  0.53802600  0.04734200  1
  C  363  1  0.94987900  0.54048900  0.07645500  1
  C  364  1  0.95089800  0.51346700  0.09776700  1
  C  365  1  0.97052600  0.48631100  0.09116400  1
  C  366  1  0.05071500  0.42620600  0.02380900  1
  C  367  1  0.06982000  0.42244300  0.99573700  1
  C  368  1  0.07163100  0.44722300  0.97196200  1
  C  369  1  0.05378000  0.47630700  0.97824700  1
  C  370  1  0.98912700  0.50941700  0.98066900  1
  C  371  1  0.98999600  0.53533600  0.95790600  1
  C  372  1  0.03200600  0.56559300  0.99177200  1
  C  373  1  0.03341000  0.53968300  0.01452700  1
  C  374  1  0.05057100  0.59407300  0.99704200  1
  C  375  1  0.06964100  0.59785800  0.02513400  1
  C  376  1  0.07148900  0.57305600  0.04888600  1
  C  377  1  0.05371500  0.54393600  0.04256100  1
  C  378  1  0.96866200  0.48211500  0.97336200  1
  C  379  1  0.95002000  0.47965200  0.94422000  1
  C  380  1  0.95102300  0.50667400  0.92291700  1
  C  381  1  0.97056800  0.53387100  0.92957900  1
  C  394  1  0.01135100  0.51010100  0.01038400  1
  C  395  1  0.01092500  0.56443000  0.96246000  1
  C  398  1  0.01099000  0.45580600  0.05835000  1
  C  401  1  0.08971400  0.57747600  0.07762000  1
  C  402  1  0.08992600  0.44282500  0.94326500  1
  C  403  1  0.93078600  0.45221600  0.93660100  1
  C  407  1  0.93046500  0.56786400  0.08395700  1
  C  409  1  0.84963200  0.86218400  0.13773700  1
  C  410  1  0.84629500  0.85915700  0.10333500  1
  C  411  1  0.86670000  0.87768400  0.08181400  1
  C  412  1  0.89098100  0.89905200  0.09448100  1
  C  413  1  0.89402600  0.90144700  0.12870100  1
  C  414  1  0.87363600  0.88359100  0.14989200  1
  C  415  1  0.86100600  0.87357600  0.04791500  1
  C  417  1  0.81939700  0.83526000  0.05763900  1
  C  426  1  0.67089000  0.15835400  0.63772900  1
  C  427  1  0.67425900  0.16136600  0.60333000  1
  C  428  1  0.65387400  0.14282400  0.58180400  1
  C  429  1  0.62958800  0.12146100  0.59446500  1
  C  430  1  0.62651400  0.11907900  0.62868200  1
  C  431  1  0.64687900  0.13695400  0.64988000  1
  C  432  1  0.65959100  0.14691700  0.54790500  1
  C  434  1  0.70118300  0.18524700  0.55764100  1
  C  443  1  0.40394700  0.61792900  0.40712400  1
  C  444  1  0.41190900  0.61155200  0.37391400  1
  C  445  1  0.39401900  0.62723900  0.34817200  1
  C  446  1  0.36890700  0.65021800  0.35528000  1
  C  447  1  0.36212400  0.65670500  0.38835000  1
  C  448  1  0.37924200  0.64095400  0.41354700  1
  C  449  1  0.40310700  0.61898800  0.31582700  1
  C  451  1  0.44502800  0.58452700  0.33453000  1
  C  460  1  0.11662900  0.40266400  0.90714000  1
  C  461  1  0.10864500  0.40902900  0.87393300  1
  C  462  1  0.12652300  0.39334000  0.84818200  1
  C  463  1  0.15163900  0.37036300  0.85527700  1
  C  464  1  0.15844900  0.36389100  0.88834500  1
  C  465  1  0.14134600  0.37964400  0.91354900  1
  C  466  1  0.11741000  0.40158100  0.81584100  1
  C  468  1  0.07547700  0.43601500  0.83456800  1
  C  477  1  0.67074200  0.86209700  0.38248400  1
  C  478  1  0.67426400  0.85913700  0.41687400  1
  C  479  1  0.65389100  0.87761600  0.43846400  1
  C  480  1  0.62946100  0.89886200  0.42587700  1
  C  481  1  0.62623600  0.90118900  0.39167000  1
  C  482  1  0.64659400  0.88338400  0.37040900  1
  C  483  1  0.65976700  0.87358800  0.47234200  1
  C  485  1  0.70147100  0.83541100  0.46247500  1
  C  494  1  0.84981000  0.15847200  0.88249900  1
  C  495  1  0.84631200  0.16148000  0.91688600  1
  C  496  1  0.86668700  0.14302000  0.93849200  1
  C  497  1  0.89110500  0.12174700  0.92592600  1
  C  498  1  0.89429100  0.11935300  0.89171800  1
  C  499  1  0.87393300  0.13714200  0.87044300  1
  C  500  1  0.86083100  0.14709700  0.97236600  1
  C  502  1  0.81912200  0.18526100  0.96247000  1
  C  511  1  0.11635300  0.61764600  0.11376700  1
  C  512  1  0.10841300  0.61121600  0.14697100  1
  C  513  1  0.12624200  0.62694900  0.17272600  1
  C  514  1  0.15124300  0.65005500  0.16563700  1
  C  515  1  0.15800800  0.65659000  0.13257300  1
  C  516  1  0.14094200  0.64080300  0.10736300  1
  C  517  1  0.11719500  0.61862300  0.20506400  1
  C  519  1  0.07541800  0.58400400  0.18632800  1
  C  528  1  0.40418100  0.40298800  0.61373300  1
  C  529  1  0.41209900  0.40942900  0.64694000  1
  C  530  1  0.39427200  0.39367800  0.67268900  1
  C  531  1  0.36928200  0.37056500  0.66559100  1
  C  532  1  0.36255200  0.36400800  0.63252500  1
  C  533  1  0.37961500  0.37980900  0.60732200  1
  C  534  1  0.40330500  0.40199800  0.70503200  1
  C  536  1  0.44506200  0.43665000  0.68631900  1
  C  545  1  0.17072700  0.14737200  0.87468100  1
  C  546  1  0.16193500  0.15319800  0.90775100  1
  C  547  1  0.13727800  0.13382400  0.92340400  1
  C  548  1  0.12292400  0.10691100  0.90665600  1
  C  549  1  0.13211700  0.10174800  0.87390200  1
  C  550  1  0.15532100  0.12149200  0.85819000  1
  C  551  1  0.12802500  0.14378600  0.95520200  1
  C  553  1  0.16750300  0.18552100  0.95569100  1
  C  562  1  0.34981800  0.87319300  0.37463500  1
  C  563  1  0.35869700  0.86728900  0.40766900  1
  C  564  1  0.38334600  0.88667300  0.42332400  1
  C  565  1  0.39760400  0.91366300  0.40662000  1
  C  566  1  0.38832800  0.91890900  0.37390700  1
  C  567  1  0.36513000  0.89916200  0.35818800  1
  C  568  1  0.39269500  0.87664000  0.45506800  1
  C  570  1  0.35330800  0.83481900  0.45552800  1
  C  579  1  0.61323600  0.42456800  0.63329900  1
  C  580  1  0.60984300  0.42692400  0.66773800  1
  C  581  1  0.62861900  0.40632500  0.68883300  1
  C  582  1  0.65061200  0.38290300  0.67564100  1
  C  583  1  0.65336000  0.38079800  0.64139500  1
  C  584  1  0.63523200  0.40136200  0.62064300  1
  C  585  1  0.62406000  0.41092100  0.72284300  1
  C  587  1  0.58492200  0.45195000  0.71394000  1
  C  596  1  0.90741500  0.59592100  0.13319300  1
  C  597  1  0.91089100  0.59361300  0.16762900  1
  C  598  1  0.89211500  0.61419000  0.18874600  1
  C  599  1  0.87004100  0.63755400  0.17557900  1
  C  600  1  0.86720600  0.63961100  0.14134000  1
  C  601  1  0.88532700  0.61905800  0.12056900  1
  C  602  1  0.89674000  0.60961900  0.22274900  1
  C  604  1  0.93593400  0.56865500  0.21379900  1
  C  613  1  0.35043800  0.14704200  0.64666700  1
  C  614  1  0.35920800  0.15279100  0.61357400  1
  C  615  1  0.38380100  0.13333100  0.59792900  1
  C  616  1  0.39811800  0.10642300  0.61471400  1
  C  617  1  0.38892200  0.10131100  0.64747300  1
  C  618  1  0.36578700  0.12113900  0.66317900  1
  C  619  1  0.39307700  0.14323600  0.56612100  1
  C  621  1  0.35365600  0.18502900  0.56557900  1
  C  630  1  0.17001400  0.87362700  0.14662900  1
  C  631  1  0.16138700  0.86793400  0.11349200  1
  C  632  1  0.13679900  0.88735900  0.09779800  1
  C  633  1  0.12232700  0.91417900  0.11459500  1
  C  634  1  0.13136100  0.91922000  0.14741100  1
  C  635  1  0.15451200  0.89943200  0.16315300  1
  C  636  1  0.12771100  0.87752600  0.06591300  1
  C  638  1  0.16720600  0.83580500  0.06545000  1
  C  647  1  0.90744000  0.42426400  0.88735400  1
  C  648  1  0.91082500  0.42673900  0.85292300  1
  C  649  1  0.89206900  0.40619400  0.83176000  1
  C  650  1  0.87011700  0.38269100  0.84487400  1
  C  651  1  0.86737100  0.38046600  0.87911300  1
  C  652  1  0.88548300  0.40097800  0.89993300  1
  C  653  1  0.89660600  0.41092300  0.79776700  1
  C  655  1  0.93567900  0.45198700  0.80680600  1
  C  664  1  0.61318700  0.59632000  0.38731800  1
  C  665  1  0.60982100  0.59383500  0.35288500  1
  C  666  1  0.62857500  0.61439000  0.33172300  1
  C  667  1  0.65051500  0.63790500  0.34483800  1
  C  668  1  0.65322400  0.64014600  0.37907900  1
  C  669  1  0.63512000  0.61962800  0.39989900  1
  C  670  1  0.62404800  0.60965600  0.29773000  1
  C  672  1  0.58499200  0.56857500  0.30676300  1
  N  416  1  0.83790100  0.85284800  0.03703600  1
  N  421  1  0.82351300  0.83849700  0.09019400  1
  N  424  1  0.82883600  0.84581600  0.15705600  1
  N  425  1  0.91118600  0.91474900  0.07393100  1
  N  433  1  0.68270200  0.16764600  0.53703300  1
  N  438  1  0.69704600  0.18202300  0.59019600  1
  N  441  1  0.69164500  0.17475900  0.65705000  1
  N  442  1  0.60942200  0.10573300  0.57390500  1
  N  450  1  0.42791700  0.59817200  0.31007800  1
  N  455  1  0.43716600  0.59126400  0.36585000  1
  N  458  1  0.41967600  0.60614300  0.43344500  1
  N  459  1  0.35406500  0.66685000  0.33113400  1
  N  467  1  0.09258200  0.42238000  0.81010400  1
  N  472  1  0.08336700  0.42929200  0.86588400  1
  N  475  1  0.10090400  0.41444500  0.93346600  1
  N  476  1  0.16641700  0.35367100  0.83113200  1
  N  484  1  0.68300400  0.85296500  0.48313900  1
  N  489  1  0.69718900  0.83858700  0.42993700  1
  N  492  1  0.69149100  0.84576200  0.36310000  1
  N  493  1  0.60929100  0.91450300  0.44650500  1
  N  501  1  0.83759100  0.16772900  0.98314900  1
  N  506  1  0.82339600  0.18205100  0.92993200  1
  N  509  1  0.82903600  0.17476700  0.86309700  1
  N  510  1  0.91125900  0.10609200  0.94656400  1
  N  518  1  0.09247600  0.59769300  0.21079300  1
  N  523  1  0.08324500  0.59081200  0.15501300  1
  N  526  1  0.10063200  0.60587100  0.08743500  1
  N  527  1  0.16604500  0.66666667  0.18980000  1
  N  535  1  0.42800700  0.42294400  0.71077600  1
  N  540  1  0.43725600  0.42984000  0.65499800  1
  N  543  1  0.41990400  0.41476600  0.58740200  1
  N  544  1  0.35454700  0.35384100  0.68974100  1
  N  552  1  0.14317400  0.16889800  0.97012000  1
  N  557  1  0.17637700  0.17802600  0.92484000  1
  N  560  1  0.19361800  0.16599100  0.86033900  1
  N  561  1  0.10025300  0.08608100  0.91814400  1
  N  569  1  0.37763300  0.85145300  0.46995000  1
  N  574  1  0.34434400  0.84238600  0.42471900  1
  N  577  1  0.32693800  0.85456900  0.36027900  1
  N  578  1  0.42025000  0.93450800  0.41813200  1
  N  586  1  0.60271400  0.43323300  0.73417600  1
  N  591  1  0.58858500  0.44888600  0.68131200  1
  N  594  1  0.59653200  0.44546600  0.61443800  1
  N  595  1  0.66651400  0.36247000  0.69570000  1
  N  603  1  0.91814400  0.58734800  0.23405600  1
  N  608  1  0.93221500  0.57169800  0.18117700  1
  N  611  1  0.92406900  0.57498800  0.11431200  1
  N  612  1  0.85408900  0.65792700  0.19566100  1
  N  620  1  0.37796400  0.16835400  0.55117400  1
  N  625  1  0.34480100  0.17761400  0.59645400  1
  N  628  1  0.32760500  0.16573900  0.66100600  1
  N  629  1  0.42066400  0.08546900  0.60320600  1
  N  637  1  0.14292200  0.85245800  0.05098300  1
  N  642  1  0.17592800  0.84318500  0.09637300  1
  N  645  1  0.19285600  0.85496300  0.16098700  1
  N  646  1  0.09974100  0.93506300  0.10301600  1
  N  654  1  0.91790600  0.43332100  0.78650700  1
  N  659  1  0.93204500  0.44878600  0.83942400  1
  N  662  1  0.92411500  0.44512100  0.90629100  1
  N  663  1  0.85420800  0.36233600  0.82474500  1
  N  671  1  0.60276300  0.58724800  0.28646800  1
  N  676  1  0.58861400  0.57178000  0.33938100  1
  N  679  1  0.59650700  0.57546300  0.40625500  1
  N  680  1  0.66637700  0.65831400  0.32471600  1
  O  420  1  0.87699300  0.89005600  0.02435500  1
  O  437  1  0.64362700  0.13042500  0.52434000  1
  O  454  1  0.38806800  0.63056100  0.28894100  1
  O  471  1  0.13244400  0.39001300  0.78894800  1
  O  488  1  0.64382900  0.89004100  0.49595400  1
  O  505  1  0.87675200  0.13064600  0.99599100  1
  O  522  1  0.13219200  0.63023000  0.23195900  1
  O  539  1  0.38830100  0.39038000  0.73191700  1
  O  556  1  0.10259200  0.13138000  0.97191400  1
  O  573  1  0.41813700  0.88906100  0.47175600  1
  O  590  1  0.64066700  0.39460600  0.74608800  1
  O  607  1  0.88013500  0.62590500  0.24601500  1
  O  624  1  0.41850700  0.13078100  0.54944400  1
  O  641  1  0.10229200  0.88990500  0.04916100  1
  O  658  1  0.87999400  0.39469100  0.77446600  1
  O  675  1  0.64066000  0.62589500  0.27443500  1
