# generated using pymatgen
data_H11C15N2O
_symmetry_space_group_name_H-M   'P 1'
_cell_length_a   9.86593333
_cell_length_b   33.34120000
_cell_length_c   41.79670000
_cell_angle_alpha   90.30020000
_cell_angle_beta   90.89410000
_cell_angle_gamma   90.70110000
_symmetry_Int_Tables_number   1
_chemical_formula_structural   H11C15N2O
_chemical_formula_sum   'H110 C150 N20 O10'
_cell_volume   13745.78654224
_cell_formula_units_Z   10
loop_
 _symmetry_equiv_pos_site_id
 _symmetry_equiv_pos_as_xyz
  1  'x, y, z'
loop_
 _atom_site_type_symbol
 _atom_site_label
 _atom_site_symmetry_multiplicity
 _atom_site_fract_x
 _atom_site_fract_y
 _atom_site_fract_z
 _atom_site_occupancy
  C  1  1  0.86736500  0.01155367  0.02265200  1
  C  2  1  0.88478300  0.98330300  0.99731600  1
  C  3  1  0.91931000  0.94265100  0.00237900  1
  C  4  1  0.93231800  0.92874433  0.03429133  1
  C  5  1  0.89941600  0.95417000  0.06027633  1
  C  6  1  0.86530900  0.99444967  0.05361100  1
  C  9  1  0.86724500  0.05445567  0.01815633  1
  C  10  1  0.86548000  0.07152767  0.98717733  1
  C  11  1  0.89956300  0.11205433  0.98077500  1
  C  12  1  0.93209400  0.13772767  0.00701800  1
  C  13  1  0.91859200  0.12374833  0.03882900  1
  C  14  1  0.88388000  0.08285167  0.04363733  1
  C  21  1  0.90217000  0.94262100  0.09277000  1
  C  22  1  0.95295700  0.91832067  0.97590600  1
  C  23  1  0.90247300  0.12362567  0.94830433  1
  C  24  1  0.95164000  0.14837467  0.06556200  1
  C  25  1  0.94140100  0.79411033  0.33757133  1
  C  26  1  0.94939000  0.79253367  0.30366933  1
  C  27  1  0.95050500  0.82659067  0.28370500  1
  C  28  1  0.94751900  0.86508267  0.29845933  1
  C  29  1  0.94242500  0.86963433  0.33231133  1
  C  30  1  0.93947500  0.83380933  0.35083100  1
  C  33  1  0.94426800  0.75746167  0.35596400  1
  C  34  1  0.91756800  0.71862633  0.34221967  1
  C  35  1  0.94505100  0.68187767  0.35792400  1
  C  36  1  0.97558400  0.75719533  0.38931033  1
  C  40  1  0.94315500  0.90815767  0.34753733  1
  C  41  1  0.95659700  0.82029667  0.25016700  1
  C  42  1  0.91580500  0.64434333  0.34277067  1
  C  46  1  0.94143200  0.27243267  0.70380567  1
  C  47  1  0.94950500  0.27406533  0.73776400  1
  C  48  1  0.95059300  0.24002167  0.75773967  1
  C  49  1  0.94758400  0.20150567  0.74296467  1
  C  50  1  0.94247500  0.19691467  0.70907633  1
  C  51  1  0.93953600  0.23271767  0.69053200  1
  C  54  1  0.94425600  0.30909933  0.68543100  1
  C  55  1  0.91761800  0.34773967  0.69898367  1
  C  56  1  0.94515700  0.38468500  0.68348433  1
  C  57  1  0.97556000  0.30959200  0.65231633  1
  C  61  1  0.94317200  0.15839433  0.69385833  1
  C  62  1  0.95663600  0.24636667  0.79132267  1
  C  63  1  0.91623000  0.42201267  0.69844667  1
  C  67  1  0.94650100  0.25905467  0.32533767  1
  C  68  1  0.92112500  0.25886800  0.29171867  1
  C  69  1  0.93730800  0.22474267  0.27196567  1
  C  70  1  0.97327300  0.18806433  0.28667667  1
  C  71  1  0.97648900  0.18418767  0.32057567  1
  C  72  1  0.96818600  0.22028167  0.33892900  1
  C  74  1  0.93883600  0.29605067  0.34340200  1
  C  75  1  0.95700300  0.33456767  0.32895333  1
  C  76  1  0.93117100  0.37163067  0.34454833  1
  C  77  1  0.88899300  0.36995333  0.37678800  1
  C  78  1  0.89016600  0.33309167  0.39388933  1
  C  79  1  0.91523500  0.29706433  0.37692333  1
  C  83  1  0.90273600  0.22666667  0.23900533  1
  C  84  1  0.96330100  0.40899833  0.32994833  1
  C  85  1  0.87553600  0.33413333  0.42753000  1
  C  88  1  0.94648900  0.80754300  0.71609067  1
  C  89  1  0.92111700  0.80754733  0.74952167  1
  C  90  1  0.93734700  0.84178833  0.76939100  1
  C  91  1  0.97340700  0.87872700  0.75495600  1
  C  92  1  0.97661200  0.88262633  0.72107767  1
  C  93  1  0.96820700  0.84647400  0.70265967  1
  C  95  1  0.93885600  0.77049633  0.69796467  1
  C  96  1  0.95706300  0.73211500  0.71254700  1
  C  97  1  0.93125200  0.69486667  0.69676033  1
  C  98  1  0.88898900  0.69623767  0.66421667  1
  C  99  1  0.89008400  0.73310800  0.64711800  1
  C  100  1  0.91534700  0.76931467  0.66426467  1
  C  104  1  0.90305900  0.83959967  0.80211267  1
  C  105  1  0.96331800  0.65772100  0.71158600  1
  C  106  1  0.87530400  0.73196167  0.61336933  1
  C  109  1  0.94760500  0.86045667  0.19783767  1
  C  110  1  0.92689100  0.90166300  0.19275767  1
  C  111  1  0.92083000  0.91739200  0.16180667  1
  C  115  1  0.94767700  0.20614500  0.84358433  1
  C  116  1  0.92710400  0.16478167  0.84850900  1
  C  117  1  0.92105900  0.14900667  0.87941367  1
  C  121  1  0.90127700  0.16290100  0.12219000  1
  C  122  1  0.78946400  0.16685667  0.14253867  1
  C  123  1  0.80273700  0.18417733  0.17355933  1
  C  124  1  0.93524900  0.19349967  0.18578533  1
  C  126  1  0.68008800  0.18741733  0.19360467  1
  C  132  1  0.90191500  0.90332733  0.91895267  1
  C  133  1  0.78994100  0.89845433  0.89783800  1
  C  134  1  0.80313200  0.88128700  0.86689433  1
  C  135  1  0.93559300  0.87300833  0.85558400  1
  C  137  1  0.68037200  0.87711333  0.84598067  1
  C  143  1  0.92627400  0.75959267  0.56020467  1
  C  144  1  0.92223900  0.72259833  0.54333300  1
  C  145  1  0.94646800  0.72037000  0.51048900  1
  C  149  1  0.92640200  0.30686167  0.48107633  1
  C  150  1  0.92249900  0.34382567  0.49791967  1
  C  151  1  0.94672200  0.34622367  0.53094300  1
  C  155  1  0.94674500  0.98401233  0.33114633  1
  C  156  1  0.93673200  0.00241333  0.30092600  1
  C  157  1  0.94315600  0.04461067  0.29714100  1
  C  158  1  0.96171600  0.06987967  0.32450033  1
  C  160  1  0.93069500  0.06143233  0.26433267  1
  C  165  1  0.94671200  0.08256700  0.71027967  1
  C  166  1  0.93670600  0.06409500  0.74042733  1
  C  167  1  0.94318600  0.02194367  0.74426200  1
  C  168  1  0.96180900  0.99681233  0.71704367  1
  C  170  1  0.93073600  0.00503167  0.77697833  1
  C  175  1  0.96644800  0.57054267  0.34240133  1
  C  176  1  0.93402200  0.48479100  0.33656933  1
  C  177  1  0.82125300  0.51064533  0.33681933  1
  C  178  1  0.83706200  0.55280100  0.33766867  1
  C  182  1  0.96657700  0.49621333  0.69914100  1
  C  183  1  0.93410200  0.58172033  0.70472933  1
  C  184  1  0.82136000  0.55503133  0.70367200  1
  C  185  1  0.83719700  0.51299000  0.70299067  1
  C  192  1  0.98230600  0.14603000  0.33595300  1
  C  194  1  0.98260300  0.92082400  0.70573767  1
  C  195  1  0.93684800  0.89240200  0.13473833  1
  C  196  1  0.96058100  0.85125600  0.13985900  1
  C  197  1  0.96537700  0.83461500  0.17105367  1
  C  201  1  0.93696900  0.17411567  0.90660167  1
  C  202  1  0.96054000  0.21544300  0.90165900  1
  C  203  1  0.96532400  0.23212067  0.87050067  1
  C  207  1  0.97349600  0.75514333  0.49241800  1
  C  208  1  0.97481300  0.79231600  0.50882400  1
  C  209  1  0.95480300  0.79496800  0.54242767  1
  C  210  1  0.96315500  0.83466800  0.55874900  1
  C  212  1  0.97366200  0.31163833  0.54920967  1
  C  213  1  0.97490700  0.27447567  0.53281167  1
  C  214  1  0.95488000  0.27168633  0.49905967  1
  C  215  1  0.96314300  0.23204767  0.48279633  1
  C  217  1  0.97038600  0.05146267  0.35494700  1
  C  218  1  0.96271000  0.00918467  0.35826267  1
  C  220  1  0.97051600  0.01529067  0.68665900  1
  C  221  1  0.96278300  0.05751267  0.68328500  1
  C  227  1  0.98977800  0.68407033  0.39028833  1
  C  228  1  0.99506000  0.72146933  0.40692133  1
  C  232  1  0.00885300  0.72191200  0.44068700  1
  C  234  1  0.98999300  0.38281500  0.65146500  1
  C  235  1  0.99525800  0.34546067  0.63485833  1
  C  239  1  0.00915200  0.34512100  0.60119700  1
  C  259  1  0.98941100  0.79105067  0.17488867  1
  C  268  1  0.98918600  0.27586700  0.86684567  1
  C  273  1  0.04787700  0.18686167  0.16605733  1
  C  274  1  0.03068500  0.17447667  0.13399400  1
  C  277  1  0.04832400  0.88051767  0.87610300  1
  C  278  1  0.03130400  0.89276633  0.90804733  1
  C  309  1  0.07901700  0.54475833  0.34357533  1
  C  310  1  0.06613000  0.50252033  0.33898800  1
  C  312  1  0.18984800  0.47759233  0.34079133  1
  C  317  1  0.07911600  0.52282633  0.69875667  1
  C  318  1  0.06622500  0.56496733  0.70324400  1
  C  320  1  0.18988800  0.59081900  0.70234367  1
  H  7  1  0.88974900  0.99292900  0.97431200  1
  H  16  1  0.88886800  0.07325933  0.06667500  1
  H  17  1  0.88739500  0.87360200  0.03806267  1
  H  18  1  0.88712200  0.19253867  0.00287967  1
  H  19  1  0.83897300  0.01193733  0.07250500  1
  H  20  1  0.83939700  0.05383467  0.96807933  1
  H  31  1  0.96163600  0.76551267  0.29261567  1
  H  37  1  0.92007000  0.64025700  0.41423867  1
  H  38  1  0.93203300  0.83727333  0.37498567  1
  H  39  1  0.87892300  0.71639933  0.31949233  1
  H  43  1  0.94544500  0.91006433  0.37196500  1
  H  44  1  0.96273000  0.79181367  0.24129900  1
  H  45  1  0.84894600  0.64343367  0.32380600  1
  H  52  1  0.96160500  0.30118033  0.74891033  1
  H  58  1  0.92059400  0.42616333  0.62700000  1
  H  59  1  0.93199300  0.22919633  0.66632267  1
  H  60  1  0.87893800  0.34968767  0.72141900  1
  H  64  1  0.94549600  0.15650267  0.66944833  1
  H  65  1  0.96273900  0.27489467  0.80023500  1
  H  66  1  0.84905600  0.42246033  0.71685667  1
  H  73  1  0.88943800  0.28454033  0.28079933  1
  H  81  1  0.90630600  0.27089233  0.38928133  1
  H  82  1  0.95647900  0.41421567  0.40152367  1
  H  86  1  0.84879400  0.36084867  0.43723333  1
  H  87  1  0.84051200  0.24898300  0.23111467  1
  H  94  1  0.88945400  0.78164233  0.76020900  1
  H  102  1  0.90611200  0.79541767  0.65184900  1
  H  103  1  0.95636500  0.65246467  0.63996300  1
  H  107  1  0.84844000  0.70505900  0.60347333  1
  H  108  1  0.84070200  0.81686433  0.80955267  1
  H  112  1  0.91423000  0.92086700  0.21168967  1
  H  113  1  0.90527800  0.94743667  0.15967867  1
  H  118  1  0.91451500  0.14548267  0.82948200  1
  H  119  1  0.90560600  0.11884300  0.88142367  1
  H  125  1  0.69555900  0.15835333  0.13396533  1
  H  127  1  0.58894700  0.17539367  0.18168567  1
  H  128  1  0.66147600  0.21883067  0.19915567  1
  H  129  1  0.69440900  0.17083300  0.21582700  1
  H  136  1  0.69607500  0.90627367  0.90574033  1
  H  138  1  0.58924200  0.88842667  0.85726200  1
  H  139  1  0.66187800  0.84555933  0.84028667  1
  H  140  1  0.69447300  0.89381967  0.82386467  1
  H  146  1  0.90582700  0.69601567  0.55461200  1
  H  147  1  0.93949400  0.69271167  0.50001000  1
  H  152  1  0.90590000  0.37028633  0.48653133  1
  H  153  1  0.93962500  0.37382300  0.54137867  1
  H  159  1  0.92474300  0.98448367  0.28107367  1
  H  161  1  0.91098500  0.03848600  0.24605300  1
  H  162  1  0.84719900  0.08259200  0.26328200  1
  H  169  1  0.92467400  0.08193533  0.76018900  1
  H  171  1  0.91096500  0.02783167  0.79511033  1
  H  172  1  0.84727600  0.98324800  0.77740800  1
  H  179  1  0.72506500  0.49879367  0.33559633  1
  H  180  1  0.75251500  0.57022367  0.33813367  1
  H  186  1  0.72517100  0.56617567  0.70421100  1
  H  187  1  0.75268600  0.49494067  0.70186767  1
  H  189  1  0.87910700  0.96408000  0.10925033  1
  H  190  1  0.87963200  0.10198767  0.93164833  1
  H  191  1  0.98021700  0.21785400  0.36312433  1
  H  193  1  0.98029200  0.84898533  0.67855600  1
  H  198  1  0.97247200  0.83300100  0.12034267  1
  H  199  1  0.90237100  0.77697800  0.18629300  1
  H  204  1  0.97234000  0.23378733  0.92126567  1
  H  205  1  0.90212400  0.28927500  0.85478533  1
  H  211  1  0.86700800  0.84099267  0.57020233  1
  H  216  1  0.86697400  0.22503833  0.47063533  1
  H  219  1  0.97082400  0.99678200  0.38051667  1
  H  222  1  0.97094200  0.06997467  0.66109133  1
  H  223  1  0.01219300  0.17319967  0.06267867  1
  H  225  1  0.01269000  0.89376467  0.97921733  1
  H  230  1  0.99017400  0.78360033  0.40132900  1
  H  231  1  0.04985400  0.90459467  0.27679700  1
  H  233  1  0.02156900  0.69495900  0.45161867  1
  H  237  1  0.99028700  0.28329567  0.64041333  1
  H  238  1  0.04986600  0.16273200  0.76538833  1
  H  240  1  0.02193800  0.37216667  0.59036267  1
  H  242  1  0.08646100  0.15289333  0.26436500  1
  H  244  1  0.99083600  0.33608833  0.30600267  1
  H  246  1  0.98589900  0.14494400  0.36039967  1
  H  247  1  0.03071400  0.40924833  0.31162767  1
  H  249  1  0.08695000  0.91466600  0.77806733  1
  H  251  1  0.99087800  0.73083833  0.73574900  1
  H  253  1  0.98596500  0.92192100  0.68131633  1
  H  254  1  0.03083500  0.65795333  0.73038500  1
  H  260  1  0.00418300  0.77574600  0.15206900  1
  H  262  1  0.08022900  0.78651100  0.18959767  1
  H  269  1  0.00384400  0.29128533  0.88977600  1
  H  271  1  0.08002100  0.28110067  0.85282000  1
  H  275  1  0.14402400  0.19292500  0.17448967  1
  H  276  1  0.11464700  0.17027533  0.12039200  1
  H  279  1  0.14445000  0.87521200  0.86834067  1
  H  280  1  0.11535500  0.89763567  0.92222900  1
  H  284  1  0.99385400  0.81784033  0.49606100  1
  H  286  1  0.98510400  0.85912333  0.54227433  1
  H  287  1  0.04348700  0.83440500  0.57701000  1
  H  293  1  0.99390200  0.24908667  0.54571267  1
  H  295  1  0.98506000  0.20774667  0.49943067  1
  H  296  1  0.04346200  0.23288467  0.46512667  1
  H  301  1  0.98320800  0.06884100  0.37501400  1
  H  303  1  0.02487400  0.07685833  0.25828267  1
  H  306  1  0.98341200  0.99800767  0.66666667  1
  H  308  1  0.02493400  0.99030600  0.78372867  1
  H  311  1  0.17321200  0.55736433  0.34721700  1
  H  313  1  0.28207300  0.49541467  0.34498767  1
  H  314  1  0.20179500  0.46143167  0.31829033  1
  H  315  1  0.18166700  0.45611700  0.36031000  1
  H  319  1  0.17330700  0.51091567  0.69578000  1
  H  321  1  0.28211800  0.57368067  0.69879933  1
  H  322  1  0.20190200  0.60704633  0.72494133  1
  H  323  1  0.18160200  0.61225033  0.68277833  1
  N  114  1  0.94767700  0.85065867  0.22916567  1
  N  120  1  0.94775800  0.21594133  0.81225800  1
  N  130  1  0.87990400  0.14603200  0.09288200  1
  N  131  1  0.96555100  0.20476967  0.21639233  1
  N  141  1  0.88074700  0.92005467  0.94810900  1
  N  142  1  0.96577500  0.86197933  0.82518867  1
  N  148  1  0.91039100  0.76151700  0.59268467  1
  N  154  1  0.91048800  0.30482433  0.44848000  1
  N  163  1  0.94242500  0.94318733  0.33105067  1
  N  164  1  0.96881600  0.11043333  0.31998800  1
  N  173  1  0.94240400  0.12336133  0.71034267  1
  N  174  1  0.96900700  0.95631233  0.72161133  1
  N  181  1  0.90561600  0.44458367  0.33780033  1
  N  188  1  0.90564400  0.62171633  0.70330167  1
  N  200  1  0.93007800  0.90558700  0.10402800  1
  N  206  1  0.93020000  0.16087800  0.93726067  1
  N  289  1  0.99195200  0.75425633  0.46011467  1
  N  298  1  0.99212200  0.31265433  0.58165033  1
  N  316  1  0.98677700  0.61036600  0.34879000  1
  N  324  1  0.98696100  0.45653767  0.69291233  1
  O  8  1  0.97043500  0.89016433  0.03979967  1
  O  15  1  0.97019300  0.17659100  0.00180433  1
  O  32  1  0.95301800  0.89827233  0.27958967  1
  O  53  1  0.95303800  0.16835667  0.76187900  1
  O  80  1  0.86773400  0.40513967  0.39290433  1
  O  101  1  0.86763700  0.66091267  0.64792500  1
  O  229  1  0.00955800  0.64918700  0.40673333  1
  O  236  1  0.01002600  0.41783000  0.63516267  1
  O  241  1  0.98835900  0.15522433  0.26768933  1
  O  248  1  0.98881500  0.91166967  0.77404867  1
