# generated using pymatgen
data_FeH5C8O5
_symmetry_space_group_name_H-M   'P 1'
_cell_length_a   7.02588000
_cell_length_b   11.36286000
_cell_length_c   11.37399629
_cell_angle_alpha   90.09391466
_cell_angle_beta   107.91950416
_cell_angle_gamma   107.61787000
_symmetry_Int_Tables_number   1
_chemical_formula_structural   FeH5C8O5
_chemical_formula_sum   'Fe2 H10 C16 O10'
_cell_volume   818.95147436
_cell_formula_units_Z   2
loop_
 _symmetry_equiv_pos_site_id
 _symmetry_equiv_pos_as_xyz
  1  'x, y, z'
loop_
 _atom_site_type_symbol
 _atom_site_label
 _atom_site_symmetry_multiplicity
 _atom_site_fract_x
 _atom_site_fract_y
 _atom_site_fract_z
 _atom_site_occupancy
  Fe  Fe1  1  0.50007000  0.00005000  0.00005000  1.0
  Fe  Fe2  1  0.00006000  0.00009000  0.00007000  1.0
  H  H1  1  0.74714000  0.99917000  0.38430000  1.0
  H  H2  1  0.10556000  0.87343000  0.87350000  1.0
  H  H3  1  0.13782000  0.38521000  0.99919000  1.0
  H  H4  1  0.86278000  0.00087000  0.61684000  1.0
  H  H5  1  0.89457000  0.12673000  0.12666000  1.0
  H  H6  1  0.25440000  0.61772000  0.00090000  1.0
  H  H7  1  0.25288000  0.00083000  0.61578000  1.0
  H  H8  1  0.86227000  0.61489000  0.00081000  1.0
  H  H9  1  0.13729000  0.99913000  0.38324000  1.0
  H  H10  1  0.74563000  0.38238000  0.99909000  1.0
  C  C1  1  0.64093000  0.99975000  0.43593000  1.0
  C  C2  1  0.29553000  0.43675000  0.99972000  1.0
  C  C3  1  0.70483000  0.00030000  0.56455000  1.0
  C  C4  1  0.35986000  0.56525000  0.00028000  1.0
  C  C5  1  0.35911000  0.00025000  0.56416000  1.0
  C  C6  1  0.70455000  0.56337000  0.00027000  1.0
  C  C7  1  0.29522000  0.99969000  0.43554000  1.0
  C  C8  1  0.64020000  0.43486000  0.99971000  1.0
  C  C9  1  0.43573000  0.99954000  0.37069000  1.0
  C  C10  1  0.36674000  0.00027000  0.23225000  1.0
  C  C11  1  0.43519000  0.37091000  0.99953000  1.0
  C  C12  1  0.36538000  0.23265000  0.00024000  1.0
  C  C13  1  0.56432000  0.00047000  0.62940000  1.0
  C  C14  1  0.63335000  0.99980000  0.76785000  1.0
  C  C15  1  0.56488000  0.62920000  0.00047000  1.0
  C  C16  1  0.63470000  0.76747000  0.99982000  1.0
  O  O1  1  0.50234000  0.00104000  0.17854000  1.0
  O  O2  1  0.17744000  0.18118000  0.00136000  1.0
  O  O3  1  0.82177000  0.99889000  0.82037000  1.0
  O  O4  1  0.49953000  0.82193000  0.99929000  1.0
  O  O5  1  0.49774000  0.99908000  0.82154000  1.0
  O  O6  1  0.82266000  0.81898000  0.99876000  1.0
  O  O7  1  0.17830000  0.00119000  0.17975000  1.0
  O  O8  1  0.50050000  0.17815000  0.00076000  1.0
  O  O9  1  0.18059000  0.94061000  0.94031000  1.0
  O  O10  1  0.81954000  0.05959000  0.05981000  1.0
