# generated using pymatgen
data_H7C11(NO)2
_symmetry_space_group_name_H-M   'P 1'
_cell_length_a   9.97433333
_cell_length_b   23.09670000
_cell_length_c   23.09670000
_cell_angle_alpha   120.00000000
_cell_angle_beta   90.00000000
_cell_angle_gamma   90.00000000
_symmetry_Int_Tables_number   1
_chemical_formula_structural   H7C11(NO)2
_chemical_formula_sum   'H42 C66 N12 O12'
_cell_volume   4608.02022248
_cell_formula_units_Z   6
loop_
 _symmetry_equiv_pos_site_id
 _symmetry_equiv_pos_as_xyz
  1  'x, y, z'
loop_
 _atom_site_type_symbol
 _atom_site_label
 _atom_site_symmetry_multiplicity
 _atom_site_fract_x
 _atom_site_fract_y
 _atom_site_fract_z
 _atom_site_occupancy
  C  1  1  0.97051700  0.96014500  0.48244800  1
  C  19  1  0.99325900  0.92333100  0.51683800  1
  C  20  1  0.95388600  0.91952150  0.41167850  1
  C  37  1  0.97055600  0.03251100  0.51484700  1
  C  38  1  0.95482600  0.07305800  0.58566900  1
  C  39  1  0.98535600  0.14190100  0.62181300  1
  C  40  1  0.01117300  0.17496950  0.58549350  1
  C  41  1  0.00498800  0.14009650  0.51487750  1
  C  42  1  0.99237300  0.06943200  0.48049700  1
  C  45  1  0.00523900  0.85265550  0.48255650  1
  C  46  1  0.00975000  0.81761000  0.41191500  1
  C  47  1  0.98369200  0.85058550  0.37552850  1
  C  54  1  0.97161100  0.47586000  0.96234900  1
  C  55  1  0.95490600  0.50591150  0.92165450  1
  C  56  1  0.98571500  0.47321900  0.85282800  1
  C  57  1  0.01286900  0.40395350  0.82000250  1
  C  58  1  0.00778400  0.36835150  0.85503750  1
  C  59  1  0.99511100  0.40472850  0.92567650  1
  C  62  1  0.97061600  0.51590750  0.03468650  1
  C  63  1  0.99256400  0.58717100  0.07147100  1
  C  64  1  0.00262200  0.62371950  0.14221850  1
  C  65  1  0.00679200  0.58824350  0.17738850  1
  C  66  1  0.98235900  0.51874050  0.14433150  1
  C  67  1  0.95388400  0.48573750  0.07527250  1
  C  76  1  0.97026700  0.47983350  0.51825750  1
  C  77  1  0.95296100  0.40908550  0.48796850  1
  C  78  1  0.97996100  0.37293300  0.52102300  1
  C  79  1  0.00345400  0.40925150  0.59060450  1
  C  80  1  0.00089600  0.47991150  0.62604750  1
  C  81  1  0.99255200  0.51414050  0.58948450  1
  C  84  1  0.97128000  0.51233950  0.47841450  1
  C  85  1  0.99373600  0.47803750  0.40721250  1
  C  86  1  0.00588900  0.51245100  0.37095400  1
  C  87  1  0.01083200  0.58309700  0.40668000  1
  C  88  1  0.98517000  0.61938600  0.47609200  1
  C  89  1  0.95506700  0.58314250  0.50873750  1
  C  98  1  0.00452600  0.69446300  0.17972800  1
  C  99  1  0.88107300  0.72899850  0.20153150  1
  C  100  1  0.87002850  0.78838350  0.26467550  1
  C  101  1  0.98748100  0.81301100  0.30473800  1
  C  105  1  0.73574300  0.81791050  0.29073950  1
  C  109  1  0.00695300  0.47936450  0.30015950  1
  C  110  1  0.88279100  0.46627150  0.26621650  1
  C  111  1  0.87043900  0.46990150  0.20682150  1
  C  112  1  0.98708100  0.48533400  0.18170400  1
  C  116  1  0.73567500  0.46615500  0.17763600  1
  C  120  1  0.00668200  0.81504900  0.51572600  1
  C  121  1  0.88311200  0.79356100  0.52860800  1
  C  122  1  0.87177300  0.73052500  0.52504600  1
  C  123  1  0.98881300  0.69017050  0.50950950  1
  C  127  1  0.73740700  0.70471850  0.52879350  1
  C  131  1  0.01010200  0.29757950  0.81744850  1
  C  132  1  0.88585900  0.26363450  0.79627150  1
  C  133  1  0.87350900  0.20438350  0.73310050  1
  C  134  1  0.99030700  0.17928100  0.69258200  1
  C  138  1  0.73863200  0.17544150  0.70749850  1
  C  142  1  0.00333200  0.51321100  0.69679600  1
  C  143  1  0.88031850  0.52575900  0.73157700  1
  C  144  1  0.87042900  0.52196350  0.79096150  1
  C  145  1  0.98831300  0.50630650  0.81512750  1
  C  149  1  0.73657600  0.52549300  0.82091000  1
  C  153  1  0.00601000  0.17788550  0.48186450  1
  C  154  1  0.88133800  0.19870400  0.46919100  1
  C  155  1  0.86841500  0.26161750  0.47261650  1
  C  156  1  0.98493400  0.30216150  0.48750750  1
  C  160  1  0.73349800  0.28697900  0.46901200  1
  H  13  1  0.11909000  0.96441700  0.58747800  1
  H  21  1  0.92174500  0.93977500  0.38396200  1
  H  43  1  0.92283150  0.05279500  0.61340800  1
  H  50  1  0.11654400  0.02832050  0.40910250  1
  H  52  1  0.11613400  0.25366750  0.62551250  1
  H  53  1  0.11343800  0.73849300  0.37154800  1
  H  60  1  0.92201200  0.55376850  0.94184650  1
  H  69  1  0.92236500  0.43765050  0.05493450  1
  H  72  1  0.11988700  0.37529050  0.96727750  1
  H  73  1  0.11830900  0.61700300  0.03062800  1
  H  74  1  0.11758600  0.36530200  0.74120500  1
  H  75  1  0.10919100  0.62748150  0.25691250  1
  H  82  1  0.92189400  0.38139700  0.43979900  1
  H  91  1  0.92284300  0.61076400  0.55672500  1
  H  94  1  0.12030900  0.58391350  0.61879250  1
  H  95  1  0.11902500  0.40717650  0.37763750  1
  H  96  1  0.10438300  0.36855350  0.62988250  1
  H  97  1  0.11443900  0.62341600  0.36785300  1
  H  103  1  0.79555700  0.70587250  0.17574950  1
  H  106  1  0.65602900  0.79230850  0.25430750  1
  H  107  1  0.73516300  0.87019050  0.30345250  1
  H  108  1  0.71225500  0.81505900  0.33540800  1
  H  114  1  0.79802800  0.46330850  0.28965850  1
  H  117  1  0.65667600  0.45514000  0.20343400  1
  H  118  1  0.73486200  0.42661450  0.12534150  1
  H  119  1  0.71140100  0.51363200  0.18056300  1
  H  125  1  0.79785400  0.81971850  0.53174350  1
  H  128  1  0.65788900  0.74125500  0.53966000  1
  H  129  1  0.73694900  0.69212550  0.56844650  1
  H  130  1  0.71353950  0.66001700  0.48137000  1
  H  136  1  0.80084150  0.28705350  0.82241750  1
  H  139  1  0.65955900  0.20130400  0.74424700  1
  H  140  1  0.73731300  0.12312450  0.69465450  1
  H  141  1  0.71477900  0.17851600  0.66298800  1
  H  147  1  0.79456400  0.52868550  0.70876150  1
  H  150  1  0.65635000  0.53620750  0.79546550  1
  H  151  1  0.73646400  0.56516950  0.87314150  1
  H  152  1  0.71344000  0.47803950  0.81827350  1
  H  158  1  0.79669200  0.17222700  0.46625500  1
  H  161  1  0.65464500  0.25012550  0.45812450  1
  H  162  1  0.73231600  0.29969850  0.42944650  1
  H  163  1  0.70934500  0.33154350  0.51649950  1
  N  102  1  0.10239800  0.77768700  0.27892000  1
  N  104  1  0.11039000  0.72274300  0.22144300  1
  N  113  1  0.10267800  0.49541800  0.21674700  1
  N  115  1  0.11212800  0.49309200  0.27176900  1
  N  124  1  0.10376200  0.71577350  0.49962350  1
  N  126  1  0.11233450  0.77319200  0.50206100  1
  N  135  1  0.10593500  0.21408550  0.71796250  1
  N  137  1  0.11525100  0.26897000  0.77541500  1
  N  146  1  0.10261900  0.49677000  0.77931000  1
  N  148  1  0.10986700  0.49949550  0.72444750  1
  N  157  1  0.10089400  0.27735500  0.49744200  1
  N  159  1  0.11087800  0.22007500  0.49524100  1
  O  2  1  0.02335400  0.95258500  0.58314000  1
  O  44  1  0.01980650  0.24317100  0.61952400  1
  O  48  1  0.01730000  0.74936250  0.37799350  1
  O  49  1  0.02080000  0.04023150  0.41403050  1
  O  61  1  0.02131000  0.36953300  0.75178100  1
  O  68  1  0.01322000  0.62262550  0.24566150  1
  O  70  1  0.02431300  0.36775850  0.95510950  1
  O  71  1  0.02241100  0.62416900  0.04213700  1
  O  83  1  0.00863700  0.37529800  0.62495100  1
  O  90  1  0.01831100  0.61708450  0.37242550  1
  O  92  1  0.02434900  0.58025150  0.62640950  1
  O  93  1  0.02340600  0.41169700  0.37007800  1
