# generated using pymatgen
data_ZnH3C8NO4
_symmetry_space_group_name_H-M   'P 1'
_cell_length_a   18.69149637
_cell_length_b   18.81799000
_cell_length_c   23.30170095
_cell_angle_alpha   113.23429362
_cell_angle_beta   113.60668063
_cell_angle_gamma   60.28417360
_symmetry_Int_Tables_number   1
_chemical_formula_structural   ZnH3C8NO4
_chemical_formula_sum   'Zn12 H36 C96 N12 O48'
_cell_volume   6321.66054939
_cell_formula_units_Z   12
loop_
 _symmetry_equiv_pos_site_id
 _symmetry_equiv_pos_as_xyz
  1  'x, y, z'
loop_
 _atom_site_type_symbol
 _atom_site_label
 _atom_site_symmetry_multiplicity
 _atom_site_fract_x
 _atom_site_fract_y
 _atom_site_fract_z
 _atom_site_occupancy
  Zn  Zn1  1  0.72829000  0.22254000  0.19440000  1.0
  Zn  Zn2  1  0.66996000  0.30108000  0.29709000  1.0
  Zn  Zn3  1  0.25726000  0.72056000  0.30252000  1.0
  Zn  Zn4  1  0.25624000  0.27780000  0.30573000  1.0
  Zn  Zn5  1  0.17395000  0.19876000  0.20290000  1.0
  Zn  Zn6  1  0.17521000  0.77943000  0.19747000  1.0
  Zn  Zn7  1  0.27171000  0.77746000  0.80560000  1.0
  Zn  Zn8  1  0.33003000  0.69892000  0.70291000  1.0
  Zn  Zn9  1  0.74273000  0.27944000  0.69747000  1.0
  Zn  Zn10  1  0.74375000  0.72221000  0.69427000  1.0
  Zn  Zn11  1  0.82605000  0.80124000  0.79710000  1.0
  Zn  Zn12  1  0.82479000  0.22056000  0.80252000  1.0
  H  H1  1  0.45340000  0.21983000  0.24206000  1.0
  H  H2  1  0.35618000  0.05820000  0.07031000  1.0
  H  H3  1  0.57756000  0.08890000  0.08678000  1.0
  H  H4  1  0.85095000  0.12664000  0.41258000  1.0
  H  H5  1  0.08017000  0.89834000  0.41271000  1.0
  H  H6  1  0.94691000  0.99592000  0.24268000  1.0
  H  H7  1  0.57860000  0.40032000  0.07223000  1.0
  H  H8  1  0.35064000  0.62920000  0.06993000  1.0
  H  H9  1  0.46087000  0.51500000  0.23039000  1.0
  H  H10  1  0.93098000  0.28026000  0.25792000  1.0
  H  H11  1  0.84403000  0.44201000  0.42973000  1.0
  H  H12  1  0.07970000  0.41099000  0.41332000  1.0
  H  H13  1  0.06512000  0.37310000  0.08739000  1.0
  H  H14  1  0.06538000  0.60182000  0.08695000  1.0
  H  H15  1  0.19958000  0.50446000  0.25712000  1.0
  H  H16  1  0.40695000  0.09980000  0.42800000  1.0
  H  H17  1  0.40981000  0.87084000  0.43028000  1.0
  H  H18  1  0.24538000  0.98539000  0.27006000  1.0
  H  H19  1  0.54659000  0.78017000  0.75793000  1.0
  H  H20  1  0.64382000  0.94178000  0.92968000  1.0
  H  H21  1  0.42244000  0.91110000  0.91322000  1.0
  H  H22  1  0.14904000  0.87337000  0.58742000  1.0
  H  H23  1  0.91982000  0.10167000  0.58729000  1.0
  H  H24  1  0.05308000  0.00409000  0.75732000  1.0
  H  H25  1  0.42140000  0.59967000  0.92776000  1.0
  H  H26  1  0.64935000  0.37081000  0.93007000  1.0
  H  H27  1  0.53913000  0.48500000  0.76961000  1.0
  H  H28  1  0.06901000  0.71974000  0.74207000  1.0
  H  H29  1  0.15596000  0.55800000  0.57027000  1.0
  H  H30  1  0.92029000  0.58902000  0.58668000  1.0
  H  H31  1  0.93487000  0.62691000  0.91261000  1.0
  H  H32  1  0.93461000  0.39819000  0.91305000  1.0
  H  H33  1  0.80042000  0.49554000  0.74288000  1.0
  H  H34  1  0.59304000  0.90021000  0.57200000  1.0
  H  H35  1  0.59018000  0.12917000  0.56972000  1.0
  H  H36  1  0.75462000  0.01461000  0.72994000  1.0
  C  C1  1  0.58515000  0.19949000  0.20422000  1.0
  C  C2  1  0.52216000  0.15912000  0.16854000  1.0
  C  C3  1  0.45747000  0.17715000  0.19461000  1.0
  C  C4  1  0.39736000  0.14109000  0.15941000  1.0
  C  C5  1  0.40268000  0.08607000  0.09824000  1.0
  C  C6  1  0.46848000  0.06648000  0.07256000  1.0
  C  C7  1  0.52773000  0.10360000  0.10760000  1.0
  C  C8  1  0.82012000  0.13277000  0.28848000  1.0
  C  C9  1  0.89086000  0.06775000  0.32348000  1.0
  C  C10  1  0.89792000  0.07425000  0.38752000  1.0
  C  C11  1  0.96637000  0.01356000  0.42014000  1.0
  C  C12  1  0.02722000  0.94554000  0.38782000  1.0
  C  C13  1  0.01957000  0.93935000  0.32395000  1.0
  C  C14  1  0.95187000  0.00052000  0.29196000  1.0
  C  C15  1  0.08469000  0.86872000  0.28947000  1.0
  C  C16  1  0.59321000  0.37793000  0.18436000  1.0
  C  C17  1  0.52636000  0.44940000  0.15419000  1.0
  C  C18  1  0.52877000  0.45030000  0.09551000  1.0
  C  C19  1  0.46639000  0.51659000  0.06645000  1.0
  C  C20  1  0.39983000  0.57977000  0.09425000  1.0
  C  C21  1  0.39802000  0.57967000  0.15360000  1.0
  C  C22  1  0.46182000  0.51496000  0.18405000  1.0
  C  C23  1  0.32789000  0.64846000  0.18393000  1.0
  C  C24  1  0.32762000  0.16430000  0.18815000  1.0
  C  C25  1  0.08027000  0.30072000  0.29575000  1.0
  C  C26  1  0.01265000  0.34096000  0.33147000  1.0
  C  C27  1  0.93993000  0.32291000  0.30539000  1.0
  C  C28  1  0.87900000  0.35899000  0.34063000  1.0
  C  C29  1  0.89046000  0.41402000  0.40179000  1.0
  C  C30  1  0.96235000  0.43357000  0.42749000  1.0
  C  C31  1  0.02367000  0.39643000  0.39245000  1.0
  C  C32  1  0.16444000  0.36713000  0.21140000  1.0
  C  C33  1  0.13492000  0.43228000  0.17641000  1.0
  C  C34  1  0.08458000  0.42567000  0.11239000  1.0
  C  C35  1  0.05971000  0.48644000  0.07979000  1.0
  C  C36  1  0.08462000  0.55469000  0.11202000  1.0
  C  C37  1  0.13453000  0.56095000  0.17592000  1.0
  C  C38  1  0.15997000  0.49970000  0.20785000  1.0
  C  C39  1  0.16367000  0.63151000  0.21063000  1.0
  C  C40  1  0.28656000  0.12257000  0.31604000  1.0
  C  C41  1  0.32150000  0.05101000  0.34617000  1.0
  C  C42  1  0.38363000  0.04991000  0.40472000  1.0
  C  C43  1  0.41642000  0.98352000  0.43370000  1.0
  C  C44  1  0.38520000  0.92030000  0.40592000  1.0
  C  C45  1  0.32397000  0.92053000  0.34658000  1.0
  C  C46  1  0.29264000  0.98545000  0.31634000  1.0
  C  C47  1  0.29208000  0.85186000  0.31591000  1.0
  C  C48  1  0.80378000  0.33575000  0.31197000  1.0
  C  C49  1  0.41484000  0.80051000  0.79577000  1.0
  C  C50  1  0.47784000  0.84088000  0.83146000  1.0
  C  C51  1  0.54253000  0.82284000  0.80538000  1.0
  C  C52  1  0.60263000  0.85892000  0.84059000  1.0
  C  C53  1  0.59731000  0.91394000  0.90176000  1.0
  C  C54  1  0.53152000  0.93352000  0.92744000  1.0
  C  C55  1  0.47226000  0.89641000  0.89240000  1.0
  C  C56  1  0.17987000  0.86724000  0.71152000  1.0
  C  C57  1  0.10913000  0.93226000  0.67652000  1.0
  C  C58  1  0.10207000  0.92576000  0.61248000  1.0
  C  C59  1  0.03363000  0.98644000  0.57986000  1.0
  C  C60  1  0.97278000  0.05445000  0.61217000  1.0
  C  C61  1  0.98043000  0.06065000  0.67605000  1.0
  C  C62  1  0.04812000  0.99948000  0.70803000  1.0
  C  C63  1  0.91531000  0.13128000  0.71053000  1.0
  C  C64  1  0.40678000  0.62207000  0.81563000  1.0
  C  C65  1  0.47363000  0.55060000  0.84580000  1.0
  C  C66  1  0.47122000  0.54970000  0.90448000  1.0
  C  C67  1  0.53361000  0.48341000  0.93355000  1.0
  C  C68  1  0.60017000  0.42023000  0.90575000  1.0
  C  C69  1  0.60197000  0.42034000  0.84640000  1.0
  C  C70  1  0.53817000  0.48505000  0.81595000  1.0
  C  C71  1  0.67211000  0.35153000  0.81606000  1.0
  C  C72  1  0.67238000  0.83569000  0.81184000  1.0
  C  C73  1  0.91973000  0.69927000  0.70424000  1.0
  C  C74  1  0.98734000  0.65905000  0.66853000  1.0
  C  C75  1  0.06007000  0.67709000  0.69461000  1.0
  C  C76  1  0.12099000  0.64102000  0.65937000  1.0
  C  C77  1  0.10953000  0.58598000  0.59820000  1.0
  C  C78  1  0.03764000  0.56644000  0.57251000  1.0
  C  C79  1  0.97632000  0.60358000  0.60755000  1.0
  C  C80  1  0.83556000  0.63287000  0.78860000  1.0
  C  C81  1  0.86507000  0.56773000  0.82359000  1.0
  C  C82  1  0.91541000  0.57434000  0.88761000  1.0
  C  C83  1  0.94028000  0.51356000  0.92020000  1.0
  C  C84  1  0.91537000  0.44531000  0.88797000  1.0
  C  C85  1  0.86547000  0.43904000  0.82407000  1.0
  C  C86  1  0.84002000  0.50031000  0.79215000  1.0
  C  C87  1  0.83632000  0.36850000  0.78937000  1.0
  C  C88  1  0.71343000  0.87744000  0.68396000  1.0
  C  C89  1  0.67849000  0.94900000  0.65383000  1.0
  C  C90  1  0.61636000  0.95009000  0.59527000  1.0
  C  C91  1  0.58357000  0.01648000  0.56629000  1.0
  C  C92  1  0.61479000  0.07971000  0.59408000  1.0
  C  C93  1  0.67603000  0.07947000  0.65342000  1.0
  C  C94  1  0.70735000  0.01456000  0.68366000  1.0
  C  C95  1  0.70792000  0.14814000  0.68409000  1.0
  C  C96  1  0.19621000  0.66426000  0.68803000  1.0
  N  N1  1  0.46922000  0.00901000  0.01067000  1.0
  N  N2  1  0.96791000  0.02702000  0.48527000  1.0
  N  N3  1  0.46531000  0.52439000  0.00837000  1.0
  N  N4  1  0.96753000  0.49104000  0.48935000  1.0
  N  N5  1  0.00971000  0.47289000  0.01469000  1.0
  N  N6  1  0.48122000  0.97570000  0.49171000  1.0
  N  N7  1  0.53077000  0.99100000  0.98933000  1.0
  N  N8  1  0.03209000  0.97297000  0.51472000  1.0
  N  N9  1  0.53468000  0.47561000  0.99162000  1.0
  N  N10  1  0.03247000  0.50896000  0.51065000  1.0
  N  N11  1  0.99029000  0.52711000  0.98531000  1.0
  N  N12  1  0.51878000  0.02429000  0.50828000  1.0
  O  O1  1  0.63948000  0.17943000  0.17445000  1.0
  O  O2  1  0.58087000  0.25043000  0.26016000  1.0
  O  O3  1  0.82082000  0.12490000  0.23134000  1.0
  O  O4  1  0.76458000  0.19205000  0.31856000  1.0
  O  O5  1  0.64285000  0.31521000  0.15031000  1.0
  O  O6  1  0.59555000  0.38488000  0.24181000  1.0
  O  O7  1  0.33549000  0.20710000  0.24695000  1.0
  O  O8  1  0.26533000  0.14201000  0.15359000  1.0
  O  O9  1  0.07521000  0.86802000  0.23145000  1.0
  O  O10  1  0.14547000  0.81480000  0.32054000  1.0
  O  O11  1  0.26597000  0.70077000  0.15081000  1.0
  O  O12  1  0.33457000  0.64988000  0.24091000  1.0
  O  O13  1  0.14416000  0.32105000  0.32548000  1.0
  O  O14  1  0.07105000  0.24971000  0.23986000  1.0
  O  O15  1  0.21431000  0.37518000  0.26852000  1.0
  O  O16  1  0.13839000  0.30759000  0.18126000  1.0
  O  O17  1  0.30761000  0.18531000  0.35004000  1.0
  O  O18  1  0.23814000  0.11573000  0.25873000  1.0
  O  O19  1  0.79553000  0.29306000  0.25311000  1.0
  O  O20  1  0.75394000  0.35784000  0.34660000  1.0
  O  O21  1  0.21126000  0.63233000  0.26870000  1.0
  O  O22  1  0.13984000  0.68528000  0.17950000  1.0
  O  O23  1  0.31525000  0.79960000  0.34905000  1.0
  O  O24  1  0.24357000  0.85033000  0.25886000  1.0
  O  O25  1  0.36051000  0.82057000  0.82554000  1.0
  O  O26  1  0.41912000  0.74958000  0.73984000  1.0
  O  O27  1  0.17917000  0.87510000  0.76865000  1.0
  O  O28  1  0.23541000  0.80796000  0.68144000  1.0
  O  O29  1  0.35715000  0.68478000  0.84968000  1.0
  O  O30  1  0.40444000  0.61512000  0.75818000  1.0
  O  O31  1  0.66450000  0.79290000  0.75304000  1.0
  O  O32  1  0.73466000  0.85800000  0.84641000  1.0
  O  O33  1  0.92478000  0.13199000  0.76855000  1.0
  O  O34  1  0.85453000  0.18520000  0.67946000  1.0
  O  O35  1  0.73403000  0.29922000  0.84918000  1.0
  O  O36  1  0.66543000  0.35011000  0.75908000  1.0
  O  O37  1  0.85584000  0.67894000  0.67451000  1.0
  O  O38  1  0.92894000  0.75030000  0.76014000  1.0
  O  O39  1  0.78568000  0.62482000  0.73147000  1.0
  O  O40  1  0.86161000  0.69240000  0.81873000  1.0
  O  O41  1  0.69239000  0.81469000  0.64996000  1.0
  O  O42  1  0.76185000  0.88428000  0.74127000  1.0
  O  O43  1  0.20447000  0.70694000  0.74689000  1.0
  O  O44  1  0.24605000  0.64217000  0.65340000  1.0
  O  O45  1  0.78874000  0.36766000  0.73129000  1.0
  O  O46  1  0.86016000  0.31471000  0.82049000  1.0
  O  O47  1  0.68475000  0.20039000  0.65094000  1.0
  O  O48  1  0.75643000  0.14967000  0.74114000  1.0
