# generated using pymatgen
data_CdH20C38(NO2)4
_symmetry_space_group_name_H-M   'P 1'
_cell_length_a   11.73124000
_cell_length_b   14.19792000
_cell_length_c   29.60219000
_cell_angle_alpha   89.89067000
_cell_angle_beta   89.87787000
_cell_angle_gamma   78.14363000
_symmetry_Int_Tables_number   1
_chemical_formula_structural   CdH20C38(NO2)4
_chemical_formula_sum   'Cd4 H80 C152 N16 O32'
_cell_volume   4825.31186482
_cell_formula_units_Z   4
loop_
 _symmetry_equiv_pos_site_id
 _symmetry_equiv_pos_as_xyz
  1  'x, y, z'
loop_
 _atom_site_type_symbol
 _atom_site_label
 _atom_site_symmetry_multiplicity
 _atom_site_fract_x
 _atom_site_fract_y
 _atom_site_fract_z
 _atom_site_occupancy
  Cd  Cd0  1  0.39448000  0.08719000  0.04348000  1
  Cd  Cd1  1  0.10525000  0.41233000  0.54334000  1
  Cd  Cd2  1  0.60553000  0.91280000  0.95652000  1
  Cd  Cd3  1  0.89476000  0.58766000  0.45665000  1
  H  H4  1  0.42277000  0.09129000  0.20378000  1
  H  H5  1  0.17939000  0.33391000  0.15249000  1
  H  H6  1  0.37927000  0.14895000  0.28216000  1
  H  H7  1  0.13966000  0.39750000  0.23046000  1
  H  H8  1  0.39092000  0.22718000  0.33725000  1
  H  H9  1  0.06564000  0.40685000  0.29521000  1
  H  H10  1  0.34010000  0.27201000  0.41671000  1
  H  H11  1  0.02475000  0.45931000  0.37348000  1
  H  H12  1  0.12721000  0.07060000  0.03865000  1
  H  H13  1  0.42294000  0.86164000  0.06400000  1
  H  H14  1  0.99953000  0.94904000  0.04085000  1
  H  H15  1  0.30734000  0.73030000  0.06578000  1
  H  H16  1  0.87873000  0.71126000  0.94377000  1
  H  H17  1  0.07032000  0.56333000  0.15223000  1
  H  H18  1  0.77005000  0.57854000  0.93985000  1
  H  H19  1  0.94790000  0.43583000  0.15003000  1
  H  H20  1  0.51852000  0.42766000  0.02097000  1
  H  H21  1  0.80488000  0.20491000  0.06545000  1
  H  H22  1  0.39692000  0.30174000  0.01694000  1
  H  H23  1  0.66802000  0.08984000  0.06273000  1
  H  H24  1  0.07826000  0.40733000  0.70341000  1
  H  H25  1  0.32032000  0.16294000  0.65290000  1
  H  H26  1  0.12173000  0.35087000  0.78205000  1
  H  H27  1  0.36096000  0.10144000  0.73107000  1
  H  H28  1  0.10954000  0.27154000  0.83782000  1
  H  H29  1  0.43494000  0.09293000  0.79510000  1
  H  H30  1  0.16210000  0.22761000  0.91733000  1
  H  H31  1  0.47714000  0.04081000  0.87331000  1
  H  H32  1  0.37238000  0.42897000  0.53833000  1
  H  H33  1  0.07581000  0.63699000  0.56370000  1
  H  H34  1  0.49966000  0.55082000  0.54093000  1
  H  H35  1  0.19072000  0.76884000  0.56549000  1
  H  H36  1  0.62076000  0.78910000  0.44374000  1
  H  H37  1  0.42714000  0.93617000  0.65209000  1
  H  H38  1  0.73091000  0.92067000  0.43993000  1
  H  H39  1  0.55045000  0.06315000  0.64995000  1
  H  H40  1  0.98233000  0.07202000  0.52126000  1
  H  H41  1  0.69499000  0.29420000  0.56563000  1
  H  H42  1  0.10359000  0.19803000  0.51742000  1
  H  H43  1  0.83126000  0.40960000  0.56266000  1
  H  H44  1  0.57724000  0.90871000  0.79622000  1
  H  H45  1  0.82062000  0.66608000  0.84751000  1
  H  H46  1  0.62074000  0.85105000  0.71784000  1
  H  H47  1  0.86036000  0.60249000  0.76954000  1
  H  H48  1  0.60908000  0.77281000  0.66275000  1
  H  H49  1  0.93437000  0.59314000  0.70478000  1
  H  H50  1  0.65991000  0.72798000  0.58329000  1
  H  H51  1  0.97526000  0.54069000  0.62652000  1
  H  H52  1  0.87280000  0.92939000  0.96135000  1
  H  H53  1  0.57707000  0.13835000  0.93600000  1
  H  H54  1  0.00048000  0.05095000  0.95915000  1
  H  H55  1  0.69267000  0.26969000  0.93422000  1
  H  H56  1  0.12128000  0.28873000  0.05623000  1
  H  H57  1  0.92968000  0.43666000  0.84777000  1
  H  H58  1  0.22996000  0.42145000  0.06015000  1
  H  H59  1  0.05211000  0.56417000  0.84997000  1
  H  H60  1  0.48149000  0.57233000  0.97903000  1
  H  H61  1  0.19513000  0.79508000  0.93455000  1
  H  H62  1  0.60309000  0.69826000  0.98306000  1
  H  H63  1  0.33199000  0.91015000  0.93727000  1
  H  H64  1  0.92175000  0.59267000  0.29659000  1
  H  H65  1  0.67968000  0.83705000  0.34709000  1
  H  H66  1  0.87828000  0.64912000  0.21795000  1
  H  H67  1  0.63905000  0.89855000  0.26893000  1
  H  H68  1  0.89047000  0.72846000  0.16218000  1
  H  H69  1  0.56507000  0.90706000  0.20489000  1
  H  H70  1  0.83791000  0.77238000  0.08267000  1
  H  H71  1  0.52287000  0.95919000  0.12668000  1
  H  H72  1  0.62763000  0.57103000  0.46167000  1
  H  H73  1  0.92420000  0.36301000  0.43629000  1
  H  H74  1  0.50035000  0.44918000  0.45907000  1
  H  H75  1  0.80929000  0.23116000  0.43450000  1
  H  H76  1  0.37925000  0.21089000  0.55626000  1
  H  H77  1  0.57287000  0.06383000  0.34791000  1
  H  H78  1  0.26910000  0.07932000  0.56006000  1
  H  H79  1  0.44956000  0.93684000  0.35004000  1
  H  H80  1  0.01768000  0.92797000  0.47873000  1
  H  H81  1  0.30502000  0.70579000  0.43437000  1
  H  H82  1  0.89642000  0.80196000  0.48257000  1
  H  H83  1  0.16875000  0.59039000  0.43734000  1
  C  C84  1  0.33028000  0.17107000  0.12668000  1
  C  C85  1  0.30363000  0.20885000  0.17345000  1
  C  C86  1  0.36042000  0.15784000  0.21038000  1
  C  C87  1  0.22306000  0.29485000  0.18137000  1
  C  C88  1  0.33633000  0.19145000  0.25411000  1
  C  C89  1  0.20040000  0.32941000  0.22518000  1
  C  C90  1  0.25618000  0.27821000  0.26264000  1
  C  C91  1  0.23105000  0.31175000  0.30960000  1
  C  C92  1  0.30880000  0.27573000  0.34483000  1
  C  C93  1  0.12857000  0.37811000  0.32127000  1
  C  C94  1  0.28251000  0.30176000  0.38937000  1
  C  C95  1  0.10363000  0.40655000  0.36589000  1
  C  C96  1  0.17978000  0.36713000  0.40069000  1
  C  C97  1  0.15298000  0.39014000  0.44924000  1
  C  C98  1  0.16381000  0.99466000  0.04464000  1
  C  C99  1  0.32906000  0.87743000  0.05909000  1
  C  C100  1  0.09296000  0.92702000  0.04583000  1
  C  C101  1  0.26515000  0.80506000  0.06036000  1
  C  C102  1  0.14544000  0.83073000  0.05290000  1
  C  C103  1  0.08102000  0.69706000  0.09030000  1
  C  C104  1  0.01487000  0.74920000  0.01126000  1
  C  C105  1  0.94872000  0.67134000  0.00998000  1
  C  C106  1  0.01715000  0.61771000  0.08653000  1
  C  C107  1  0.95136000  0.60845000  0.04735000  1
  C  C108  1  0.88352000  0.66093000  0.97183000  1
  C  C109  1  0.01793000  0.55488000  0.12277000  1
  C  C110  1  0.82022000  0.58711000  0.96988000  1
  C  C111  1  0.95020000  0.48413000  0.12158000  1
  C  C112  1  0.81975000  0.52523000  0.00639000  1
  C  C113  1  0.88255000  0.47525000  0.08384000  1
  C  C114  1  0.88394000  0.53567000  0.04589000  1
  C  C115  1  0.75367000  0.44742000  0.00343000  1
  C  C116  1  0.80658000  0.40402000  0.08461000  1
  C  C117  1  0.67180000  0.32477000  0.04283000  1
  C  C118  1  0.55561000  0.35326000  0.02954000  1
  C  C119  1  0.71482000  0.22922000  0.05521000  1
  C  C120  1  0.48750000  0.28387000  0.02771000  1
  C  C121  1  0.63950000  0.16512000  0.05326000  1
  C  C122  1  0.17021000  0.32786000  0.62665000  1
  C  C123  1  0.19659000  0.28916000  0.67340000  1
  C  C124  1  0.14014000  0.34064000  0.71027000  1
  C  C125  1  0.27675000  0.20293000  0.68156000  1
  C  C126  1  0.16412000  0.30765000  0.75412000  1
  C  C127  1  0.29966000  0.16917000  0.72552000  1
  C  C128  1  0.24409000  0.22092000  0.76287000  1
  C  C129  1  0.26966000  0.18786000  0.80986000  1
  C  C130  1  0.19220000  0.22374000  0.84527000  1
  C  C131  1  0.37249000  0.12183000  0.82131000  1
  C  C132  1  0.21933000  0.19812000  0.88979000  1
  C  C133  1  0.39824000  0.09362000  0.86589000  1
  C  C134  1  0.32256000  0.13320000  0.90082000  1
  C  C135  1  0.34968000  0.11007000  0.94925000  1
  C  C136  1  0.33560000  0.50478000  0.54452000  1
  C  C137  1  0.16979000  0.62159000  0.55891000  1
  C  C138  1  0.40615000  0.57260000  0.54590000  1
  C  C139  1  0.23337000  0.69417000  0.56022000  1
  C  C140  1  0.35327000  0.66878000  0.55300000  1
  C  C141  1  0.41702000  0.80267000  0.59026000  1
  C  C142  1  0.48342000  0.75100000  0.51122000  1
  C  C143  1  0.54997000  0.82872000  0.50989000  1
  C  C144  1  0.48112000  0.88196000  0.58645000  1
  C  C145  1  0.54748000  0.89125000  0.54730000  1
  C  C146  1  0.61583000  0.83920000  0.47181000  1
  C  C147  1  0.48020000  0.94451000  0.62270000  1
  C  C148  1  0.67991000  0.91260000  0.46992000  1
  C  C149  1  0.54831000  0.01502000  0.62152000  1
  C  C150  1  0.68039000  0.97430000  0.50639000  1
  C  C151  1  0.61639000  0.02404000  0.58378000  1
  C  C152  1  0.61535000  0.96383000  0.54584000  1
  C  C153  1  0.74745000  0.05173000  0.50354000  1
  C  C154  1  0.69219000  0.09546000  0.58455000  1
  C  C155  1  0.82839000  0.17449000  0.54302000  1
  C  C156  1  0.94481000  0.14632000  0.52979000  1
  C  C157  1  0.78509000  0.26999000  0.55534000  1
  C  C158  1  0.01278000  0.21585000  0.52802000  1
  C  C159  1  0.86016000  0.33433000  0.55333000  1
  C  C160  1  0.66973000  0.82892000  0.87331000  1
  C  C161  1  0.69638000  0.79114000  0.82654000  1
  C  C162  1  0.63959000  0.84215000  0.78962000  1
  C  C163  1  0.77695000  0.70514000  0.81863000  1
  C  C164  1  0.66368000  0.80855000  0.74589000  1
  C  C165  1  0.79961000  0.67059000  0.77482000  1
  C  C166  1  0.74383000  0.72178000  0.73735000  1
  C  C167  1  0.76896000  0.68824000  0.69040000  1
  C  C168  1  0.69121000  0.72427000  0.65517000  1
  C  C169  1  0.87144000  0.62189000  0.67873000  1
  C  C170  1  0.71750000  0.69823000  0.61062000  1
  C  C171  1  0.89638000  0.59344000  0.63411000  1
  C  C172  1  0.82023000  0.63287000  0.59930000  1
  C  C173  1  0.84703000  0.60986000  0.55076000  1
  C  C174  1  0.83620000  0.00534000  0.95535000  1
  C  C175  1  0.67095000  0.12256000  0.94091000  1
  C  C176  1  0.90705000  0.07297000  0.95417000  1
  C  C177  1  0.73486000  0.19494000  0.93964000  1
  C  C178  1  0.85457000  0.16926000  0.94710000  1
  C  C179  1  0.91899000  0.30293000  0.90970000  1
  C  C180  1  0.98515000  0.25080000  0.98873000  1
  C  C181  1  0.05129000  0.32865000  0.99002000  1
  C  C182  1  0.98286000  0.38228000  0.91347000  1
  C  C183  1  0.04865000  0.39154000  0.95264000  1
  C  C184  1  0.11649000  0.33906000  0.02816000  1
  C  C185  1  0.98207000  0.44511000  0.87723000  1
  C  C186  1  0.17978000  0.41288000  0.03011000  1
  C  C187  1  0.04981000  0.51586000  0.87841000  1
  C  C188  1  0.18026000  0.47477000  0.99361000  1
  C  C189  1  0.11746000  0.52474000  0.91616000  1
  C  C190  1  0.11607000  0.46432000  0.95410000  1
  C  C191  1  0.24634000  0.55257000  0.99657000  1
  C  C192  1  0.19343000  0.59598000  0.91538000  1
  C  C193  1  0.32821000  0.67522000  0.95717000  1
  C  C194  1  0.44440000  0.64673000  0.97046000  1
  C  C195  1  0.28519000  0.77077000  0.94479000  1
  C  C196  1  0.51251000  0.71613000  0.97229000  1
  C  C197  1  0.36051000  0.83488000  0.94674000  1
  C  C198  1  0.82980000  0.67213000  0.37335000  1
  C  C199  1  0.80341000  0.71083000  0.32660000  1
  C  C200  1  0.85987000  0.65935000  0.28973000  1
  C  C201  1  0.72326000  0.79706000  0.31844000  1
  C  C202  1  0.83589000  0.69234000  0.24588000  1
  C  C203  1  0.70035000  0.83083000  0.27447000  1
  C  C204  1  0.75592000  0.77907000  0.23712000  1
  C  C205  1  0.73035000  0.81213000  0.19013000  1
  C  C206  1  0.80781000  0.77625000  0.15473000  1
  C  C207  1  0.62752000  0.87816000  0.17868000  1
  C  C208  1  0.78068000  0.80187000  0.11021000  1
  C  C209  1  0.60177000  0.90638000  0.13411000  1
  C  C210  1  0.67745000  0.86679000  0.09917000  1
  C  C211  1  0.65033000  0.88992000  0.05074000  1
  C  C212  1  0.66441000  0.49521000  0.45548000  1
  C  C213  1  0.83022000  0.37841000  0.44108000  1
  C  C214  1  0.59385000  0.42739000  0.45410000  1
  C  C215  1  0.76664000  0.30583000  0.43977000  1
  C  C216  1  0.64674000  0.33121000  0.44700000  1
  C  C217  1  0.58299000  0.19732000  0.40974000  1
  C  C218  1  0.51659000  0.24900000  0.48878000  1
  C  C219  1  0.45004000  0.17128000  0.49011000  1
  C  C220  1  0.51889000  0.11803000  0.41355000  1
  C  C221  1  0.45252000  0.10874000  0.45270000  1
  C  C222  1  0.38418000  0.16079000  0.52818000  1
  C  C223  1  0.51980000  0.05548000  0.37729000  1
  C  C224  1  0.32010000  0.08739000  0.53008000  1
  C  C225  1  0.45170000  0.98498000  0.37848000  1
  C  C226  1  0.31962000  0.02569000  0.49360000  1
  C  C227  1  0.38362000  0.97595000  0.41622000  1
  C  C228  1  0.38466000  0.03616000  0.45416000  1
  C  C229  1  0.25256000  0.94827000  0.49645000  1
  C  C230  1  0.30782000  0.90453000  0.41545000  1
  C  C231  1  0.17162000  0.82550000  0.45698000  1
  C  C232  1  0.05520000  0.85368000  0.47021000  1
  C  C233  1  0.21492000  0.73000000  0.44465000  1
  C  C234  1  0.98723000  0.78415000  0.47198000  1
  C  C235  1  0.13985000  0.66566000  0.44667000  1
  N  N236  1  0.28001000  0.97010000  0.05055000  1
  N  N237  1  0.07744000  0.75719000  0.05149000  1
  N  N238  1  0.74578000  0.39418000  0.04357000  1
  N  N239  1  0.52853000  0.19135000  0.03918000  1
  N  N240  1  0.21933000  0.52908000  0.55039000  1
  N  N241  1  0.42116000  0.74249000  0.55158000  1
  N  N242  1  0.75442000  0.10498000  0.54368000  1
  N  N243  1  0.97140000  0.30833000  0.53940000  1
  N  N244  1  0.72000000  0.02989000  0.94944000  1
  N  N245  1  0.92257000  0.24280000  0.94851000  1
  N  N246  1  0.25423000  0.60581000  0.95643000  1
  N  N247  1  0.47147000  0.80865000  0.96082000  1
  N  N248  1  0.78067000  0.47091000  0.44961000  1
  N  N249  1  0.57885000  0.25750000  0.44842000  1
  N  N250  1  0.24559000  0.89502000  0.45632000  1
  N  N251  1  0.02861000  0.69166000  0.46060000  1
  O  O252  1  0.27429000  0.21444000  0.09321000  1
  O  O253  1  0.41029000  0.09526000  0.12233000  1
  O  O254  1  0.06435000  0.45569000  0.45983000  1
  O  O255  1  0.21800000  0.34232000  0.47949000  1
  O  O256  1  0.01772000  0.80442000  0.97937000  1
  O  O257  1  0.13147000  0.71353000  0.12466000  1
  O  O258  1  0.79407000  0.35648000  0.11808000  1
  O  O259  1  0.70764000  0.42862000  0.96814000  1
  O  O260  1  0.22494000  0.28437000  0.59296000  1
  O  O261  1  0.09190000  0.40482000  0.62250000  1
  O  O262  1  0.43780000  0.04423000  0.95982000  1
  O  O263  1  0.28483000  0.15799000  0.97955000  1
  O  O264  1  0.48010000  0.69601000  0.47936000  1
  O  O265  1  0.36577000  0.78641000  0.62459000  1
  O  O266  1  0.70327000  0.14348000  0.61790000  1
  O  O267  1  0.79483000  0.07050000  0.46843000  1
  O  O268  1  0.72571000  0.78555000  0.90679000  1
  O  O269  1  0.58973000  0.90473000  0.87767000  1
  O  O270  1  0.93566000  0.54430000  0.54017000  1
  O  O271  1  0.78201000  0.65767000  0.52051000  1
  O  O272  1  0.98229000  0.19557000  0.02063000  1
  O  O273  1  0.86853000  0.28646000  0.87534000  1
  O  O274  1  0.20594000  0.64352000  0.88192000  1
  O  O275  1  0.29237000  0.57137000  0.03186000  1
  O  O276  1  0.77508000  0.71562000  0.40704000  1
  O  O277  1  0.90811000  0.59517000  0.37750000  1
  O  O278  1  0.56221000  0.95576000  0.04018000  1
  O  O279  1  0.71518000  0.84200000  0.02045000  1
  O  O280  1  0.51990000  0.30398000  0.52063000  1
  O  O281  1  0.63424000  0.21358000  0.37541000  1
  O  O282  1  0.29674000  0.85652000  0.38209000  1
  O  O283  1  0.20518000  0.92949000  0.53157000  1
