# generated using pymatgen
data_H11C19N2
_symmetry_space_group_name_H-M   'P 1'
_cell_length_a   23.67716771
_cell_length_b   24.06525000
_cell_length_c   38.66320000
_cell_angle_alpha   90.74910000
_cell_angle_beta   89.99999842
_cell_angle_gamma   119.46810534
_symmetry_Int_Tables_number   1
_chemical_formula_structural   H11C19N2
_chemical_formula_sum   'H88 C152 N16'
_cell_volume   19177.96047170
_cell_formula_units_Z   8
loop_
 _symmetry_equiv_pos_site_id
 _symmetry_equiv_pos_as_xyz
  1  'x, y, z'
loop_
 _atom_site_type_symbol
 _atom_site_label
 _atom_site_symmetry_multiplicity
 _atom_site_fract_x
 _atom_site_fract_y
 _atom_site_fract_z
 _atom_site_occupancy
  C  1  1  0.20322850  0.66912250  0.92217900  1
  C  2  1  0.23605200  0.70046300  0.89180400  1
  C  3  1  0.27974300  0.68505300  0.87497500  1
  C  4  1  0.29031900  0.63744000  0.88985300  1
  C  5  1  0.26156050  0.60799150  0.92138100  1
  C  6  1  0.21696050  0.62360950  0.93682300  1
  C  10  1  0.16078300  0.68618200  0.93931800  1
  C  11  1  0.18400900  0.75017500  0.94980700  1
  C  12  1  0.14501050  0.76795750  0.96934100  1
  C  13  1  0.08155150  0.72078050  0.97787900  1
  C  14  1  0.05554350  0.65643550  0.96676900  1
  C  15  1  0.09660450  0.63990550  0.94788600  1
  C  19  1  0.78797300  0.32831700  0.41867100  1
  C  20  1  0.75453150  0.29705850  0.38792700  1
  C  21  1  0.71276000  0.31453700  0.37097600  1
  C  22  1  0.70455150  0.36396250  0.38616600  1
  C  23  1  0.73390600  0.39350000  0.41807800  1
  C  24  1  0.77688000  0.37596200  0.43351300  1
  C  28  1  0.82766500  0.30863800  0.43621600  1
  C  29  1  0.80052850  0.24486150  0.44699800  1
  C  30  1  0.83658400  0.22498900  0.46734800  1
  C  31  1  0.90113850  0.26991950  0.47634700  1
  C  32  1  0.93073850  0.33394950  0.46523200  1
  C  33  1  0.89260950  0.35259750  0.44546400  1
  C  37  1  0.52123100  0.30918100  0.08417500  1
  C  38  1  0.52895400  0.28679900  0.11651200  1
  C  39  1  0.59104300  0.30373400  0.13010800  1
  C  40  1  0.64552750  0.34350350  0.10965700  1
  C  41  1  0.63937350  0.36227450  0.07606500  1
  C  42  1  0.57675450  0.34564550  0.06392900  1
  C  46  1  0.45873650  0.29398050  0.07165300  1
  C  47  1  0.40982750  0.22943150  0.06840400  1
  C  48  1  0.34965050  0.21249550  0.05260400  1
  C  49  1  0.33814850  0.26107550  0.04052400  1
  C  50  1  0.38630200  0.32592100  0.04321700  1
  C  51  1  0.44645950  0.34189050  0.05877300  1
  C  55  1  0.46579250  0.67948150  0.58808900  1
  C  56  1  0.45839300  0.70242900  0.62070500  1
  C  57  1  0.39638700  0.68373300  0.63472200  1
  C  58  1  0.34159850  0.64129550  0.61455300  1
  C  59  1  0.34728300  0.62156800  0.58082800  1
  C  60  1  0.40980300  0.63996500  0.56818100  1
  C  64  1  0.52832100  0.69883000  0.57436100  1
  C  65  1  0.57247300  0.76449200  0.57036400  1
  C  66  1  0.63176800  0.78502700  0.55308000  1
  C  67  1  0.64743100  0.73920000  0.54027000  1
  C  68  1  0.60399000  0.67325100  0.54359900  1
  C  69  1  0.54441500  0.65360200  0.56058400  1
  C  73  1  0.30712550  0.71095850  0.84201800  1
  C  74  1  0.37162500  0.72756000  0.83238000  1
  C  76  1  0.34662150  0.72841650  0.77227000  1
  C  77  1  0.28485300  0.72050800  0.78066900  1
  C  78  1  0.26551250  0.71077550  0.81556300  1
  C  80  1  0.36307650  0.72657550  0.73735900  1
  C  81  1  0.43085650  0.71296050  0.69631200  1
  C  82  1  0.38826600  0.70441500  0.66847700  1
  C  83  1  0.33401700  0.71225400  0.67632700  1
  C  85  1  0.31936450  0.72087950  0.71065600  1
  C  86  1  0.26056850  0.71924150  0.71914800  1
  C  87  1  0.24276050  0.71754150  0.75396200  1
  C  92  1  0.42524650  0.73989950  0.85653700  1
  C  96  1  0.68443050  0.28800350  0.33785600  1
  C  97  1  0.62030500  0.27291800  0.32808300  1
  C  99  1  0.64339100  0.26741500  0.26806100  1
  C  100  1  0.70459750  0.27395250  0.27658400  1
  C  101  1  0.72475050  0.28528450  0.31151000  1
  C  103  1  0.62622150  0.26728250  0.23310600  1
  C  104  1  0.55849750  0.27994850  0.19186800  1
  C  105  1  0.59966600  0.28513200  0.16402500  1
  C  106  1  0.65318000  0.27625300  0.17204100  1
  C  108  1  0.66853650  0.26970750  0.20646000  1
  C  109  1  0.72677900  0.27031900  0.21511300  1
  C  110  1  0.74532500  0.27378100  0.24996400  1
  C  115  1  0.56770700  0.26362900  0.35209300  1
  C  119  1  0.30948550  0.14867850  0.04118600  1
  C  120  1  0.27900350  0.09607250  0.06379100  1
  C  122  1  0.24845200  0.02255700  0.01562100  1
  C  123  1  0.27739950  0.07343050  0.99196300  1
  C  124  1  0.30755900  0.13627900  0.00519400  1
  C  126  1  0.22067850  0.95900850  0.00343800  1
  C  127  1  0.16837050  0.84786250  0.01565200  1
  C  128  1  0.16952550  0.83208950  0.98043700  1
  C  129  1  0.19650300  0.88223400  0.95644600  1
  C  131  1  0.22220250  0.94618250  0.96757000  1
  C  132  1  0.25016150  0.99708350  0.94414800  1
  C  133  1  0.27757350  0.06040050  0.95628300  1
  C  138  1  0.27588750  0.10086450  0.10187600  1
  C  142  1  0.37678050  0.37208150  0.02559800  1
  C  143  1  0.36940350  0.42049050  0.04292700  1
  C  145  1  0.34247150  0.45180450  0.98928800  1
  C  146  1  0.35048550  0.40500750  0.97069300  1
  C  147  1  0.36812850  0.36582450  0.98924400  1
  C  149  1  0.32221350  0.49011550  0.97176400  1
  C  150  1  0.29345650  0.57216350  0.97382800  1
  C  151  1  0.27965650  0.56627950  0.93792100  1
  C  152  1  0.28819800  0.52009500  0.91910200  1
  C  154  1  0.30958950  0.48170850  0.93560500  1
  C  155  1  0.31844650  0.43551050  0.91725400  1
  C  156  1  0.33891450  0.39752350  0.93466400  1
  C  161  1  0.37548700  0.43077200  0.08087400  1
  C  165  1  0.69547750  0.40050050  0.05594300  1
  C  166  1  0.74308650  0.38246850  0.04806200  1
  C  168  1  0.80900950  0.48175150  0.01940300  1
  C  169  1  0.76166500  0.50069800  0.02495400  1
  C  170  1  0.70536950  0.45968050  0.04347000  1
  C  172  1  0.86814850  0.52344150  0.00326700  1
  C  173  1  0.97560000  0.54857000  0.98743700  1
  C  174  1  0.99086900  0.61009300  0.97616400  1
  C  175  1  0.94039950  0.62568750  0.97741000  1
  C  177  1  0.87936300  0.58367000  0.99159900  1
  C  178  1  0.83086750  0.60111450  0.99580800  1
  C  179  1  0.77271700  0.56021000  0.01272900  1
  C  184  1  0.73682250  0.31967450  0.05621500  1
  C  188  1  0.66666133  0.84857433  0.54135900  1
  C  189  1  0.69907450  0.90272550  0.56364700  1
  C  191  1  0.72381800  0.97284600  0.51539900  1
  C  192  1  0.69195300  0.92031600  0.49212100  1
  C  193  1  0.66362400  0.85840500  0.50555900  1
  C  195  1  0.75196800  0.03555900  0.50289600  1
  C  196  1  0.81046900  0.14767300  0.51423200  1
  C  197  1  0.80800300  0.16125200  0.47899100  1
  C  198  1  0.77620000  0.10929500  0.45553100  1
  C  200  1  0.74803150  0.04595650  0.46709700  1
  C  201  1  0.71628250  0.99337350  0.44411900  1
  C  202  1  0.68840300  0.93087000  0.45656600  1
  C  207  1  0.70705300  0.90067400  0.60149800  1
  C  211  1  0.61691800  0.62890400  0.52555700  1
  C  212  1  0.62719450  0.58246050  0.54238600  1
  C  214  1  0.65437000  0.55110500  0.48831600  1
  C  215  1  0.64408350  0.59624650  0.47021900  1
  C  216  1  0.62478100  0.63435000  0.48921900  1
  C  218  1  0.67518250  0.51314050  0.47027600  1
  C  219  1  0.70465300  0.43163600  0.47122000  1
  C  220  1  0.71710050  0.43630950  0.43524900  1
  C  221  1  0.70781250  0.48194650  0.41705100  1
  C  223  1  0.68650750  0.52048150  0.43411900  1
  C  224  1  0.67597600  0.56545200  0.41630900  1
  C  225  1  0.65461800  0.60286000  0.43420400  1
  C  230  1  0.62302500  0.57345100  0.58028400  1
  C  234  1  0.29095450  0.58316950  0.56038000  1
  C  235  1  0.24475250  0.60261750  0.55201700  1
  C  237  1  0.17742550  0.50303050  0.52240400  1
  C  238  1  0.22318800  0.48239300  0.52862500  1
  C  239  1  0.27973350  0.52305650  0.54776700  1
  C  241  1  0.11832800  0.46228800  0.50532600  1
  C  242  1  0.01290500  0.44086800  0.48739700  1
  C  243  1  0.99568350  0.37841250  0.47589300  1
  C  244  1  0.04409900  0.36016200  0.47833600  1
  C  246  1  0.10519450  0.40095950  0.49356700  1
  C  247  1  0.15198200  0.38156100  0.49862600  1
  C  248  1  0.21030700  0.42176400  0.51630200  1
  C  253  1  0.25254100  0.66626000  0.56053000  1
  H  7  1  0.22708250  0.73436150  0.88146700  1
  H  8  1  0.19490250  0.60232750  0.95946400  1
  H  9  1  0.32088000  0.62481800  0.87779400  1
  H  16  1  0.23102900  0.78374800  0.94463800  1
  H  17  1  0.05404250  0.73390550  0.99266700  1
  H  18  1  0.07932250  0.59370450  0.93964700  1
  H  25  1  0.76146150  0.26153250  0.37749800  1
  H  26  1  0.79930800  0.39706900  0.45645500  1
  H  27  1  0.67497200  0.37759800  0.37411700  1
  H  34  1  0.75277400  0.21326500  0.44152400  1
  H  35  1  0.92667200  0.25555000  0.49169900  1
  H  36  1  0.91247550  0.39870250  0.43727200  1
  H  43  1  0.48842550  0.25865850  0.13061200  1
  H  44  1  0.57148250  0.35961750  0.03977400  1
  H  45  1  0.69121950  0.36102950  0.11970100  1
  H  52  1  0.42019400  0.19420900  0.07488900  1
  H  53  1  0.29577850  0.24870250  0.02745800  1
  H  54  1  0.48260250  0.38860850  0.05939100  1
  H  61  1  0.49914050  0.73305550  0.63446900  1
  H  62  1  0.41461800  0.62595300  0.54372100  1
  H  63  1  0.29608250  0.62339950  0.62463700  1
  H  70  1  0.55901400  0.79748700  0.57752700  1
  H  71  1  0.68919350  0.75408850  0.52634600  1
  H  72  1  0.51121000  0.60593800  0.56157500  1
  H  79  1  0.21849300  0.69832400  0.82115200  1
  H  88  1  0.22792000  0.71376700  0.70021800  1
  H  89  1  0.19786850  0.71155550  0.75957800  1
  H  90  1  0.30231350  0.70790350  0.65710800  1
  H  91  1  0.47027350  0.70688650  0.69300700  1
  H  93  1  0.41280250  0.74213350  0.88347200  1
  H  94  1  0.46757750  0.78574850  0.85066100  1
  H  95  1  0.43832700  0.70250200  0.85353500  1
  H  102  1  0.77145900  0.29650900  0.31722700  1
  H  111  1  0.75837150  0.27319250  0.19622700  1
  H  112  1  0.78978200  0.27867500  0.25566500  1
  H  113  1  0.68383850  0.27819450  0.15285000  1
  H  114  1  0.51979700  0.28711100  0.18851900  1
  H  116  1  0.58031050  0.26225750  0.37906500  1
  H  117  1  0.52428300  0.21824000  0.34611300  1
  H  118  1  0.55630400  0.30206300  0.34904300  1
  H  125  1  0.33116650  0.17335550  0.98844100  1
  H  134  1  0.25176000  0.98856600  0.91825500  1
  H  135  1  0.29871500  0.09677400  0.93898900  1
  H  136  1  0.19735650  0.87210650  0.93068400  1
  H  137  1  0.15009200  0.81340400  0.03408500  1
  H  139  1  0.29690750  0.15002050  0.11126600  1
  H  140  1  0.30186550  0.07919650  0.11396900  1
  H  141  1  0.22531950  0.07529850  0.11001600  1
  H  148  1  0.37271900  0.33088700  0.97620450  1
  H  157  1  0.30961850  0.42882950  0.89118900  1
  H  158  1  0.34423100  0.36373300  0.92094500  1
  H  159  1  0.27814250  0.51381350  0.89312700  1
  H  160  1  0.29009050  0.60572950  0.98878700  1
  H  162  1  0.34117500  0.38708000  0.09385700  1
  H  163  1  0.36543500  0.46873800  0.08884900  1
  H  164  1  0.42463050  0.44430350  0.08925000  1
  H  171  1  0.67205150  0.47405850  0.04876500  1
  H  180  1  0.83850700  0.64466300  0.98784300  1
  H  181  1  0.73904900  0.57462600  0.01649300  1
  H  182  1  0.94876900  0.66927200  0.96904700  1
  H  183  1  0.00983100  0.53445700  0.98793500  1
  H  185  1  0.69024950  0.28134950  0.04675300  1
  H  186  1  0.74030650  0.31509450  0.08401500  1
  H  187  1  0.77511350  0.31365150  0.04400000  1
  H  194  1  0.63896050  0.82004950  0.48909400  1
  H  203  1  0.71302200  0.00012000  0.41826700  1
  H  204  1  0.66531850  0.89329750  0.43953800  1
  H  205  1  0.77433050  0.11762350  0.42974400  1
  H  206  1  0.83211400  0.18344400  0.53236000  1
  H  208  1  0.68711250  0.85222550  0.61103800  1
  H  209  1  0.68277650  0.92335950  0.61471100  1
  H  210  1  0.75857050  0.92670750  0.60819500  1
  H  217  1  0.61792750  0.66768650  0.47646300  1
  H  226  1  0.68372350  0.57130050  0.39023700  1
  H  227  1  0.64766250  0.63546350  0.42082800  1
  H  228  1  0.71677100  0.48740600  0.39105700  1
  H  229  1  0.70838250  0.39847650  0.48581400  1
  H  231  1  0.65598850  0.61832750  0.59345400  1
  H  232  1  0.63622200  0.53770300  0.58779900  1
  H  233  1  0.57362400  0.55745700  0.58893700  1
  H  240  1  0.31222000  0.50788000  0.55338200  1
  H  249  1  0.14300150  0.33723050  0.49060000  1
  H  250  1  0.24272600  0.40602100  0.52057500  1
  H  251  1  0.03417350  0.31571250  0.46994200  1
  H  252  1  0.98008350  0.45678950  0.48724700  1
  H  254  1  0.29947250  0.70362850  0.55147900  1
  H  255  1  0.24933750  0.67176650  0.58835000  1
  H  256  1  0.21482650  0.67292650  0.54819300  1
  N  75  1  0.38722550  0.73322650  0.79830200  1
  N  84  1  0.41686900  0.72289300  0.72904200  1
  N  98  1  0.60397400  0.26557100  0.29398200  1
  N  107  1  0.57309600  0.27198700  0.22467600  1
  N  121  1  0.25023100  0.03607300  0.04995800  1
  N  130  1  0.19404350  0.90970450  0.02582100  1
  N  144  1  0.35248800  0.45745300  0.02407000  1
  N  153  1  0.31373550  0.53475050  0.98920200  1
  N  167  1  0.79715400  0.42389400  0.03067100  1
  N  176  1  0.91629700  0.50843000  0.00051100  1
  N  190  1  0.72599200  0.96173900  0.54960300  1
  N  199  1  0.78266550  0.08645450  0.52482500  1
  N  213  1  0.64540950  0.54633350  0.52308700  1
  N  222  1  0.68464350  0.46928550  0.48715900  1
  N  236  1  0.19062850  0.56170350  0.53387600  1
  N  245  1  0.07207350  0.47960850  0.50162200  1
