# generated using pymatgen
data_Cr3H13C20(ClO5)3
_symmetry_space_group_name_H-M   'P 1'
_cell_length_a   10.90965000
_cell_length_b   10.95744822
_cell_length_c   18.67582000
_cell_angle_alpha   89.29593831
_cell_angle_beta   89.50332000
_cell_angle_gamma   60.31801497
_symmetry_Int_Tables_number   1
_chemical_formula_structural   Cr3H13C20(ClO5)3
_chemical_formula_sum   'Cr6 H26 C40 Cl6 O30'
_cell_volume   1939.45029717
_cell_formula_units_Z   2
loop_
 _symmetry_equiv_pos_site_id
 _symmetry_equiv_pos_as_xyz
  1  'x, y, z'
loop_
 _atom_site_type_symbol
 _atom_site_label
 _atom_site_symmetry_multiplicity
 _atom_site_fract_x
 _atom_site_fract_y
 _atom_site_fract_z
 _atom_site_occupancy
  Cr  Cr0  1  0.20894000  0.39805000  0.49852000  1
  Cr  Cr1  1  0.89320000  0.70798000  0.49837000  1
  Cr  Cr2  1  0.89792000  0.39394000  0.50315000  1
  Cr  Cr3  1  0.12360000  0.93845000  0.99106000  1
  Cr  Cr4  1  0.43679000  0.93703000  0.00525000  1
  Cr  Cr5  1  0.43645000  0.62576000  0.99859000  1
  H  H6  1  0.50057000  0.90659000  0.20801000  1
  H  H7  1  0.84872000  0.43583000  0.29971000  1
  H  H8  1  0.52357000  0.54472000  0.21264000  1
  H  H9  1  0.58301000  0.51380000  0.32790000  1
  H  H10  1  0.07476000  0.02243000  0.20018000  1
  H  H11  1  0.27289000  0.11782000  0.30560000  1
  H  H12  1  0.34461000  0.49488000  0.17809000  1
  H  H13  1  0.26041000  0.44383000  0.29822000  1
  H  H14  1  0.68281000  0.83850000  0.19060000  1
  H  H15  1  0.12559000  0.76737000  0.29879000  1
  H  H16  1  0.79299000  0.44829000  0.84643000  1
  H  H17  1  0.85149000  0.65953000  0.70711000  1
  H  H18  1  0.09007000  0.18239000  0.80299000  1
  H  H19  1  0.09407000  0.15043000  0.69462000  1
  H  H20  1  0.16339000  0.88551000  0.78573000  1
  H  H21  1  0.71978000  0.82673000  0.31053000  1
  H  H22  1  0.02403000  0.88119000  0.67554000  1
  H  H23  1  0.30281000  0.60056000  0.67043000  1
  H  H24  1  0.53836000  0.87884000  0.32869000  1
  H  H25  1  0.46149000  0.69423000  0.34607000  1
  H  H26  1  0.84651000  0.57752000  0.16896000  1
  H  H27  1  0.89636000  0.56824000  0.28709000  1
  H  H28  1  0.88794000  0.15235000  0.29289000  1
  H  H29  1  0.09603000  0.33372000  0.22774000  1
  H  H30  1  0.76924000  0.34370000  0.74875000  1
  H  H31  1  0.35307000  0.83293000  0.24961000  1
  C  C32  1  0.11917000  0.64600000  0.39175000  1
  C  C33  1  0.77266000  0.55497000  0.20019000  1
  C  C34  1  0.61952000  0.67607000  0.18885000  1
  C  C35  1  0.67777000  0.65021000  0.32462000  1
  C  C36  1  0.55312000  0.62334000  0.31202000  1
  C  C37  1  0.80868000  0.54506000  0.27997000  1
  C  C38  1  0.17226000  0.14860000  0.33168000  1
  C  C39  1  0.14208000  0.16794000  0.17143000  1
  C  C40  1  0.09328000  0.10594000  0.21815000  1
  C  C41  1  0.07105000  0.13990000  0.29519000  1
  C  C42  1  0.16133000  0.66221000  0.31981000  1
  C  C43  1  0.72120000  0.62387000  0.39957000  1
  C  C44  1  0.13758000  0.66122000  0.15915000  1
  C  C45  1  0.24033000  0.56264000  0.20013000  1
  C  C46  1  0.22239000  0.54923000  0.27696000  1
  C  C47  1  0.82124000  0.58555000  0.68789000  1
  C  C48  1  0.70185000  0.66681000  0.83922000  1
  C  C49  1  0.77601000  0.53594000  0.81196000  1
  C  C50  1  0.79876000  0.50361000  0.73415000  1
  C  C51  1  0.18651000  0.14327000  0.66896000  1
  C  C52  1  0.18734000  0.16963000  0.82448000  1
  C  C53  1  0.29541000  0.15261000  0.78193000  1
  C  C54  1  0.14504000  0.22559000  0.39882000  1
  C  C55  1  0.30240000  0.11765000  0.70559000  1
  C  C56  1  0.19962000  0.68296000  0.65259000  1
  C  C57  1  0.18842000  0.68497000  0.81180000  1
  C  C58  1  0.16655000  0.79078000  0.76623000  1
  C  C59  1  0.12511000  0.79470000  0.69271000  1
  C  C60  1  0.19463000  0.10185000  0.10240000  1
  C  C61  1  0.58383000  0.68987000  0.11257000  1
  C  C62  1  0.17372000  0.70596000  0.09221000  1
  C  C63  1  0.21696000  0.10989000  0.89604000  1
  C  C64  1  0.62012000  0.68861000  0.90511000  1
  C  C65  1  0.13354000  0.65192000  0.59470000  1
  C  C66  1  0.19807000  0.71098000  0.88606000  1
  C  C67  1  0.81023000  0.58008000  0.61000000  1
  C  C68  1  0.15656000  0.22135000  0.60233000  1
  C  C69  1  0.60678000  0.81488000  0.21853000  1
  C  C70  1  0.63469000  0.80155000  0.29949000  1
  C  C71  1  0.51421000  0.64447000  0.23190000  1
  Cl  Cl72  1  0.96160000  0.76005000  0.18971000  1
  Cl  Cl73  1  0.66528000  0.82273000  0.79289000  1
  Cl  Cl74  1  0.43434000  0.17652000  0.81508000  1
  Cl  Cl75  1  0.46665000  0.05492000  0.66048000  1
  Cl  Cl76  1  0.17570000  0.53573000  0.78895000  1
  Cl  Cl77  1  0.79988000  0.38830000  0.16948000  1
  O  O78  1  0.23661000  0.25628000  0.41970000  1
  O  O79  1  0.77999000  0.69537000  0.57490000  1
  O  O80  1  0.75972000  0.50439000  0.58402000  1
  O  O81  1  0.03162000  0.27782000  0.57765000  1
  O  O82  1  0.00002000  0.49999000  0.50002000  1
  O  O83  1  0.08494000  0.82587000  0.06768000  1
  O  O84  1  0.12697000  0.05396000  0.06856000  1
  O  O85  1  0.31649000  0.07644000  0.08354000  1
  O  O86  1  0.54634000  0.80655000  0.08231000  1
  O  O87  1  0.56906000  0.59386000  0.08470000  1
  O  O88  1  0.29915000  0.63608000  0.06745000  1
  O  O89  1  0.19198000  0.52719000  0.42206000  1
  O  O90  1  0.10255000  0.82920000  0.90706000  1
  O  O91  1  0.14331000  0.05704000  0.91967000  1
  O  O92  1  0.33411000  0.07976000  0.92292000  1
  O  O93  1  0.56267000  0.80963000  0.93342000  1
  O  O94  1  0.58668000  0.59718000  0.92408000  1
  O  O95  1  0.31547000  0.63917000  0.91856000  1
  O  O96  1  0.33227000  0.83375000  0.99830000  1
  O  O97  1  0.99965000  0.73899000  0.41573000  1
  O  O98  1  0.77263000  0.69478000  0.42563000  1
  O  O99  1  0.75178000  0.50375000  0.42300000  1
  O  O100  1  0.02425000  0.27723000  0.42838000  1
  O  O101  1  0.24455000  0.25692000  0.58072000  1
  O  O102  1  0.19934000  0.52778000  0.57132000  1
  O  O103  1  0.00759000  0.73963000  0.57675000  1
  O  O104  1  0.94847000  0.16241000  0.32895000  1
  O  O105  1  0.16224000  0.27918000  0.18887000  1
  O  O106  1  0.79021000  0.39013000  0.70838000  1
  O  O107  1  0.37287000  0.74973000  0.22078000  1
