# generated using pymatgen
data_H9C17(NO)4
_symmetry_space_group_name_H-M   'P 1'
_cell_length_a   15.71255000
_cell_length_b   15.71255000
_cell_length_c   62.85020000
_cell_angle_alpha   90.00000000
_cell_angle_beta   90.00000000
_cell_angle_gamma   90.00000000
_symmetry_Int_Tables_number   1
_chemical_formula_structural   H9C17(NO)4
_chemical_formula_sum   'H72 C136 N32 O32'
_cell_volume   15516.72307538
_cell_formula_units_Z   8
loop_
 _symmetry_equiv_pos_site_id
 _symmetry_equiv_pos_as_xyz
  1  'x, y, z'
loop_
 _atom_site_type_symbol
 _atom_site_label
 _atom_site_symmetry_multiplicity
 _atom_site_fract_x
 _atom_site_fract_y
 _atom_site_fract_z
 _atom_site_occupancy
  C  1  1  0.03503300  0.97442500  0.12091800  1
  C  2  1  0.02305000  0.99515100  0.09890500  1
  C  3  1  0.01914600  0.93340100  0.08242100  1
  C  4  1  0.02587400  0.84662900  0.08793500  1
  C  5  1  0.03810000  0.82187900  0.10927600  1
  C  6  1  0.04360700  0.88564300  0.12511800  1
  C  9  1  0.03843900  0.03705900  0.13781600  1
  C  10  1  0.04513800  0.12598700  0.13348400  1
  C  11  1  0.04878100  0.18862300  0.14960300  1
  C  12  1  0.04580000  0.16338300  0.17111600  1
  C  13  1  0.04029500  0.07665700  0.17665500  1
  C  14  1  0.03591100  0.01571100  0.16002000  1
  C  25  1  0.02881000  0.02515700  0.62122300  1
  C  26  1  0.00810900  0.01501300  0.59914400  1
  C  27  1  0.06993400  0.01230800  0.58267000  1
  C  28  1  0.15669600  0.01851100  0.58823000  1
  C  29  1  0.18140800  0.02887800  0.60962900  1
  C  30  1  0.11761200  0.03321500  0.62547900  1
  C  33  1  0.96619000  0.02738400  0.63814000  1
  C  34  1  0.87723500  0.03404800  0.63384800  1
  C  35  1  0.81462600  0.03658600  0.64998700  1
  C  36  1  0.83990900  0.03243600  0.67148600  1
  C  37  1  0.92666400  0.02693200  0.67699500  1
  C  38  1  0.98756100  0.02365300  0.66033200  1
  C  49  1  0.98353000  0.97412700  0.88864200  1
  C  50  1  0.99506800  0.99464800  0.91068000  1
  C  51  1  0.99887100  0.93263400  0.92708900  1
  C  52  1  0.99262700  0.84592900  0.92150200  1
  C  53  1  0.98019100  0.82150000  0.90014800  1
  C  54  1  0.97479200  0.88543600  0.88434400  1
  C  57  1  0.98068200  0.03696000  0.87180000  1
  C  58  1  0.97295500  0.12573800  0.87620600  1
  C  59  1  0.97011700  0.18860000  0.86013400  1
  C  60  1  0.97496700  0.16374000  0.83861800  1
  C  61  1  0.98154700  0.07714500  0.83302400  1
  C  62  1  0.98520400  0.01590900  0.84960300  1
  C  73  1  0.99389100  0.02823000  0.38839800  1
  C  74  1  0.01446800  0.02150900  0.41057300  1
  C  75  1  0.95256700  0.02168200  0.42703900  1
  C  76  1  0.86592300  0.02846600  0.42141500  1
  C  77  1  0.84128300  0.03464400  0.39991400  1
  C  78  1  0.90508900  0.03549200  0.38403400  1
  C  81  1  0.05662000  0.02881500  0.37149300  1
  C  82  1  0.14553600  0.03633900  0.37577000  1
  C  83  1  0.20824000  0.03756000  0.35964600  1
  C  84  1  0.18313700  0.03115900  0.33817400  1
  C  85  1  0.09643800  0.02483100  0.33267700  1
  C  86  1  0.03542300  0.02266800  0.34931900  1
  C  97  1  0.03152100  0.00068200  0.23186600  1
  C  98  1  0.97644600  0.94712000  0.24379200  1
  C  99  1  0.96964600  0.95315300  0.26643500  1
  C  100  1  0.01971500  0.01412600  0.27764900  1
  C  101  1  0.07474200  0.06717200  0.26572200  1
  C  102  1  0.08062100  0.06045400  0.24339800  1
  C  104  1  0.86728800  0.83938400  0.26587800  1
  C  105  1  0.87319800  0.83412700  0.24353900  1
  C  111  1  0.82638500  0.77653900  0.23159800  1
  C  115  1  0.04116300  0.99264700  0.20973200  1
  C  117  1  0.01367400  0.02507300  0.29968700  1
  C  119  1  0.00376800  0.01725900  0.73207600  1
  C  120  1  0.06070800  0.96486000  0.74378600  1
  C  121  1  0.05551400  0.95662500  0.76641300  1
  C  122  1  0.99192400  0.00247300  0.77784000  1
  C  123  1  0.93553900  0.05488900  0.76614200  1
  C  124  1  0.94148300  0.06224100  0.74383200  1
  C  126  1  0.17522800  0.86135100  0.76544500  1
  C  127  1  0.17982300  0.86873300  0.74312600  1
  C  133  1  0.23996500  0.82591700  0.73102400  1
  C  137  1  0.01102600  0.02882100  0.70996000  1
  C  139  1  0.98205700  0.99509700  0.79988000  1
  C  141  1  0.01805200  0.00649500  0.02768000  1
  C  142  1  0.09078000  0.01039200  0.01429700  1
  C  143  1  0.08378500  0.00986300  0.99160500  1
  C  144  1  0.00174500  0.00549000  0.98194100  1
  C  145  1  0.92972600  0.99960600  0.99542700  1
  C  146  1  0.93766500  0.99994100  0.01776000  1
  C  148  1  0.23612800  0.02108200  0.98923900  1
  C  149  1  0.24302200  0.02080300  0.01160700  1
  C  155  1  0.32048600  0.02653100  0.02209500  1
  C  159  1  0.02264900  0.01623300  0.04980000  1
  C  161  1  0.98962300  0.01274500  0.95994400  1
  C  163  1  0.00075800  0.01570400  0.52763900  1
  C  164  1  0.99083000  0.09085600  0.51534100  1
  C  165  1  0.00180200  0.09097000  0.49274900  1
  C  166  1  0.02284700  0.01366000  0.48203700  1
  C  167  1  0.03346300  0.93922800  0.49447700  1
  C  168  1  0.02244000  0.94015000  0.51672700  1
  C  170  1  0.97248100  0.24123900  0.49252700  1
  C  171  1  0.96209800  0.24109200  0.51480800  1
  C  177  1  0.94361900  0.31409700  0.52632100  1
  C  181  1  0.98763500  0.01359800  0.54966400  1
  C  183  1  0.03542300  0.00954300  0.45997800  1
  C  185  1  0.06111600  0.60030100  0.13107300  1
  C  186  1  0.08097700  0.55387600  0.14981100  1
  C  187  1  0.08649000  0.46298000  0.15001100  1
  C  188  1  0.06682500  0.41634600  0.13100700  1
  C  189  1  0.04967800  0.46381900  0.11230400  1
  C  190  1  0.04698000  0.55312300  0.11229200  1
  C  192  1  0.13102800  0.47120100  0.18680100  1
  C  193  1  0.12172300  0.56020200  0.18671900  1
  C  199  1  0.13947800  0.61073800  0.20424900  1
  C  203  1  0.05729400  0.69040400  0.13101800  1
  C  205  1  0.06011400  0.32643600  0.12912300  1
  C  207  1  0.40301400  0.04994400  0.63151100  1
  C  208  1  0.44948600  0.06906200  0.65028900  1
  C  209  1  0.54038100  0.07452400  0.65048800  1
  C  210  1  0.58696200  0.05548800  0.63143800  1
  C  211  1  0.53945200  0.03902400  0.61270300  1
  C  212  1  0.45014200  0.03649100  0.61269000  1
  C  214  1  0.53226000  0.11813900  0.68734500  1
  C  215  1  0.44327500  0.10871900  0.68727100  1
  C  221  1  0.39290700  0.12646800  0.70483600  1
  C  225  1  0.31290900  0.04626600  0.63145700  1
  C  227  1  0.67685700  0.04881200  0.62953800  1
  C  229  1  0.95592500  0.59992000  0.87849500  1
  C  230  1  0.93522100  0.55321200  0.85986200  1
  C  231  1  0.92991600  0.46230500  0.85975200  1
  C  232  1  0.95031400  0.41598500  0.87875300  1
  C  233  1  0.96794400  0.46371800  0.89738300  1
  C  234  1  0.97073100  0.55302000  0.89729200  1
  C  236  1  0.88340600  0.46990200  0.82311400  1
  C  237  1  0.89232500  0.55894800  0.82310200  1
  C  243  1  0.87305500  0.60924500  0.80562700  1
  C  247  1  0.95996900  0.69001500  0.87844600  1
  C  249  1  0.95724200  0.32612400  0.88067500  1
  C  251  1  0.61967000  0.05387300  0.37796200  1
  C  252  1  0.57304400  0.07164700  0.35912900  1
  C  253  1  0.48214000  0.07688000  0.35894200  1
  C  254  1  0.43573300  0.05908500  0.37809300  1
  C  255  1  0.48338900  0.04419700  0.39688500  1
  C  256  1  0.57270000  0.04183700  0.39686900  1
  C  258  1  0.48992600  0.11831100  0.32192600  1
  C  259  1  0.57896300  0.10935700  0.32201500  1
  C  265  1  0.62923500  0.12664900  0.30440000  1
  C  269  1  0.70976400  0.04996500  0.37797800  1
  C  271  1  0.34587400  0.05226700  0.38005000  1
  H  7  1  0.01309000  0.05654600  0.09436500  1
  H  16  1  0.02789400  0.95432700  0.16471400  1
  H  17  1  0.07791000  0.77590600  0.06729000  1
  H  18  1  0.99251900  0.24203400  0.18968100  1
  H  19  1  0.05638400  0.86529900  0.14009800  1
  H  20  1  0.05110300  0.14727400  0.11827300  1
  H  31  1  0.94670600  0.00578000  0.59452600  1
  H  40  1  0.04894500  0.01549500  0.66499900  1
  H  41  1  0.22764200  0.07220200  0.56789300  1
  H  42  1  0.76139800  0.97798000  0.68987100  1
  H  43  1  0.13800800  0.04464900  0.64051800  1
  H  44  1  0.85588000  0.04075700  0.61866300  1
  H  55  1  0.00511500  0.05597900  0.91528600  1
  H  64  1  0.99501100  0.95472100  0.84490400  1
  H  65  1  0.94105400  0.77491900  0.94216200  1
  H  66  1  0.02954800  0.24320400  0.82050300  1
  H  67  1  0.96196500  0.86538500  0.86932700  1
  H  68  1  0.96556700  0.14667000  0.89141300  1
  H  79  1  0.07596800  0.01463000  0.41534300  1
  H  88  1  0.97420600  0.01315900  0.34465400  1
  H  89  1  0.79580700  0.08765400  0.44097100  1
  H  90  1  0.26211400  0.97495400  0.32024400  1
  H  91  1  0.88468200  0.04416600  0.36888200  1
  H  92  1  0.16684500  0.04452900  0.39090700  1
  H  107  1  0.12212900  0.09980400  0.23557800  1
  H  108  1  0.11122700  0.11206700  0.27324500  1
  H  110  1  0.90967500  0.89887500  0.29187700  1
  H  114  1  0.71501800  0.80800500  0.23997200  1
  H  116  1  0.02760700  0.93715300  0.20298300  1
  H  118  1  0.95699300  0.03670600  0.30604800  1
  H  129  1  0.89971800  0.10188500  0.73619300  1
  H  130  1  0.88884100  0.08844400  0.77383200  1
  H  132  1  0.11366400  0.89874100  0.79162000  1
  H  136  1  0.21420100  0.71243400  0.73870700  1
  H  138  1  0.06688100  0.01732200  0.70317500  1
  H  140  1  0.97320000  0.93774800  0.80614500  1
  H  151  1  0.88335500  0.99828500  0.02677400  1
  H  152  1  0.86976100  0.99712700  0.98904400  1
  H  154  1  0.15582900  0.01723400  0.96463000  1
  H  158  1  0.37705500  0.93154000  0.01014300  1
  H  160  1  0.06554500  0.05750000  0.05516900  1
  H  162  1  0.94044000  0.04777000  0.95512500  1
  H  173  1  0.02980900  0.88430300  0.52493900  1
  H  174  1  0.04874900  0.88261000  0.48734300  1
  H  176  1  0.99943100  0.17039600  0.46703400  1
  H  180  1  0.03720900  0.38281900  0.51827400  1
  H  182  1  0.94103200  0.04988300  0.55535400  1
  H  184  1  0.08007300  0.96987200  0.45475300  1
  H  195  1  0.03258900  0.58323400  0.09830200  1
  H  196  1  0.03589800  0.43358900  0.09826000  1
  H  198  1  0.12706100  0.36685100  0.16939800  1
  H  202  1  0.25500400  0.58130400  0.20861300  1
  H  204  1  0.06636500  0.72239700  0.14496600  1
  H  206  1  0.05042200  0.29983400  0.11444800  1
  H  217  1  0.41999200  0.02263600  0.59867100  1
  H  218  1  0.56965200  0.02581100  0.59862000  1
  H  220  1  0.63654900  0.11475300  0.66991200  1
  H  224  1  0.42016600  0.24261200  0.70881400  1
  H  226  1  0.28093900  0.05469800  0.64543500  1
  H  228  1  0.70346300  0.03976100  0.61484000  1
  H  239  1  0.98560800  0.58333600  0.91122200  1
  H  240  1  0.98220900  0.43369000  0.91142400  1
  H  242  1  0.88859300  0.36575700  0.84058900  1
  H  246  1  0.75763100  0.57852900  0.80165200  1
  H  248  1  0.95045400  0.72192000  0.86450000  1
  H  250  1  0.96700800  0.29957200  0.89535100  1
  H  261  1  0.60296300  0.02900000  0.41093400  1
  H  262  1  0.45330000  0.03193400  0.41103600  1
  H  264  1  0.38571500  0.11553600  0.33939900  1
  H  268  1  0.60027700  0.24208500  0.29989100  1
  H  270  1  0.74166300  0.05674900  0.36393400  1
  H  272  1  0.31932900  0.04426700  0.39479300  1
  N  21  1  0.03940100  0.05954300  0.19758700  1
  N  22  1  0.05638600  0.27328200  0.14594200  1
  N  23  1  0.04416500  0.73702000  0.11320900  1
  N  24  1  0.00676300  0.95075700  0.06173600  1
  N  45  1  0.94392100  0.02488900  0.69791800  1
  N  46  1  0.72995900  0.04427400  0.64635600  1
  N  47  1  0.26626900  0.03446700  0.61359700  1
  N  48  1  0.05312000  0.00210100  0.56190300  1
  N  69  1  0.98636200  0.06057300  0.81211700  1
  N  70  1  0.96193900  0.27316800  0.86383500  1
  N  71  1  0.97373500  0.73671100  0.89620200  1
  N  72  1  0.01175900  0.94993200  0.94773100  1
  N  93  1  0.07940600  0.01914600  0.31180200  1
  N  94  1  0.29285300  0.04593000  0.36325400  1
  N  95  1  0.75647900  0.04034600  0.39590300  1
  N  96  1  0.96917500  0.01934400  0.44794600  1
  N  103  1  0.91510700  0.89790400  0.27645600  1
  N  106  1  0.92765400  0.88821400  0.23369900  1
  N  125  1  0.11408700  0.90500600  0.77621700  1
  N  128  1  0.12232100  0.92023600  0.73349800  1
  N  147  1  0.15776500  0.01605400  0.98009900  1
  N  150  1  0.16981800  0.01587200  0.02297100  1
  N  169  1  0.99195600  0.16723400  0.48237900  1
  N  172  1  0.97185100  0.16577600  0.52505200  1
  N  191  1  0.11413600  0.42677300  0.16870400  1
  N  194  1  0.09835200  0.59663000  0.16811700  1
  N  213  1  0.57666000  0.10162200  0.66922300  1
  N  216  1  0.40677400  0.08594600  0.66863000  1
  N  235  1  0.90147700  0.42572900  0.84118000  1
  N  238  1  0.91664000  0.59568700  0.84159200  1
  N  257  1  0.44566200  0.10268800  0.34011800  1
  N  260  1  0.61562000  0.08773800  0.34072400  1
  O  8  1  0.01970000  0.78574500  0.07249600  1
  O  15  1  0.05115600  0.22339800  0.18680300  1
  O  32  1  0.21768400  0.01357300  0.57278300  1
  O  39  1  0.77991900  0.03680900  0.68719600  1
  O  56  1  0.99915400  0.78488900  0.93689400  1
  O  63  1  0.97078500  0.22402900  0.82297100  1
  O  80  1  0.80491700  0.02788000  0.43691200  1
  O  87  1  0.24321800  0.03396500  0.32246200  1
  O  109  1  0.81589600  0.78636500  0.27702400  1
  O  112  1  0.85972700  0.74520400  0.21586700  1
  O  113  1  0.74777500  0.78022100  0.23083800  1
  O  131  1  0.23136200  0.81261200  0.77638100  1
  O  134  1  0.26916500  0.86275700  0.71552000  1
  O  135  1  0.24005500  0.74740300  0.72973400  1
  O  153  1  0.30593000  0.02801400  0.97668700  1
  O  156  1  0.32353400  0.06656900  0.03875200  1
  O  157  1  0.37567300  0.97084600  0.02024300  1
  O  175  1  0.96283900  0.31358200  0.48103100  1
  O  178  1  0.89695900  0.30772500  0.54180100  1
  O  179  1  0.99428600  0.37431100  0.52716500  1
  O  197  1  0.15730600  0.42936300  0.20448600  1
  O  200  1  0.09463700  0.67308700  0.20735000  1
  O  201  1  0.21283500  0.61725600  0.21123200  1
  O  219  1  0.57407700  0.14428900  0.70504500  1
  O  222  1  0.33144000  0.08037200  0.70791500  1
  O  223  1  0.38472900  0.20006700  0.71149000  1
  O  241  1  0.85628800  0.42775700  0.80555500  1
  O  244  1  0.91694300  0.67215100  0.80238400  1
  O  245  1  0.79926900  0.61490900  0.79888100  1
  O  263  1  0.44791200  0.14320900  0.30414200  1
  O  266  1  0.69146100  0.08134200  0.30155500  1
  O  267  1  0.63629900  0.19985600  0.29740100  1
