# generated using pymatgen
data_H3C5N
_symmetry_space_group_name_H-M   'P 1'
_cell_length_a   16.27660000
_cell_length_b   24.42880000
_cell_length_c   24.42880000
_cell_angle_alpha   119.99600000
_cell_angle_beta   89.65150000
_cell_angle_gamma   89.65150000
_symmetry_Int_Tables_number   1
_chemical_formula_structural   H3C5N
_chemical_formula_sum   'H54 C90 N18'
_cell_volume   8411.70359670
_cell_formula_units_Z   18
loop_
 _symmetry_equiv_pos_site_id
 _symmetry_equiv_pos_as_xyz
  1  'x, y, z'
loop_
 _atom_site_type_symbol
 _atom_site_label
 _atom_site_symmetry_multiplicity
 _atom_site_fract_x
 _atom_site_fract_y
 _atom_site_fract_z
 _atom_site_occupancy
  C  1  1  0.06918700  0.33836625  0.16126350  1
  C  2  1  0.08020300  0.30073575  0.18914750  1
  C  3  1  0.06850000  0.23469675  0.15347950  1
  C  4  1  0.02935800  0.20913400  0.09464450  1
  C  5  1  0.01035700  0.24807900  0.06889350  1
  C  6  1  0.03698000  0.31132025  0.09980650  1
  C  13  1  0.40686350  0.85184950  0.19127700  1
  C  14  1  0.42484650  0.82311525  0.12612650  1
  C  15  1  0.41862200  0.85798650  0.09431200  1
  C  16  1  0.38131350  0.91853725  0.12630150  1
  C  17  1  0.35871500  0.94633025  0.19081400  1
  C  18  1  0.37747950  0.91468350  0.22404800  1
  C  25  1  0.73871200  0.82379900  0.66591400  1
  C  26  1  0.75306800  0.88897075  0.70380100  1
  C  27  1  0.74333300  0.91950700  0.77019150  1
  C  28  1  0.70522900  0.88647625  0.79692500  1
  C  29  1  0.68487300  0.82203700  0.75879300  1
  C  30  1  0.70783700  0.78985125  0.69421650  1
  C  37  1  0.57110300  0.66558925  0.84660550  1
  C  38  1  0.58607800  0.70364075  0.81947700  1
  C  39  1  0.57921950  0.77017525  0.85611850  1
  C  40  1  0.54280400  0.79713500  0.91687300  1
  C  41  1  0.52183400  0.75898075  0.94329700  1
  C  42  1  0.54221000  0.69394275  0.90963150  1
  C  49  1  0.90332000  0.16220275  0.82705500  1
  C  50  1  0.91331000  0.19025950  0.89261700  1
  C  51  1  0.90227200  0.15446375  0.92294300  1
  C  52  1  0.86529200  0.09463750  0.88929300  1
  C  53  1  0.84833400  0.06798375  0.82422200  1
  C  54  1  0.87388200  0.09986675  0.79236300  1
  C  61  1  0.23608300  0.19114800  0.34303900  1
  C  62  1  0.25753700  0.12656150  0.30744800  1
  C  63  1  0.24924400  0.09320900  0.24088800  1
  C  64  1  0.20691000  0.12231300  0.21192650  1
  C  65  1  0.18022500  0.18568750  0.24827150  1
  C  66  1  0.20052800  0.22126400  0.31253550  1
  C  73  1  0.11961900  0.50630975  0.22907550  1
  C  74  1  0.17502600  0.54740025  0.22341350  1
  C  75  1  0.17205900  0.61327200  0.26598900  1
  C  76  1  0.10279000  0.63785025  0.30715900  1
  C  77  1  0.04961000  0.59737050  0.31645650  1
  C  78  1  0.06363200  0.53150250  0.28065350  1
  C  82  1  0.23582400  0.65360275  0.26851700  1
  C  83  1  0.98220600  0.62037525  0.35904350  1
  C  84  1  0.11539600  0.44252900  0.18169550  1
  C  88  1  0.43387100  0.78203425  0.29073450  1
  C  89  1  0.50479000  0.77452400  0.31923350  1
  C  90  1  0.52322300  0.71536025  0.31408150  1
  C  91  1  0.46375700  0.66679950  0.28673150  1
  C  92  1  0.38485400  0.67822375  0.26981950  1
  C  93  1  0.37358000  0.73465175  0.26807350  1
  C  97  1  0.59994600  0.70409550  0.33380250  1
  C  98  1  0.31972500  0.63513300  0.25598700  1
  C  99  1  0.42463750  0.83345150  0.28082250  1
  C  103  1  0.77870500  0.72745700  0.49474150  1
  C  104  1  0.84119350  0.68832750  0.45241150  1
  C  105  1  0.84849100  0.68090800  0.39115350  1
  C  106  1  0.78141800  0.70099050  0.36857550  1
  C  107  1  0.71453400  0.73548950  0.40832750  1
  C  108  1  0.71886600  0.75421575  0.47301200  1
  C  112  1  0.92116800  0.65861750  0.35398000  1
  C  113  1  0.64443500  0.75106750  0.38502900  1
  C  114  1  0.77359300  0.73891325  0.55715300  1
  C  118  1  0.60669300  0.49394925  0.76845700  1
  C  119  1  0.66825200  0.45086350  0.76442950  1
  C  120  1  0.67655700  0.39049225  0.70944950  1
  C  121  1  0.61130600  0.36937100  0.66565900  1
  C  122  1  0.54502100  0.40968750  0.67166900  1
  C  123  1  0.54842000  0.47372825  0.71947700  1
  C  127  1  0.74874800  0.35294150  0.69489050  1
  C  128  1  0.47593100  0.38719225  0.63216350  1
  C  129  1  0.60124400  0.55561200  0.82069400  1
  C  133  1  0.94915600  0.23004900  0.72585500  1
  C  134  1  0.00504600  0.22530575  0.67931300  1
  C  135  1  0.00040100  0.26715175  0.65522750  1
  C  136  1  0.92923600  0.30623150  0.67059400  1
  C  137  1  0.87504400  0.31451100  0.71990500  1
  C  138  1  0.89032700  0.27972950  0.75077100  1
  C  142  1  0.06425800  0.27097300  0.61771650  1
  C  143  1  0.80642900  0.35591500  0.73900550  1
  C  144  1  0.94735500  0.18323000  0.74315500  1
  C  148  1  0.26250400  0.29462700  0.51079350  1
  C  149  1  0.33360500  0.32324750  0.54591300  1
  C  150  1  0.35196900  0.31865550  0.60011300  1
  C  151  1  0.29223600  0.29205500  0.62245500  1
  C  152  1  0.21333700  0.27494550  0.59485500  1
  C  153  1  0.20203600  0.27271175  0.53657800  1
  C  157  1  0.42903800  0.33771375  0.63008100  1
  C  158  1  0.14851900  0.26060300  0.62446200  1
  C  159  1  0.25271650  0.28347250  0.44914550  1
  H  7  1  0.01764200  0.16172525  0.06944150  1
  H  8  1  0.02482500  0.33944375  0.08072950  1
  H  9  1  0.10770500  0.32029050  0.23242150  1
  H  19  1  0.37277000  0.94329875  0.10314400  1
  H  20  1  0.36054100  0.93449825  0.27063600  1
  H  21  1  0.45008200  0.77859550  0.10337550  1
  H  31  1  0.69483500  0.90880950  0.84468700  1
  H  32  1  0.69374500  0.74310600  0.66633700  1
  H  33  1  0.77925400  0.91264775  0.68351300  1
  H  43  1  0.53436500  0.84507475  0.94296750  1
  H  44  1  0.52781400  0.66593100  0.92840700  1
  H  45  1  0.61122200  0.68316775  0.77495600  1
  H  55  1  0.85413100  0.06922450  0.91144650  1
  H  56  1  0.86265300  0.08060975  0.74510550  1
  H  57  1  0.93891300  0.23421550  0.91663100  1
  H  67  1  0.19717600  0.09795725  0.16420250  1
  H  68  1  0.18103100  0.26732950  0.33868750  1
  H  69  1  0.28654500  0.10563125  0.32943950  1
  H  79  1  0.09662600  0.68570000  0.33648050  1
  H  80  1  0.02208400  0.50217650  0.28447100  1
  H  81  1  0.21875000  0.52887625  0.18823550  1
  H  85  1  0.14031200  0.42735850  0.13775750  1
  H  86  1  0.96298000  0.59358750  0.37815550  1
  H  87  1  0.22349200  0.70114625  0.29338800  1
  H  94  1  0.47462100  0.62506225  0.28598050  1
  H  95  1  0.32048700  0.74159850  0.24992350  1
  H  96  1  0.54909500  0.80851500  0.33442550  1
  H  100  1  0.45574000  0.87453625  0.30799450  1
  H  101  1  0.33488700  0.59132800  0.24898150  1
  H  102  1  0.61745500  0.65799425  0.31714350  1
  H  109  1  0.78236700  0.69237850  0.32297250  1
  H  110  1  0.67079300  0.77947725  0.50236200  1
  H  111  1  0.88794000  0.67347250  0.46985800  1
  H  115  1  0.80279700  0.70944200  0.56943500  1
  H  116  1  0.61110200  0.79015400  0.41646250  1
  H  117  1  0.92728800  0.66722600  0.31714100  1
  H  124  1  0.61282300  0.32429475  0.62772050  1
  H  125  1  0.50073500  0.50344900  0.72413900  1
  H  126  1  0.71384300  0.46728125  0.79738500  1
  H  130  1  0.63042800  0.56707775  0.86200050  1
  H  131  1  0.44299100  0.41893650  0.62505000  1
  H  132  1  0.75679500  0.31732350  0.64901300  1
  H  139  1  0.92239400  0.33512150  0.65167500  1
  H  140  1  0.84877400  0.28291500  0.78398300  1
  H  141  1  0.05053800  0.19150775  0.66357750  1
  H  145  1  0.97514900  0.14019075  0.71520550  1
  H  146  1  0.78407500  0.37340900  0.78405900  1
  H  147  1  0.05114700  0.29524125  0.59467850  1
  H  154  1  0.30320900  0.29161500  0.66349700  1
  H  155  1  0.14908150  0.25417075  0.51184700  1
  H  156  1  0.37812500  0.33754900  0.52610450  1
  H  160  1  0.28361400  0.30998025  0.43411750  1
  H  161  1  0.16355200  0.25429025  0.66157750  1
  H  162  1  0.44566200  0.32145125  0.65989900  1
  N  10  1  0.09087050  0.39926050  0.19681800  1
  N  11  1  0.10084900  0.19490675  0.17111350  1
  N  12  1  0.96973200  0.22704325  0.01431950  1
  N  22  1  0.41630100  0.81679625  0.21943700  1
  N  23  1  0.45028350  0.83682150  0.03559150  1
  N  24  1  0.31818800  0.00183375  0.22386750  1
  N  34  1  0.75480000  0.79808850  0.60351600  1
  N  35  1  0.77416700  0.97753825  0.80911350  1
  N  36  1  0.64524500  0.78876775  0.78121900  1
  N  46  1  0.58489200  0.60298225  0.80898900  1
  N  47  1  0.61116900  0.80854225  0.83635250  1
  N  48  1  0.48340000  0.78137775  0.99985050  1
  N  58  1  0.92267400  0.19841750  0.80174500  1
  N  59  1  0.93338700  0.17329925  0.98078200  1
  N  60  1  0.80994050  0.01233450  0.78982900  1
  N  70  1  0.24719750  0.22131350  0.40605750  1
  N  71  1  0.28276000  0.03539000  0.20312350  1
  N  72  1  0.13642400  0.21597375  0.22507150  1
