# generated using pymatgen
data_AlH9(C5O2)3
_symmetry_space_group_name_H-M   'P 1'
_cell_length_a   17.32735000
_cell_length_b   17.38459000
_cell_length_c   23.91653000
_cell_angle_alpha   89.87529000
_cell_angle_beta   90.11638000
_cell_angle_gamma   89.83189000
_symmetry_Int_Tables_number   1
_chemical_formula_structural   AlH9(C5O2)3
_chemical_formula_sum   'Al16 H144 C240 O96'
_cell_volume   7204.28640711
_cell_formula_units_Z   16
loop_
 _symmetry_equiv_pos_site_id
 _symmetry_equiv_pos_as_xyz
  1  'x, y, z'
loop_
 _atom_site_type_symbol
 _atom_site_label
 _atom_site_symmetry_multiplicity
 _atom_site_fract_x
 _atom_site_fract_y
 _atom_site_fract_z
 _atom_site_occupancy
  Al  Al1  1  0.18034000  0.82457000  0.50201000  1.0
  Al  Al2  1  0.82473000  0.17794000  0.49770000  1.0
  Al  Al3  1  0.82034000  0.82022000  0.49745000  1.0
  Al  Al4  1  0.17939000  0.17966000  0.50288000  1.0
  Al  Al5  1  0.67842000  0.32475000  0.99869000  1.0
  Al  Al6  1  0.32283000  0.67596000  0.00137000  1.0
  Al  Al7  1  0.32133000  0.31981000  0.99853000  1.0
  Al  Al8  1  0.68252000  0.67993000  0.00082000  1.0
  Al  Al9  1  0.25743000  0.00243000  0.50426000  1.0
  Al  Al10  1  0.74894000  0.99984000  0.49588000  1.0
  Al  Al11  1  0.00160000  0.74958000  0.50032000  1.0
  Al  Al12  1  0.00119000  0.25637000  0.50282000  1.0
  Al  Al13  1  0.75648000  0.50137000  0.00180000  1.0
  Al  Al14  1  0.24528000  0.49847000  0.99985000  1.0
  Al  Al15  1  0.50087000  0.24606000  0.00010000  1.0
  Al  Al16  1  0.50158000  0.75068000  0.00245000  1.0
  H  H1  1  0.18199000  0.80327000  0.22651000  1.0
  H  H2  1  0.82027000  0.20085000  0.21971000  1.0
  H  H3  1  0.79765000  0.81679000  0.22294000  1.0
  H  H4  1  0.19440000  0.16916000  0.22631000  1.0
  H  H5  1  0.81116000  0.79808000  0.77501000  1.0
  H  H6  1  0.18519000  0.20328000  0.78133000  1.0
  H  H7  1  0.20419000  0.81760000  0.77776000  1.0
  H  H8  1  0.78902000  0.18931000  0.77792000  1.0
  H  H9  1  0.68172000  0.30294000  0.72371000  1.0
  H  H10  1  0.31716000  0.70606000  0.72373000  1.0
  H  H11  1  0.30067000  0.31434000  0.72054000  1.0
  H  H12  1  0.70186000  0.67803000  0.72518000  1.0
  H  H13  1  0.29873000  0.28999000  0.27695000  1.0
  H  H14  1  0.69134000  0.70779000  0.27696000  1.0
  H  H15  1  0.70668000  0.31058000  0.27675000  1.0
  H  H16  1  0.29201000  0.69170000  0.27704000  1.0
  H  H17  1  0.17238000  0.80476000  0.33173000  1.0
  H  H18  1  0.83409000  0.19976000  0.32488000  1.0
  H  H19  1  0.79857000  0.82523000  0.32841000  1.0
  H  H20  1  0.19679000  0.16485000  0.33177000  1.0
  H  H21  1  0.82184000  0.79698000  0.66979000  1.0
  H  H22  1  0.17403000  0.20409000  0.67612000  1.0
  H  H23  1  0.20219000  0.82971000  0.67249000  1.0
  H  H24  1  0.79187000  0.17597000  0.67301000  1.0
  H  H25  1  0.67027000  0.30594000  0.82867000  1.0
  H  H26  1  0.32713000  0.70330000  0.82907000  1.0
  H  H27  1  0.30167000  0.32751000  0.82566000  1.0
  H  H28  1  0.70024000  0.66995000  0.83061000  1.0
  H  H29  1  0.30987000  0.28786000  0.17175000  1.0
  H  H30  1  0.68348000  0.70722000  0.17148000  1.0
  H  H31  1  0.70851000  0.32044000  0.17145000  1.0
  H  H32  1  0.29531000  0.67714000  0.17196000  1.0
  H  H33  1  0.29068000  0.02125000  0.33549000  1.0
  H  H34  1  0.69897000  0.99371000  0.33311000  1.0
  H  H35  1  0.02097000  0.71613000  0.33212000  1.0
  H  H36  1  0.98867000  0.29887000  0.33664000  1.0
  H  H37  1  0.69761000  0.01058000  0.66175000  1.0
  H  H38  1  0.29702000  0.98998000  0.66915000  1.0
  H  H39  1  0.99369000  0.69723000  0.66671000  1.0
  H  H40  1  0.01150000  0.28906000  0.66896000  1.0
  H  H41  1  0.79241000  0.52017000  0.83237000  1.0
  H  H42  1  0.21037000  0.48616000  0.83194000  1.0
  H  H43  1  0.51674000  0.20507000  0.83300000  1.0
  H  H44  1  0.48513000  0.79258000  0.83326000  1.0
  H  H45  1  0.20868000  0.51311000  0.16379000  1.0
  H  H46  1  0.79220000  0.48525000  0.16875000  1.0
  H  H47  1  0.48781000  0.20972000  0.16412000  1.0
  H  H48  1  0.51098000  0.79742000  0.16699000  1.0
  H  H49  1  0.29991000  0.02023000  0.23084000  1.0
  H  H50  1  0.68528000  0.99412000  0.22877000  1.0
  H  H51  1  0.01970000  0.70618000  0.22770000  1.0
  H  H52  1  0.98626000  0.30415000  0.23187000  1.0
  H  H53  1  0.68521000  0.01101000  0.76607000  1.0
  H  H54  1  0.30904000  0.98904000  0.77352000  1.0
  H  H55  1  0.99611000  0.68415000  0.77100000  1.0
  H  H56  1  0.00940000  0.30200000  0.77303000  1.0
  H  H57  1  0.80412000  0.51757000  0.72813000  1.0
  H  H58  1  0.19960000  0.48878000  0.72763000  1.0
  H  H59  1  0.51618000  0.19182000  0.72867000  1.0
  H  H60  1  0.48685000  0.80175000  0.72864000  1.0
  H  H61  1  0.19637000  0.51513000  0.26786000  1.0
  H  H62  1  0.80135000  0.48599000  0.27324000  1.0
  H  H63  1  0.48629000  0.19840000  0.26845000  1.0
  H  H64  1  0.50765000  0.81303000  0.27106000  1.0
  H  H65  1  0.47745000  0.92957000  0.54503000  1.0
  H  H66  1  0.53260000  0.06349000  0.54489000  1.0
  H  H67  1  0.93528000  0.52671000  0.54348000  1.0
  H  H68  1  0.06956000  0.47428000  0.54628000  1.0
  H  H69  1  0.53033000  0.93793000  0.45298000  1.0
  H  H70  1  0.47400000  0.07013000  0.45743000  1.0
  H  H71  1  0.06799000  0.53377000  0.45746000  1.0
  H  H72  1  0.93695000  0.47102000  0.45275000  1.0
  H  H73  1  0.97602000  0.42847000  0.04754000  1.0
  H  H74  1  0.02644000  0.56812000  0.04672000  1.0
  H  H75  1  0.44155000  0.03599000  0.05899000  1.0
  H  H76  1  0.56132000  0.96571000  0.04889000  1.0
  H  H77  1  0.02726000  0.43325000  0.95493000  1.0
  H  H78  1  0.97470000  0.56614000  0.95694000  1.0
  H  H79  1  0.57359000  0.02810000  0.96115000  1.0
  H  H80  1  0.43107000  0.97209000  0.96348000  1.0
  H  H81  1  0.59359000  0.87918000  0.59598000  1.0
  H  H82  1  0.41532000  0.10950000  0.59607000  1.0
  H  H83  1  0.88735000  0.41153000  0.59583000  1.0
  H  H84  1  0.11811000  0.59215000  0.59490000  1.0
  H  H85  1  0.41047000  0.89445000  0.40360000  1.0
  H  H86  1  0.58974000  0.11650000  0.40495000  1.0
  H  H87  1  0.11044000  0.41563000  0.40626000  1.0
  H  H88  1  0.88925000  0.58744000  0.40158000  1.0
  H  H89  1  0.08935000  0.37621000  0.10036000  1.0
  H  H90  1  0.91122000  0.61925000  0.09745000  1.0
  H  H91  1  0.39440000  0.92219000  0.11351000  1.0
  H  H92  1  0.60497000  0.08468000  0.09911000  1.0
  H  H93  1  0.90785000  0.38795000  0.90606000  1.0
  H  H94  1  0.09300000  0.61079000  0.90651000  1.0
  H  H95  1  0.61856000  0.91109000  0.90957000  1.0
  H  H96  1  0.38494000  0.08946000  0.91235000  1.0
  H  H97  1  0.46075000  0.68324000  0.65004000  1.0
  H  H98  1  0.54158000  0.31037000  0.64881000  1.0
  H  H99  1  0.68846000  0.54248000  0.64847000  1.0
  H  H100  1  0.31751000  0.46397000  0.65064000  1.0
  H  H101  1  0.53177000  0.69117000  0.34862000  1.0
  H  H102  1  0.45700000  0.31076000  0.34572000  1.0
  H  H103  1  0.30843000  0.53956000  0.34496000  1.0
  H  H104  1  0.68420000  0.46266000  0.35442000  1.0
  H  H105  1  0.95256000  0.18102000  0.15041000  1.0
  H  H106  1  0.04344000  0.81791000  0.14655000  1.0
  H  H107  1  0.17677000  0.03834000  0.13849000  1.0
  H  H108  1  0.81437000  0.96672000  0.14697000  1.0
  H  H109  1  0.03147000  0.18660000  0.85047000  1.0
  H  H110  1  0.96540000  0.80774000  0.84597000  1.0
  H  H111  1  0.80245000  0.04464000  0.83698000  1.0
  H  H112  1  0.19220000  0.95966000  0.84848000  1.0
  H  H113  1  0.34949000  0.72820000  0.59135000  1.0
  H  H114  1  0.65359000  0.26969000  0.58988000  1.0
  H  H115  1  0.73096000  0.65235000  0.58867000  1.0
  H  H116  1  0.27421000  0.35060000  0.59434000  1.0
  H  H117  1  0.64673000  0.72963000  0.40568000  1.0
  H  H118  1  0.34621000  0.27011000  0.40575000  1.0
  H  H119  1  0.27126000  0.65285000  0.40334000  1.0
  H  H120  1  0.72810000  0.35074000  0.41211000  1.0
  H  H121  1  0.84413000  0.22772000  0.08989000  1.0
  H  H122  1  0.15394000  0.77176000  0.08867000  1.0
  H  H123  1  0.22166000  0.14699000  0.07851000  1.0
  H  H124  1  0.77535000  0.85334000  0.08906000  1.0
  H  H125  1  0.14682000  0.22736000  0.90617000  1.0
  H  H126  1  0.85164000  0.76815000  0.90361000  1.0
  H  H127  1  0.76424000  0.15724000  0.89599000  1.0
  H  H128  1  0.23312000  0.84642000  0.90610000  1.0
  H  H129  1  0.14639000  0.94393000  0.55059000  1.0
  H  H130  1  0.83715000  0.06668000  0.55610000  1.0
  H  H131  1  0.93012000  0.83635000  0.55850000  1.0
  H  H132  1  0.06782000  0.16377000  0.56069000  1.0
  H  H133  1  0.87465000  0.94506000  0.47797000  1.0
  H  H134  1  0.15738000  0.06480000  0.44986000  1.0
  H  H135  1  0.06534000  0.84953000  0.44923000  1.0
  H  H136  1  0.95389000  0.13094000  0.47976000  1.0
  H  H137  1  0.66222000  0.43565000  0.05738000  1.0
  H  H138  1  0.37055000  0.54831000  0.02608000  1.0
  H  H139  1  0.44739000  0.36919000  0.02493000  1.0
  H  H140  1  0.55875000  0.62606000  0.02477000  1.0
  H  H141  1  0.33800000  0.43177000  0.94264000  1.0
  H  H142  1  0.66225000  0.56743000  0.94505000  1.0
  H  H143  1  0.56342000  0.34347000  0.94446000  1.0
  H  H144  1  0.43472000  0.66027000  0.94408000  1.0
  C  C1  1  0.60217000  0.75124000  0.65931000  1.0
  C  C2  1  0.40177000  0.23899000  0.65724000  1.0
  C  C3  1  0.75789000  0.40175000  0.65807000  1.0
  C  C4  1  0.24601000  0.60445000  0.65784000  1.0
  C  C5  1  0.39355000  0.76558000  0.34168000  1.0
  C  C6  1  0.60061000  0.24295000  0.34079000  1.0
  C  C7  1  0.23476000  0.39876000  0.34078000  1.0
  C  C8  1  0.75678000  0.60215000  0.34326000  1.0
  C  C9  1  0.09580000  0.24528000  0.16093000  1.0
  C  C10  1  0.90170000  0.74931000  0.15758000  1.0
  C  C11  1  0.25367000  0.90470000  0.16106000  1.0
  C  C12  1  0.73837000  0.10280000  0.15667000  1.0
  C  C13  1  0.89189000  0.26152000  0.84303000  1.0
  C  C14  1  0.10629000  0.73865000  0.84207000  1.0
  C  C15  1  0.73767000  0.90024000  0.83873000  1.0
  C  C16  1  0.26062000  0.10171000  0.84528000  1.0
  C  C17  1  0.24148000  0.91136000  0.22249000  1.0
  C  C18  1  0.75220000  0.09768000  0.21801000  1.0
  C  C19  1  0.90843000  0.76135000  0.21907000  1.0
  C  C20  1  0.09042000  0.23665000  0.22279000  1.0
  C  C21  1  0.74881000  0.90500000  0.77693000  1.0
  C  C22  1  0.24713000  0.09608000  0.78377000  1.0
  C  C23  1  0.09994000  0.75117000  0.78058000  1.0
  C  C24  1  0.89902000  0.24577000  0.78192000  1.0
  C  C25  1  0.74371000  0.40972000  0.71944000  1.0
  C  C26  1  0.25848000  0.59755000  0.71936000  1.0
  C  C27  1  0.40834000  0.25304000  0.71846000  1.0
  C  C28  1  0.59448000  0.73972000  0.72077000  1.0
  C  C29  1  0.24762000  0.40258000  0.27905000  1.0
  C  C30  1  0.74638000  0.59705000  0.28145000  1.0
  C  C31  1  0.59633000  0.25467000  0.27904000  1.0
  C  C32  1  0.39967000  0.75252000  0.28032000  1.0
  C  C33  1  0.20459000  0.85087000  0.25096000  1.0
  C  C34  1  0.79444000  0.15576000  0.24511000  1.0
  C  C35  1  0.84620000  0.79564000  0.24751000  1.0
  C  C36  1  0.14956000  0.19668000  0.25107000  1.0
  C  C37  1  0.78738000  0.84448000  0.74964000  1.0
  C  C38  1  0.20856000  0.15664000  0.75620000  1.0
  C  C39  1  0.15819000  0.79243000  0.75281000  1.0
  C  C40  1  0.83783000  0.20973000  0.75350000  1.0
  C  C41  1  0.70497000  0.35044000  0.74798000  1.0
  C  C42  1  0.29503000  0.65798000  0.74803000  1.0
  C  C43  1  0.34790000  0.29178000  0.74581000  1.0
  C  C44  1  0.65453000  0.70187000  0.74950000  1.0
  C  C45  1  0.27999000  0.33860000  0.25157000  1.0
  C  C46  1  0.71262000  0.65938000  0.25265000  1.0
  C  C47  1  0.65892000  0.28958000  0.25150000  1.0
  C  C48  1  0.33963000  0.71408000  0.25233000  1.0
  C  C49  1  0.19917000  0.85174000  0.30890000  1.0
  C  C50  1  0.80179000  0.15544000  0.30304000  1.0
  C  C51  1  0.84664000  0.80030000  0.30550000  1.0
  C  C52  1  0.15082000  0.19414000  0.30911000  1.0
  C  C53  1  0.79349000  0.84393000  0.69168000  1.0
  C  C54  1  0.20229000  0.15709000  0.69823000  1.0
  C  C55  1  0.15711000  0.79911000  0.69488000  1.0
  C  C56  1  0.83944000  0.20231000  0.69558000  1.0
  C  C57  1  0.69848000  0.35211000  0.80590000  1.0
  C  C58  1  0.30075000  0.65638000  0.80601000  1.0
  C  C59  1  0.34851000  0.29905000  0.80364000  1.0
  C  C60  1  0.65359000  0.69731000  0.80745000  1.0
  C  C61  1  0.28615000  0.33738000  0.19354000  1.0
  C  C62  1  0.70822000  0.65915000  0.19458000  1.0
  C  C63  1  0.65994000  0.29515000  0.19348000  1.0
  C  C64  1  0.34140000  0.70601000  0.19452000  1.0
  C  C65  1  0.23086000  0.91312000  0.33936000  1.0
  C  C66  1  0.76654000  0.09718000  0.33467000  1.0
  C  C67  1  0.90976000  0.77105000  0.33588000  1.0
  C  C68  1  0.09288000  0.23164000  0.33984000  1.0
  C  C69  1  0.76146000  0.90446000  0.66014000  1.0
  C  C70  1  0.23457000  0.09681000  0.66693000  1.0
  C  C71  1  0.09737000  0.76481000  0.66399000  1.0
  C  C72  1  0.90236000  0.23115000  0.66509000  1.0
  C  C73  1  0.73081000  0.41314000  0.83645000  1.0
  C  C74  1  0.26999000  0.59420000  0.83619000  1.0
  C  C75  1  0.40961000  0.26749000  0.83495000  1.0
  C  C76  1  0.59224000  0.73019000  0.83750000  1.0
  C  C77  1  0.26004000  0.40052000  0.16186000  1.0
  C  C78  1  0.73730000  0.59618000  0.16439000  1.0
  C  C79  1  0.59805000  0.26598000  0.16205000  1.0
  C  C80  1  0.40345000  0.73633000  0.16392000  1.0
  C  C81  1  0.26636000  0.97438000  0.31116000  1.0
  C  C82  1  0.72527000  0.03854000  0.30781000  1.0
  C  C83  1  0.97272000  0.73830000  0.30775000  1.0
  C  C84  1  0.03292000  0.27035000  0.31195000  1.0
  C  C85  1  0.72287000  0.96490000  0.68706000  1.0
  C  C86  1  0.27218000  0.03581000  0.69426000  1.0
  C  C87  1  0.03894000  0.72394000  0.69148000  1.0
  C  C88  1  0.96379000  0.26642000  0.69335000  1.0
  C  C89  1  0.76780000  0.47336000  0.80815000  1.0
  C  C90  1  0.23433000  0.53340000  0.80777000  1.0
  C  C91  1  0.47045000  0.22956000  0.80782000  1.0
  C  C92  1  0.53162000  0.76696000  0.80907000  1.0
  C  C93  1  0.22846000  0.46481000  0.18904000  1.0
  C  C94  1  0.77004000  0.53340000  0.19289000  1.0
  C  C95  1  0.53514000  0.23182000  0.18927000  1.0
  C  C96  1  0.46366000  0.77437000  0.19161000  1.0
  C  C97  1  0.27138000  0.97361000  0.25298000  1.0
  C  C98  1  0.71829000  0.03867000  0.24979000  1.0
  C  C99  1  0.97196000  0.73327000  0.24963000  1.0
  C  C100  1  0.03174000  0.27288000  0.25368000  1.0
  C  C101  1  0.71648000  0.96513000  0.74511000  1.0
  C  C102  1  0.27843000  0.03538000  0.75232000  1.0
  C  C103  1  0.04024000  0.71717000  0.74950000  1.0
  C  C104  1  0.96240000  0.27339000  0.75132000  1.0
  C  C105  1  0.77407000  0.47174000  0.75004000  1.0
  C  C106  1  0.22867000  0.53500000  0.74970000  1.0
  C  C107  1  0.46994000  0.22251000  0.74983000  1.0
  C  C108  1  0.53271000  0.77170000  0.75091000  1.0
  C  C109  1  0.22228000  0.46587000  0.24711000  1.0
  C  C110  1  0.77467000  0.53385000  0.25104000  1.0
  C  C111  1  0.53429000  0.22616000  0.24736000  1.0
  C  C112  1  0.46177000  0.78246000  0.24948000  1.0
  C  C113  1  0.22832000  0.91203000  0.40182000  1.0
  C  C114  1  0.77293000  0.09665000  0.39694000  1.0
  C  C115  1  0.90965000  0.77416000  0.39822000  1.0
  C  C116  1  0.09526000  0.23051000  0.40224000  1.0
  C  C117  1  0.76777000  0.90492000  0.59790000  1.0
  C  C118  1  0.23034000  0.09699000  0.60458000  1.0
  C  C119  1  0.09606000  0.77104000  0.60177000  1.0
  C  C120  1  0.90452000  0.22674000  0.60261000  1.0
  C  C121  1  0.72754000  0.41265000  0.89891000  1.0
  C  C122  1  0.27340000  0.59316000  0.89859000  1.0
  C  C123  1  0.40923000  0.27240000  0.89727000  1.0
  C  C124  1  0.59269000  0.72726000  0.89987000  1.0
  C  C125  1  0.26548000  0.40069000  0.09935000  1.0
  C  C126  1  0.73364000  0.59553000  0.10199000  1.0
  C  C127  1  0.59799000  0.27031000  0.09966000  1.0
  C  C128  1  0.40606000  0.72883000  0.10181000  1.0
  C  C129  1  0.47569000  0.87480000  0.56691000  1.0
  C  C130  1  0.53253000  0.11854000  0.56631000  1.0
  C  C131  1  0.88036000  0.52837000  0.56529000  1.0
  C  C132  1  0.12479000  0.47390000  0.56784000  1.0
  C  C133  1  0.52857000  0.88297000  0.43146000  1.0
  C  C134  1  0.47218000  0.12382000  0.43416000  1.0
  C  C135  1  0.12152000  0.53320000  0.43391000  1.0
  C  C136  1  0.88068000  0.47116000  0.43260000  1.0
  C  C137  1  0.97265000  0.37315000  0.06863000  1.0
  C  C138  1  0.02857000  0.62363000  0.06743000  1.0
  C  C139  1  0.38313000  0.03439000  0.07541000  1.0
  C  C140  1  0.61746000  0.96812000  0.06916000  1.0
  C  C141  1  0.02648000  0.37841000  0.93324000  1.0
  C  C142  1  0.97471000  0.62004000  0.93389000  1.0
  C  C143  1  0.62489000  0.02999000  0.93520000  1.0
  C  C144  1  0.37790000  0.97113000  0.93932000  1.0
  C  C145  1  0.53968000  0.84725000  0.59594000  1.0
  C  C146  1  0.46797000  0.14354000  0.59568000  1.0
  C  C147  1  0.85421000  0.46484000  0.59524000  1.0
  C  C148  1  0.15127000  0.53888000  0.59563000  1.0
  C  C149  1  0.46258000  0.85931000  0.40318000  1.0
  C  C150  1  0.53596000  0.14903000  0.40414000  1.0
  C  C151  1  0.14462000  0.46803000  0.40465000  1.0
  C  C152  1  0.85455000  0.53538000  0.40325000  1.0
  C  C153  1  0.03520000  0.34467000  0.09893000  1.0
  C  C154  1  0.96490000  0.65156000  0.09646000  1.0
  C  C155  1  0.35711000  0.97177000  0.10636000  1.0
  C  C156  1  0.64120000  0.03343000  0.09786000  1.0
  C  C157  1  0.96053000  0.35368000  0.90538000  1.0
  C  C158  1  0.03994000  0.64446000  0.90512000  1.0
  C  C159  1  0.64921000  0.96542000  0.90581000  1.0
  C  C160  1  0.35268000  0.03591000  0.91023000  1.0
  C  C161  1  0.53376000  0.77871000  0.62680000  1.0
  C  C162  1  0.47149000  0.21266000  0.62585000  1.0
  C  C163  1  0.78533000  0.47020000  0.62591000  1.0
  C  C164  1  0.22037000  0.53491000  0.62625000  1.0
  C  C165  1  0.46412000  0.79033000  0.37276000  1.0
  C  C166  1  0.53049000  0.21641000  0.37181000  1.0
  C  C167  1  0.21182000  0.47015000  0.37185000  1.0
  C  C168  1  0.78376000  0.53227000  0.37463000  1.0
  C  C169  1  0.02776000  0.27553000  0.12891000  1.0
  C  C170  1  0.97050000  0.72127000  0.12574000  1.0
  C  C171  1  0.28252000  0.97322000  0.12921000  1.0
  C  C172  1  0.71212000  0.03242000  0.12634000  1.0
  C  C173  1  0.96255000  0.28492000  0.87470000  1.0
  C  C174  1  0.03637000  0.71220000  0.87313000  1.0
  C  C175  1  0.71293000  0.97065000  0.86981000  1.0
  C  C176  1  0.28610000  0.03166000  0.87677000  1.0
  C  C177  1  0.46492000  0.73632000  0.62601000  1.0
  C  C178  1  0.53899000  0.25721000  0.62493000  1.0
  C  C179  1  0.74165000  0.53835000  0.62449000  1.0
  C  C180  1  0.26413000  0.46674000  0.62660000  1.0
  C  C181  1  0.53084000  0.74425000  0.37267000  1.0
  C  C182  1  0.46142000  0.25899000  0.37121000  1.0
  C  C183  1  0.25654000  0.53750000  0.37049000  1.0
  C  C184  1  0.73869000  0.46532000  0.37706000  1.0
  C  C185  1  0.95831000  0.23424000  0.12673000  1.0
  C  C186  1  0.03911000  0.76396000  0.12375000  1.0
  C  C187  1  0.23420000  0.03696000  0.12015000  1.0
  C  C188  1  0.75982000  0.96710000  0.12431000  1.0
  C  C189  1  0.03001000  0.23982000  0.87434000  1.0
  C  C190  1  0.96798000  0.75581000  0.87143000  1.0
  C  C191  1  0.75338000  0.04037000  0.86518000  1.0
  C  C192  1  0.24372000  0.96292000  0.87448000  1.0
  C  C193  1  0.40267000  0.76121000  0.59359000  1.0
  C  C194  1  0.60168000  0.23472000  0.59226000  1.0
  C  C195  1  0.76519000  0.59991000  0.59128000  1.0
  C  C196  1  0.24014000  0.40330000  0.59550000  1.0
  C  C197  1  0.59508000  0.76542000  0.40423000  1.0
  C  C198  1  0.39930000  0.23647000  0.40446000  1.0
  C  C199  1  0.23600000  0.60111000  0.40291000  1.0
  C  C200  1  0.76285000  0.40266000  0.40923000  1.0
  C  C201  1  0.89762000  0.26008000  0.09307000  1.0
  C  C202  1  0.10109000  0.73837000  0.09160000  1.0
  C  C203  1  0.25892000  0.09777000  0.08659000  1.0
  C  C204  1  0.73831000  0.90377000  0.09228000  1.0
  C  C205  1  0.09453000  0.26228000  0.90517000  1.0
  C  C206  1  0.90437000  0.73390000  0.90326000  1.0
  C  C207  1  0.73220000  0.10350000  0.89773000  1.0
  C  C208  1  0.26629000  0.89952000  0.90647000  1.0
  C  C209  1  0.40751000  0.83155000  0.56507000  1.0
  C  C210  1  0.59878000  0.16470000  0.56337000  1.0
  C  C211  1  0.83538000  0.59552000  0.56231000  1.0
  C  C212  1  0.16944000  0.40644000  0.56691000  1.0
  C  C213  1  0.59434000  0.83567000  0.43291000  1.0
  C  C214  1  0.40440000  0.16820000  0.43564000  1.0
  C  C215  1  0.16762000  0.59950000  0.43420000  1.0
  C  C216  1  0.83441000  0.40521000  0.43665000  1.0
  C  C217  1  0.90426000  0.33034000  0.06459000  1.0
  C  C218  1  0.09638000  0.66736000  0.06406000  1.0
  C  C219  1  0.33375000  0.09684000  0.06447000  1.0
  C  C220  1  0.66645000  0.90392000  0.06529000  1.0
  C  C221  1  0.09333000  0.33254000  0.93391000  1.0
  C  C222  1  0.90759000  0.66540000  0.93430000  1.0
  C  C223  1  0.66704000  0.09871000  0.93223000  1.0
  C  C224  1  0.33436000  0.90321000  0.93820000  1.0
  C  C225  1  0.33905000  0.86208000  0.53454000  1.0
  C  C226  1  0.66693000  0.13792000  0.53081000  1.0
  C  C227  1  0.86230000  0.66400000  0.53029000  1.0
  C  C228  1  0.13967000  0.33743000  0.53710000  1.0
  C  C229  1  0.66455000  0.86160000  0.46330000  1.0
  C  C230  1  0.33732000  0.14115000  0.46914000  1.0
  C  C231  1  0.14184000  0.66839000  0.46646000  1.0
  C  C232  1  0.86250000  0.33674000  0.46819000  1.0
  C  C233  1  0.83739000  0.36100000  0.03205000  1.0
  C  C234  1  0.16446000  0.63780000  0.03278000  1.0
  C  C235  1  0.36179000  0.16350000  0.03123000  1.0
  C  C236  1  0.64077000  0.83476000  0.03404000  1.0
  C  C237  1  0.16380000  0.35982000  0.96373000  1.0
  C  C238  1  0.83900000  0.63973000  0.96675000  1.0
  C  C239  1  0.64027000  0.16735000  0.96413000  1.0
  C  C240  1  0.36202000  0.83373000  0.96895000  1.0
  O  O1  1  0.19672000  0.85410000  0.42495000  1.0
  O  O2  1  0.80415000  0.15422000  0.42053000  1.0
  O  O3  1  0.84802000  0.79591000  0.42205000  1.0
  O  O4  1  0.15222000  0.19633000  0.42546000  1.0
  O  O5  1  0.79431000  0.84457000  0.57469000  1.0
  O  O6  1  0.19944000  0.15503000  0.58059000  1.0
  O  O7  1  0.15538000  0.79909000  0.57812000  1.0
  O  O8  1  0.84747000  0.19596000  0.57757000  1.0
  O  O9  1  0.69487000  0.35540000  0.92204000  1.0
  O  O10  1  0.30298000  0.65138000  0.92267000  1.0
  O  O11  1  0.35081000  0.30377000  0.92014000  1.0
  O  O12  1  0.65309000  0.70023000  0.92311000  1.0
  O  O13  1  0.29288000  0.34142000  0.07518000  1.0
  O  O14  1  0.71052000  0.65595000  0.07726000  1.0
  O  O15  1  0.65622000  0.30037000  0.07546000  1.0
  O  O16  1  0.34750000  0.70008000  0.07758000  1.0
  O  O17  1  0.25790000  0.96949000  0.42719000  1.0
  O  O18  1  0.74636000  0.03721000  0.42163000  1.0
  O  O19  1  0.97255000  0.75487000  0.42280000  1.0
  O  O20  1  0.03965000  0.26316000  0.42775000  1.0
  O  O21  1  0.74611000  0.96654000  0.57304000  1.0
  O  O22  1  0.25798000  0.03773000  0.58023000  1.0
  O  O23  1  0.03455000  0.74785000  0.57740000  1.0
  O  O24  1  0.96465000  0.25477000  0.57939000  1.0
  O  O25  1  0.75770000  0.46978000  0.92452000  1.0
  O  O26  1  0.24606000  0.53326000  0.92261000  1.0
  O  O27  1  0.46824000  0.24459000  0.92250000  1.0
  O  O28  1  0.53208000  0.75201000  0.92467000  1.0
  O  O29  1  0.24215000  0.46197000  0.07498000  1.0
  O  O30  1  0.75416000  0.53288000  0.07812000  1.0
  O  O31  1  0.53843000  0.24382000  0.07523000  1.0
  O  O32  1  0.46769000  0.75180000  0.07796000  1.0
  O  O33  1  0.33941000  0.93416000  0.52386000  1.0
  O  O34  1  0.66755000  0.06710000  0.51689000  1.0
  O  O35  1  0.93369000  0.66625000  0.51681000  1.0
  O  O36  1  0.06717000  0.33683000  0.52725000  1.0
  O  O37  1  0.66781000  0.93301000  0.47533000  1.0
  O  O38  1  0.33835000  0.07036000  0.48369000  1.0
  O  O39  1  0.07071000  0.66956000  0.48061000  1.0
  O  O40  1  0.93323000  0.33716000  0.48340000  1.0
  O  O41  1  0.83784000  0.43328000  0.02196000  1.0
  O  O42  1  0.16400000  0.56667000  0.01927000  1.0
  O  O43  1  0.43371000  0.16449000  0.01960000  1.0
  O  O44  1  0.56921000  0.83164000  0.02173000  1.0
  O  O45  1  0.16438000  0.43071000  0.97782000  1.0
  O  O46  1  0.83911000  0.56984000  0.98355000  1.0
  O  O47  1  0.57014000  0.16619000  0.98041000  1.0
  O  O48  1  0.43308000  0.83292000  0.98332000  1.0
  O  O49  1  0.28588000  0.81472000  0.52202000  1.0
  O  O50  1  0.71930000  0.18673000  0.51958000  1.0
  O  O51  1  0.81213000  0.71543000  0.51939000  1.0
  O  O52  1  0.18783000  0.28493000  0.52429000  1.0
  O  O53  1  0.71586000  0.81142000  0.47483000  1.0
  O  O54  1  0.28460000  0.18973000  0.48062000  1.0
  O  O55  1  0.19131000  0.72020000  0.47741000  1.0
  O  O56  1  0.81481000  0.28274000  0.47766000  1.0
  O  O57  1  0.78524000  0.31393000  0.01703000  1.0
  O  O58  1  0.21824000  0.68524000  0.02202000  1.0
  O  O59  1  0.31271000  0.21459000  0.01676000  1.0
  O  O60  1  0.69128000  0.78417000  0.02198000  1.0
  O  O61  1  0.21766000  0.31119000  0.97241000  1.0
  O  O62  1  0.78573000  0.68896000  0.97504000  1.0
  O  O63  1  0.68807000  0.22162000  0.97226000  1.0
  O  O64  1  0.31322000  0.78052000  0.97793000  1.0
  O  O65  1  0.18331000  0.92869000  0.52245000  1.0
  O  O66  1  0.82780000  0.07106000  0.51612000  1.0
  O  O67  1  0.92539000  0.82272000  0.51934000  1.0
  O  O68  1  0.07311000  0.17853000  0.52173000  1.0
  O  O69  1  0.82248000  0.92516000  0.47790000  1.0
  O  O70  1  0.17994000  0.07418000  0.48627000  1.0
  O  O71  1  0.07435000  0.82671000  0.48570000  1.0
  O  O72  1  0.92990000  0.18135000  0.48065000  1.0
  O  O73  1  0.67986000  0.42878000  0.01928000  1.0
  O  O74  1  0.32028000  0.57104000  0.01955000  1.0
  O  O75  1  0.42555000  0.31854000  0.01956000  1.0
  O  O76  1  0.57778000  0.67800000  0.02015000  1.0
  O  O77  1  0.32415000  0.42634000  0.98179000  1.0
  O  O78  1  0.68001000  0.57455000  0.98316000  1.0
  O  O79  1  0.57088000  0.32563000  0.98257000  1.0
  O  O80  1  0.42961000  0.67231000  0.98355000  1.0
  O  O81  1  0.66472000  0.74126000  0.63584000  1.0
  O  O82  1  0.33928000  0.24615000  0.63291000  1.0
  O  O83  1  0.74993000  0.33936000  0.63415000  1.0
  O  O84  1  0.25349000  0.66666667  0.63351000  1.0
  O  O85  1  0.33164000  0.75833000  0.36665000  1.0
  O  O86  1  0.66173000  0.25204000  0.36655000  1.0
  O  O87  1  0.23941000  0.33701000  0.36633000  1.0
  O  O88  1  0.74644000  0.66308000  0.36867000  1.0
  O  O89  1  0.15639000  0.23040000  0.13605000  1.0
  O  O90  1  0.83956000  0.75889000  0.13323000  1.0
  O  O91  1  0.24242000  0.84365000  0.13623000  1.0
  O  O92  1  0.74633000  0.16372000  0.13075000  1.0
  O  O93  1  0.82853000  0.25938000  0.86659000  1.0
  O  O94  1  0.16811000  0.74802000  0.86678000  1.0
  O  O95  1  0.74628000  0.83863000  0.86388000  1.0
  O  O96  1  0.25387000  0.16392000  0.86962000  1.0
