# generated using pymatgen
data_AgH20(C3N2)6
_symmetry_space_group_name_H-M   'P 1'
_cell_length_a   11.75745000
_cell_length_b   18.95682000
_cell_length_c   22.02223000
_cell_angle_alpha   90.00363000
_cell_angle_beta   89.99091000
_cell_angle_gamma   90.00000000
_symmetry_Int_Tables_number   1
_chemical_formula_structural   AgH20(C3N2)6
_chemical_formula_sum   'Ag8 H160 C144 N96'
_cell_volume   4908.39962946
_cell_formula_units_Z   8
loop_
 _symmetry_equiv_pos_site_id
 _symmetry_equiv_pos_as_xyz
  1  'x, y, z'
loop_
 _atom_site_type_symbol
 _atom_site_label
 _atom_site_symmetry_multiplicity
 _atom_site_fract_x
 _atom_site_fract_y
 _atom_site_fract_z
 _atom_site_occupancy
  Ag  Ag0  1  0.71800000  0.20637000  0.34250000  1
  Ag  Ag1  1  0.21842000  0.29379000  0.65736000  1
  Ag  Ag2  1  0.21842000  0.70619000  0.15741000  1
  Ag  Ag3  1  0.71800000  0.79364000  0.84245000  1
  Ag  Ag4  1  0.78157000  0.29381000  0.84259000  1
  Ag  Ag5  1  0.28199000  0.20636000  0.15755000  1
  Ag  Ag6  1  0.28199000  0.79362000  0.65750000  1
  Ag  Ag7  1  0.78158000  0.70621000  0.34264000  1
  H  H8  1  0.45925000  0.26169000  0.31261000  1
  H  H9  1  0.56877000  0.47180000  0.34934000  1
  H  H10  1  0.16953000  0.21454000  0.31258000  1
  H  H11  1  0.90196000  0.35653000  0.35520000  1
  H  H12  1  0.02412000  0.58911000  0.35523000  1
  H  H13  1  0.31807000  0.57242000  0.24307000  1
  H  H14  1  0.35218000  0.36852000  0.54535000  1
  H  H15  1  0.07533000  0.50996000  0.51959000  1
  H  H16  1  0.27423000  0.32732000  0.28382000  1
  H  H17  1  0.29189000  0.28938000  0.35719000  1
  H  H18  1  0.11831000  0.42258000  0.26954000  1
  H  H19  1  0.03251000  0.44791000  0.33273000  1
  H  H20  1  0.38574000  0.50626000  0.32759000  1
  H  H21  1  0.32658000  0.45433000  0.26767000  1
  H  H22  1  0.37537000  0.35854000  0.44224000  1
  H  H23  1  0.41487000  0.44873000  0.43254000  1
  H  H24  1  0.06202000  0.38968000  0.43560000  1
  H  H25  1  0.16980000  0.32454000  0.44453000  1
  H  H26  1  0.26556000  0.54111000  0.41764000  1
  H  H27  1  0.11863000  0.51840000  0.41937000  1
  H  H28  1  0.95889000  0.23831000  0.68755000  1
  H  H29  1  0.06853000  0.02825000  0.65082000  1
  H  H30  1  0.66973000  0.28537000  0.68764000  1
  H  H31  1  0.40199000  0.14372000  0.64468000  1
  H  H32  1  0.52415000  0.91054000  0.64472000  1
  H  H33  1  0.81762000  0.92764000  0.75723000  1
  H  H34  1  0.85232000  0.13209000  0.45480000  1
  H  H35  1  0.57581000  0.99031000  0.48033000  1
  H  H36  1  0.77377000  0.17262000  0.71641000  1
  H  H37  1  0.79173000  0.21055000  0.64305000  1
  H  H38  1  0.61790000  0.07720000  0.73047000  1
  H  H39  1  0.53235000  0.05198000  0.66716000  1
  H  H40  1  0.88556000  0.99372000  0.67261000  1
  H  H41  1  0.82605000  0.04550000  0.73254000  1
  H  H42  1  0.87548000  0.14162000  0.55812000  1
  H  H43  1  0.91491000  0.05141000  0.56772000  1
  H  H44  1  0.56209000  0.11023000  0.56450000  1
  H  H45  1  0.66972000  0.17550000  0.55559000  1
  H  H46  1  0.76578000  0.95900000  0.58229000  1
  H  H47  1  0.61878000  0.98156000  0.58048000  1
  H  H48  1  0.95888000  0.76169000  0.18755000  1
  H  H49  1  0.06853000  0.97174000  0.15081000  1
  H  H50  1  0.66973000  0.71463000  0.18764000  1
  H  H51  1  0.40198000  0.85626000  0.14468000  1
  H  H52  1  0.52415000  0.08945000  0.14472000  1
  H  H53  1  0.81762000  0.07236000  0.25723000  1
  H  H54  1  0.85230000  0.86788000  0.95480000  1
  H  H55  1  0.57582000  0.00968000  0.98034000  1
  H  H56  1  0.77377000  0.82738000  0.21641000  1
  H  H57  1  0.79172000  0.78944000  0.14304000  1
  H  H58  1  0.61791000  0.92280000  0.23048000  1
  H  H59  1  0.53235000  0.94802000  0.16717000  1
  H  H60  1  0.88556000  0.00627000  0.17261000  1
  H  H61  1  0.82605000  0.95450000  0.23254000  1
  H  H62  1  0.87548000  0.85836000  0.05812000  1
  H  H63  1  0.91490000  0.94858000  0.06772000  1
  H  H64  1  0.56208000  0.88975000  0.06450000  1
  H  H65  1  0.66971000  0.82448000  0.05559000  1
  H  H66  1  0.76577000  0.04099000  0.08229000  1
  H  H67  1  0.61877000  0.01843000  0.08049000  1
  H  H68  1  0.45923000  0.73830000  0.81261000  1
  H  H69  1  0.56876000  0.52820000  0.84934000  1
  H  H70  1  0.16953000  0.78545000  0.81258000  1
  H  H71  1  0.90194000  0.64348000  0.85520000  1
  H  H72  1  0.02412000  0.41089000  0.85523000  1
  H  H73  1  0.31807000  0.42757000  0.74307000  1
  H  H74  1  0.35216000  0.63150000  0.04535000  1
  H  H75  1  0.07532000  0.49005000  0.01958000  1
  H  H76  1  0.27423000  0.67267000  0.78382000  1
  H  H77  1  0.29189000  0.71062000  0.85719000  1
  H  H78  1  0.11831000  0.57741000  0.76954000  1
  H  H79  1  0.03250000  0.55209000  0.83272000  1
  H  H80  1  0.38574000  0.49374000  0.82758000  1
  H  H81  1  0.32658000  0.54567000  0.76767000  1
  H  H82  1  0.37537000  0.64147000  0.94224000  1
  H  H83  1  0.41486000  0.55128000  0.93254000  1
  H  H84  1  0.06201000  0.61033000  0.93560000  1
  H  H85  1  0.16979000  0.67547000  0.94453000  1
  H  H86  1  0.26555000  0.45890000  0.91764000  1
  H  H87  1  0.11862000  0.48161000  0.91936000  1
  H  H88  1  0.04111000  0.23830000  0.81245000  1
  H  H89  1  0.93147000  0.02826000  0.84918000  1
  H  H90  1  0.33026000  0.28537000  0.81236000  1
  H  H91  1  0.59802000  0.14374000  0.85532000  1
  H  H92  1  0.47584000  0.91055000  0.85528000  1
  H  H93  1  0.18237000  0.92764000  0.74277000  1
  H  H94  1  0.14769000  0.13212000  0.04520000  1
  H  H95  1  0.42417000  0.99032000  0.01966000  1
  H  H96  1  0.22622000  0.17261000  0.78359000  1
  H  H97  1  0.20827000  0.21055000  0.85695000  1
  H  H98  1  0.38208000  0.07720000  0.76952000  1
  H  H99  1  0.46765000  0.05198000  0.83283000  1
  H  H100  1  0.11443000  0.99373000  0.82739000  1
  H  H101  1  0.17395000  0.04550000  0.76746000  1
  H  H102  1  0.12451000  0.14164000  0.94188000  1
  H  H103  1  0.08509000  0.05142000  0.93228000  1
  H  H104  1  0.43791000  0.11024000  0.93550000  1
  H  H105  1  0.33029000  0.17552000  0.94441000  1
  H  H106  1  0.23422000  0.95901000  0.91771000  1
  H  H107  1  0.38122000  0.98157000  0.91951000  1
  H  H108  1  0.54076000  0.26169000  0.18739000  1
  H  H109  1  0.43123000  0.47180000  0.15066000  1
  H  H110  1  0.83046000  0.21455000  0.18742000  1
  H  H111  1  0.09805000  0.35652000  0.14480000  1
  H  H112  1  0.97587000  0.58911000  0.14477000  1
  H  H113  1  0.68192000  0.57242000  0.25693000  1
  H  H114  1  0.64783000  0.36850000  0.95465000  1
  H  H115  1  0.92467000  0.50995000  0.98042000  1
  H  H116  1  0.72577000  0.32733000  0.21618000  1
  H  H117  1  0.70811000  0.28938000  0.14281000  1
  H  H118  1  0.88168000  0.42259000  0.23046000  1
  H  H119  1  0.96749000  0.44791000  0.16728000  1
  H  H120  1  0.61425000  0.50625000  0.17242000  1
  H  H121  1  0.67341000  0.45433000  0.23233000  1
  H  H122  1  0.62462000  0.35853000  0.05776000  1
  H  H123  1  0.58514000  0.44872000  0.06746000  1
  H  H124  1  0.93798000  0.38966000  0.06440000  1
  H  H125  1  0.83020000  0.32452000  0.05547000  1
  H  H126  1  0.73444000  0.54110000  0.08236000  1
  H  H127  1  0.88137000  0.51838000  0.08064000  1
  H  H128  1  0.54075000  0.73831000  0.68739000  1
  H  H129  1  0.43122000  0.52820000  0.65066000  1
  H  H130  1  0.83047000  0.78545000  0.68742000  1
  H  H131  1  0.09804000  0.64347000  0.64480000  1
  H  H132  1  0.97587000  0.41088000  0.64476000  1
  H  H133  1  0.68192000  0.42758000  0.75693000  1
  H  H134  1  0.64781000  0.63147000  0.45464000  1
  H  H135  1  0.92467000  0.49004000  0.48041000  1
  H  H136  1  0.72576000  0.67267000  0.71618000  1
  H  H137  1  0.70810000  0.71062000  0.64281000  1
  H  H138  1  0.88168000  0.57741000  0.73046000  1
  H  H139  1  0.96749000  0.55209000  0.66727000  1
  H  H140  1  0.61425000  0.49374000  0.67241000  1
  H  H141  1  0.67341000  0.54567000  0.73233000  1
  H  H142  1  0.62462000  0.64146000  0.55776000  1
  H  H143  1  0.58513000  0.55127000  0.56746000  1
  H  H144  1  0.93797000  0.61032000  0.56440000  1
  H  H145  1  0.83019000  0.67546000  0.55547000  1
  H  H146  1  0.73443000  0.45889000  0.58236000  1
  H  H147  1  0.88137000  0.48160000  0.58063000  1
  H  H148  1  0.04110000  0.76169000  0.31245000  1
  H  H149  1  0.93147000  0.97175000  0.34918000  1
  H  H150  1  0.33026000  0.71463000  0.31236000  1
  H  H151  1  0.59801000  0.85627000  0.35532000  1
  H  H152  1  0.47584000  0.08946000  0.35528000  1
  H  H153  1  0.18238000  0.07235000  0.24277000  1
  H  H154  1  0.14768000  0.86790000  0.54520000  1
  H  H155  1  0.42418000  0.00969000  0.51967000  1
  H  H156  1  0.22622000  0.82738000  0.28359000  1
  H  H157  1  0.20827000  0.78945000  0.35695000  1
  H  H158  1  0.38209000  0.92280000  0.26953000  1
  H  H159  1  0.46764000  0.94802000  0.33284000  1
  H  H160  1  0.11443000  0.00627000  0.32739000  1
  H  H161  1  0.17395000  0.95450000  0.26746000  1
  H  H162  1  0.12451000  0.85837000  0.44188000  1
  H  H163  1  0.08508000  0.94859000  0.43228000  1
  H  H164  1  0.43790000  0.88977000  0.43550000  1
  H  H165  1  0.33028000  0.82449000  0.44441000  1
  H  H166  1  0.23421000  0.04100000  0.41771000  1
  H  H167  1  0.38121000  0.01844000  0.41952000  1
  C  C168  1  0.51109000  0.30845000  0.32111000  1
  C  C169  1  0.56911000  0.41596000  0.33898000  1
  C  C170  1  0.08755000  0.23516000  0.32612000  1
  C  C171  1  0.95011000  0.30887000  0.34650000  1
  C  C172  1  0.09212000  0.60178000  0.32292000  1
  C  C173  1  0.24270000  0.59229000  0.26533000  1
  C  C174  1  0.26921000  0.39303000  0.54721000  1
  C  C175  1  0.12520000  0.46468000  0.53373000  1
  C  C176  1  0.35519000  0.39630000  0.35041000  1
  C  C177  1  0.26994000  0.33808000  0.33285000  1
  C  C178  1  0.14970000  0.36175000  0.35177000  1
  C  C179  1  0.11801000  0.43082000  0.31893000  1
  C  C180  1  0.20498000  0.48812000  0.33640000  1
  C  C181  1  0.32422000  0.46451000  0.31675000  1
  C  C182  1  0.35224000  0.40825000  0.41967000  1
  C  C183  1  0.23306000  0.43144000  0.43835000  1
  C  C184  1  0.14790000  0.37383000  0.42086000  1
  C  C185  1  0.20343000  0.50008000  0.40559000  1
  C  C186  1  0.01081000  0.19164000  0.67889000  1
  C  C187  1  0.06886000  0.08413000  0.66099000  1
  C  C188  1  0.58774000  0.26486000  0.67399000  1
  C  C189  1  0.45017000  0.19134000  0.65342000  1
  C  C190  1  0.59213000  0.89800000  0.67707000  1
  C  C191  1  0.74243000  0.90773000  0.73481000  1
  C  C192  1  0.76923000  0.10771000  0.45308000  1
  C  C193  1  0.62550000  0.03574000  0.46633000  1
  C  C194  1  0.85497000  0.10368000  0.64985000  1
  C  C195  1  0.76970000  0.16186000  0.66738000  1
  C  C196  1  0.64955000  0.13822000  0.64836000  1
  C  C197  1  0.61777000  0.06909000  0.68107000  1
  C  C198  1  0.70480000  0.01180000  0.66362000  1
  C  C199  1  0.82395000  0.03543000  0.68344000  1
  C  C200  1  0.85222000  0.09185000  0.58057000  1
  C  C201  1  0.73314000  0.06868000  0.56178000  1
  C  C202  1  0.64787000  0.12621000  0.57928000  1
  C  C203  1  0.70349000  0.99993000  0.59440000  1
  C  C204  1  0.01081000  0.80836000  0.17889000  1
  C  C205  1  0.06886000  0.91586000  0.16099000  1
  C  C206  1  0.58775000  0.73513000  0.17399000  1
  C  C207  1  0.45017000  0.80864000  0.15342000  1
  C  C208  1  0.59213000  0.10199000  0.17708000  1
  C  C209  1  0.74244000  0.09227000  0.23482000  1
  C  C210  1  0.76922000  0.89226000  0.95308000  1
  C  C211  1  0.62550000  0.96425000  0.96633000  1
  C  C212  1  0.85496000  0.89632000  0.14985000  1
  C  C213  1  0.76970000  0.83813000  0.16738000  1
  C  C214  1  0.64955000  0.86178000  0.14836000  1
  C  C215  1  0.61777000  0.93091000  0.18108000  1
  C  C216  1  0.70480000  0.98820000  0.16363000  1
  C  C217  1  0.82395000  0.96457000  0.18344000  1
  C  C218  1  0.85222000  0.90813000  0.08057000  1
  C  C219  1  0.73313000  0.93130000  0.06178000  1
  C  C220  1  0.64786000  0.87378000  0.07928000  1
  C  C221  1  0.70348000  0.00006000  0.09440000  1
  C  C222  1  0.51108000  0.69155000  0.82111000  1
  C  C223  1  0.56911000  0.58404000  0.83898000  1
  C  C224  1  0.08755000  0.76484000  0.82612000  1
  C  C225  1  0.95011000  0.69113000  0.84650000  1
  C  C226  1  0.09212000  0.39822000  0.82291000  1
  C  C227  1  0.24270000  0.40770000  0.76532000  1
  C  C228  1  0.26920000  0.60698000  0.04721000  1
  C  C229  1  0.12519000  0.53533000  0.03373000  1
  C  C230  1  0.35518000  0.60370000  0.85041000  1
  C  C231  1  0.26993000  0.66192000  0.83285000  1
  C  C232  1  0.14969000  0.63825000  0.85177000  1
  C  C233  1  0.11801000  0.56918000  0.81892000  1
  C  C234  1  0.20498000  0.51188000  0.83640000  1
  C  C235  1  0.32422000  0.53549000  0.81674000  1
  C  C236  1  0.35224000  0.59176000  0.91967000  1
  C  C237  1  0.23305000  0.56857000  0.93835000  1
  C  C238  1  0.14789000  0.62618000  0.92085000  1
  C  C239  1  0.20342000  0.49993000  0.90558000  1
  C  C240  1  0.98919000  0.19163000  0.82111000  1
  C  C241  1  0.93113000  0.08414000  0.83901000  1
  C  C242  1  0.41225000  0.26486000  0.82601000  1
  C  C243  1  0.54983000  0.19135000  0.84657000  1
  C  C244  1  0.40786000  0.89800000  0.82292000  1
  C  C245  1  0.25755000  0.90773000  0.76518000  1
  C  C246  1  0.23077000  0.10773000  0.04692000  1
  C  C247  1  0.37450000  0.03575000  0.03366000  1
  C  C248  1  0.14503000  0.10368000  0.85015000  1
  C  C249  1  0.23030000  0.16186000  0.83262000  1
  C  C250  1  0.35045000  0.13822000  0.85164000  1
  C  C251  1  0.38223000  0.06909000  0.81892000  1
  C  C252  1  0.29519000  0.01180000  0.83637000  1
  C  C253  1  0.17604000  0.03543000  0.81656000  1
  C  C254  1  0.14778000  0.09186000  0.91943000  1
  C  C255  1  0.26686000  0.06869000  0.93822000  1
  C  C256  1  0.35213000  0.12622000  0.92072000  1
  C  C257  1  0.29651000  0.99994000  0.90560000  1
  C  C258  1  0.48891000  0.30845000  0.17889000  1
  C  C259  1  0.43089000  0.41596000  0.16102000  1
  C  C260  1  0.91244000  0.23516000  0.17388000  1
  C  C261  1  0.04989000  0.30887000  0.15350000  1
  C  C262  1  0.90788000  0.60178000  0.17709000  1
  C  C263  1  0.75729000  0.59230000  0.23468000  1
  C  C264  1  0.73080000  0.39301000  0.95279000  1
  C  C265  1  0.87480000  0.46467000  0.96627000  1
  C  C266  1  0.64481000  0.39630000  0.14959000  1
  C  C267  1  0.73006000  0.33808000  0.16715000  1
  C  C268  1  0.85030000  0.36175000  0.14823000  1
  C  C269  1  0.88199000  0.43082000  0.18108000  1
  C  C270  1  0.79501000  0.48812000  0.16360000  1
  C  C271  1  0.67577000  0.46451000  0.18326000  1
  C  C272  1  0.64776000  0.40824000  0.08033000  1
  C  C273  1  0.76695000  0.43143000  0.06165000  1
  C  C274  1  0.85211000  0.37382000  0.07915000  1
  C  C275  1  0.79657000  0.50007000  0.09441000  1
  C  C276  1  0.48890000  0.69155000  0.67888000  1
  C  C277  1  0.43088000  0.58404000  0.66102000  1
  C  C278  1  0.91244000  0.76484000  0.67388000  1
  C  C279  1  0.04988000  0.69112000  0.65350000  1
  C  C280  1  0.90787000  0.39822000  0.67708000  1
  C  C281  1  0.75729000  0.40770000  0.73467000  1
  C  C282  1  0.73078000  0.60696000  0.45279000  1
  C  C283  1  0.87479000  0.53532000  0.46626000  1
  C  C284  1  0.64480000  0.60370000  0.64959000  1
  C  C285  1  0.73005000  0.66192000  0.66715000  1
  C  C286  1  0.85029000  0.63825000  0.64823000  1
  C  C287  1  0.88198000  0.56918000  0.68107000  1
  C  C288  1  0.79501000  0.51188000  0.66360000  1
  C  C289  1  0.67577000  0.53549000  0.68325000  1
  C  C290  1  0.64775000  0.59175000  0.58033000  1
  C  C291  1  0.76694000  0.56856000  0.56165000  1
  C  C292  1  0.85210000  0.62617000  0.57914000  1
  C  C293  1  0.79656000  0.49992000  0.59441000  1
  C  C294  1  0.98918000  0.80836000  0.32111000  1
  C  C295  1  0.93113000  0.91586000  0.33900000  1
  C  C296  1  0.41225000  0.73513000  0.32601000  1
  C  C297  1  0.54982000  0.80865000  0.34657000  1
  C  C298  1  0.40786000  0.10200000  0.32293000  1
  C  C299  1  0.25756000  0.09226000  0.26518000  1
  C  C300  1  0.23076000  0.89229000  0.54692000  1
  C  C301  1  0.37449000  0.96426000  0.53367000  1
  C  C302  1  0.14502000  0.89632000  0.35015000  1
  C  C303  1  0.23029000  0.83813000  0.33262000  1
  C  C304  1  0.35044000  0.86178000  0.35164000  1
  C  C305  1  0.38222000  0.93091000  0.31892000  1
  C  C306  1  0.29519000  0.98820000  0.33638000  1
  C  C307  1  0.17604000  0.96457000  0.31656000  1
  C  C308  1  0.14777000  0.90815000  0.41943000  1
  C  C309  1  0.26685000  0.93132000  0.43822000  1
  C  C310  1  0.35212000  0.87379000  0.42072000  1
  C  C311  1  0.29650000  0.00007000  0.40560000  1
  N  N312  1  0.62392000  0.30915000  0.31929000  1
  N  N313  1  0.66138000  0.37724000  0.33036000  1
  N  N314  1  0.47189000  0.37526000  0.33315000  1
  N  N315  1  0.99313000  0.19755000  0.33005000  1
  N  N316  1  0.90635000  0.24447000  0.34297000  1
  N  N317  1  0.06590000  0.30604000  0.33587000  1
  N  N318  1  0.10485000  0.66227000  0.29401000  1
  N  N319  1  0.20004000  0.65615000  0.25726000  1
  N  N320  1  0.17774000  0.55570000  0.30642000  1
  N  N321  1  0.19538000  0.38359000  0.59298000  1
  N  N322  1  0.10565000  0.42864000  0.58501000  1
  N  N323  1  0.23018000  0.44549000  0.50687000  1
  N  N324  1  0.12368000  0.19105000  0.68031000  1
  N  N325  1  0.16111000  0.12295000  0.66927000  1
  N  N326  1  0.97163000  0.12477000  0.66707000  1
  N  N327  1  0.49353000  0.30263000  0.66980000  1
  N  N328  1  0.40663000  0.25582000  0.65677000  1
  N  N329  1  0.56586000  0.19400000  0.66428000  1
  N  N330  1  0.60505000  0.83751000  0.70596000  1
  N  N331  1  0.70004000  0.84381000  0.74282000  1
  N  N332  1  0.67751000  0.94423000  0.69365000  1
  N  N333  1  0.69532000  0.11718000  0.40734000  1
  N  N334  1  0.60577000  0.07196000  0.41518000  1
  N  N335  1  0.73049000  0.05491000  0.49320000  1
  N  N336  1  0.12367000  0.80895000  0.18032000  1
  N  N337  1  0.16110000  0.87704000  0.16927000  1
  N  N338  1  0.97162000  0.87523000  0.16707000  1
  N  N339  1  0.49353000  0.69736000  0.16980000  1
  N  N340  1  0.40663000  0.74416000  0.15677000  1
  N  N341  1  0.56585000  0.80600000  0.16428000  1
  N  N342  1  0.60506000  0.16249000  0.20597000  1
  N  N343  1  0.70004000  0.15619000  0.24283000  1
  N  N344  1  0.67751000  0.05577000  0.19365000  1
  N  N345  1  0.69532000  0.88281000  0.90733000  1
  N  N346  1  0.60578000  0.92803000  0.91518000  1
  N  N347  1  0.73048000  0.94507000  0.99321000  1
  N  N348  1  0.62391000  0.69085000  0.81928000  1
  N  N349  1  0.66137000  0.62276000  0.83036000  1
  N  N350  1  0.47188000  0.62474000  0.83315000  1
  N  N351  1  0.99314000  0.80245000  0.83005000  1
  N  N352  1  0.90635000  0.75553000  0.84297000  1
  N  N353  1  0.06589000  0.69396000  0.83587000  1
  N  N354  1  0.10485000  0.33772000  0.79400000  1
  N  N355  1  0.20004000  0.34384000  0.75725000  1
  N  N356  1  0.17774000  0.44429000  0.80641000  1
  N  N357  1  0.19537000  0.61642000  0.09299000  1
  N  N358  1  0.10564000  0.57136000  0.08501000  1
  N  N359  1  0.23016000  0.55453000  0.00686000  1
  N  N360  1  0.87632000  0.19105000  0.81968000  1
  N  N361  1  0.83889000  0.12295000  0.83073000  1
  N  N362  1  0.02837000  0.12477000  0.83293000  1
  N  N363  1  0.50646000  0.30264000  0.83020000  1
  N  N364  1  0.59336000  0.25584000  0.84323000  1
  N  N365  1  0.43414000  0.19400000  0.83572000  1
  N  N366  1  0.39494000  0.83751000  0.79403000  1
  N  N367  1  0.29995000  0.84380000  0.75717000  1
  N  N368  1  0.32248000  0.94423000  0.80635000  1
  N  N369  1  0.30467000  0.11719000  0.09267000  1
  N  N370  1  0.39422000  0.07197000  0.08482000  1
  N  N371  1  0.26952000  0.05493000  0.00679000  1
  N  N372  1  0.37608000  0.30915000  0.18072000  1
  N  N373  1  0.33862000  0.37724000  0.16964000  1
  N  N374  1  0.52811000  0.37525000  0.16685000  1
  N  N375  1  0.00686000  0.19754000  0.16995000  1
  N  N376  1  0.09364000  0.24447000  0.15703000  1
  N  N377  1  0.93410000  0.30604000  0.16413000  1
  N  N378  1  0.89514000  0.66228000  0.20599000  1
  N  N379  1  0.79995000  0.65616000  0.24275000  1
  N  N380  1  0.82225000  0.55571000  0.19359000  1
  N  N381  1  0.80462000  0.38358000  0.90701000  1
  N  N382  1  0.89435000  0.42864000  0.91498000  1
  N  N383  1  0.76983000  0.44547000  0.99314000  1
  N  N384  1  0.37607000  0.69085000  0.68071000  1
  N  N385  1  0.33861000  0.62276000  0.66964000  1
  N  N386  1  0.52810000  0.62474000  0.66685000  1
  N  N387  1  0.00686000  0.80245000  0.66995000  1
  N  N388  1  0.09364000  0.75552000  0.65703000  1
  N  N389  1  0.93410000  0.69396000  0.66413000  1
  N  N390  1  0.89514000  0.33772000  0.70599000  1
  N  N391  1  0.79995000  0.34385000  0.74274000  1
  N  N392  1  0.82225000  0.44429000  0.69358000  1
  N  N393  1  0.80462000  0.61641000  0.40702000  1
  N  N394  1  0.89435000  0.57135000  0.41499000  1
  N  N395  1  0.76981000  0.55451000  0.49313000  1
  N  N396  1  0.87631000  0.80895000  0.31969000  1
  N  N397  1  0.83889000  0.87704000  0.33073000  1
  N  N398  1  0.02836000  0.87523000  0.33293000  1
  N  N399  1  0.50647000  0.69737000  0.33020000  1
  N  N400  1  0.59336000  0.74417000  0.34323000  1
  N  N401  1  0.43414000  0.80600000  0.33572000  1
  N  N402  1  0.39494000  0.16248000  0.29404000  1
  N  N403  1  0.29996000  0.15619000  0.25718000  1
  N  N404  1  0.32248000  0.05577000  0.30635000  1
  N  N405  1  0.30467000  0.88282000  0.59266000  1
  N  N406  1  0.39422000  0.92803000  0.58482000  1
  N  N407  1  0.26951000  0.94509000  0.50680000  1
