# generated using pymatgen
data_V2NiH10C12N2O5
_symmetry_space_group_name_H-M   'P 1'
_cell_length_a   7.82056000
_cell_length_b   11.43277000
_cell_length_c   13.35709000
_cell_angle_alpha   94.96010000
_cell_angle_beta   106.12323000
_cell_angle_gamma   100.90427000
_symmetry_Int_Tables_number   1
_chemical_formula_structural   V2NiH10C12N2O5
_chemical_formula_sum   'V4 Ni2 H20 C24 N4 O10'
_cell_volume   1114.28036285
_cell_formula_units_Z   2
loop_
 _symmetry_equiv_pos_site_id
 _symmetry_equiv_pos_as_xyz
  1  'x, y, z'
loop_
 _atom_site_type_symbol
 _atom_site_label
 _atom_site_symmetry_multiplicity
 _atom_site_fract_x
 _atom_site_fract_y
 _atom_site_fract_z
 _atom_site_occupancy
  V  V0  1  0.86467000  0.68591000  0.98204000  1
  V  V1  1  0.83410000  0.44667000  0.88697000  1
  V  V2  1  0.13934000  0.31878000  0.02115000  1
  V  V3  1  0.17251000  0.55938000  0.11434000  1
  Ni  Ni4  1  0.50385000  0.50112000  0.00136000  1
  Ni  Ni5  1  0.00316000  0.00168000  0.00113000  1
  H  H6  1  0.10104000  0.85824000  0.84132000  1
  H  H7  1  0.10595000  0.86756000  0.65806000  1
  H  H8  1  0.85781000  0.17489000  0.66091000  1
  H  H9  1  0.86383000  0.15438000  0.84347000  1
  H  H10  1  0.91790000  0.11276000  0.50514000  1
  H  H11  1  0.64536000  0.66449000  0.20810000  1
  H  H12  1  0.83048000  0.65759000  0.39019000  1
  H  H13  1  0.91631000  0.31430000  0.27352000  1
  H  H14  1  0.71409000  0.33187000  0.09844000  1
  H  H15  1  0.06530000  0.39314000  0.45583000  1
  H  H16  1  0.90725000  0.14577000  0.16150000  1
  H  H17  1  0.89231000  0.13187000  0.34279000  1
  H  H18  1  0.13975000  0.82366000  0.33896000  1
  H  H19  1  0.14199000  0.84880000  0.15819000  1
  H  H20  1  0.08100000  0.88636000  0.49508000  1
  H  H21  1  0.36229000  0.33713000  0.79500000  1
  H  H22  1  0.17263000  0.34227000  0.61362000  1
  H  H23  1  0.08692000  0.68506000  0.72978000  1
  H  H24  1  0.29391000  0.66981000  0.90414000  1
  H  H25  1  0.93781000  0.60654000  0.54781000  1
  C  C26  1  0.04910000  0.92702000  0.79787000  1
  C  C27  1  0.04970000  0.93306000  0.69518000  1
  C  C28  1  0.97953000  0.02262000  0.64058000  1
  C  C29  1  0.91321000  0.10329000  0.69776000  1
  C  C30  1  0.91591000  0.09169000  0.80034000  1
  C  C31  1  0.97278000  0.03628000  0.53305000  1
  C  C32  1  0.70386000  0.58662000  0.22814000  1
  C  C33  1  0.80678000  0.58151000  0.32931000  1
  C  C34  1  0.88491000  0.48102000  0.35101000  1
  C  C35  1  0.85237000  0.39106000  0.26484000  1
  C  C36  1  0.74291000  0.40093000  0.16603000  1
  C  C37  1  0.99304000  0.46610000  0.45555000  1
  C  C38  1  0.95740000  0.07614000  0.20452000  1
  C  C39  1  0.95111000  0.06754000  0.30597000  1
  C  C40  1  0.01958000  0.97691000  0.35995000  1
  C  C41  1  0.08700000  0.89669000  0.30292000  1
  C  C42  1  0.08957000  0.91098000  0.20156000  1
  C  C43  1  0.02592000  0.96284000  0.46735000  1
  C  C44  1  0.30294000  0.41459000  0.77486000  1
  C  C45  1  0.19753000  0.41881000  0.67405000  1
  C  C46  1  0.11856000  0.51871000  0.65222000  1
  C  C47  1  0.15201000  0.60905000  0.73819000  1
  C  C48  1  0.26390000  0.60040000  0.83661000  1
  C  C49  1  0.00972000  0.53344000  0.54783000  1
  N  N50  1  0.98451000  0.00591000  0.85223000  1
  N  N51  1  0.66718000  0.49681000  0.14744000  1
  N  N52  1  0.02378000  0.99815000  0.15035000  1
  N  N53  1  0.34087000  0.50521000  0.85500000  1
  O  O54  1  0.65730000  0.40746000  0.93160000  1
  O  O55  1  0.65425000  0.66892000  0.99139000  1
  O  O56  1  0.01177000  0.65208000  0.10564000  1
  O  O57  1  0.94366000  0.82929000  0.97054000  1
  O  O58  1  0.85258000  0.59591000  0.85802000  1
  O  O59  1  0.35084000  0.59654000  0.06988000  1
  O  O60  1  0.34848000  0.33732000  0.00920000  1
  O  O61  1  0.98785000  0.34984000  0.89875000  1
  O  O62  1  0.06283000  0.17449000  0.03072000  1
  O  O63  1  0.15153000  0.41038000  0.14475000  1
