# generated using pymatgen
data_H11C18N4O3
_symmetry_space_group_name_H-M   'P 1'
_cell_length_a   31.02215000
_cell_length_b   31.02220000
_cell_length_c   34.91440000
_cell_angle_alpha   90.00000000
_cell_angle_beta   90.00000000
_cell_angle_gamma   120.00015995
_symmetry_Int_Tables_number   1
_chemical_formula_structural   H11C18N4O3
_chemical_formula_sum   'H198 C324 N72 O54'
_cell_volume   29099.06279457
_cell_formula_units_Z   18
loop_
 _symmetry_equiv_pos_site_id
 _symmetry_equiv_pos_as_xyz
  1  'x, y, z'
loop_
 _atom_site_type_symbol
 _atom_site_label
 _atom_site_symmetry_multiplicity
 _atom_site_fract_x
 _atom_site_fract_y
 _atom_site_fract_z
 _atom_site_occupancy
  H  7  1  0.41724600  0.47660600  0.05728600  1
  H  8  1  0.41279000  0.59501300  0.00243400  1
  H  15  1  0.54287500  0.39076900  0.00864900  1
  H  16  1  0.43278100  0.42500300  0.97647000  1
  H  19  1  0.55551600  0.58136300  0.96999100  1
  H  20  1  0.58247600  0.55509700  0.04035300  1
  H  22  1  0.47019400  0.33396700  0.97188100  1
  H  24  1  0.61926300  0.46751500  0.03902700  1
  H  26  1  0.37306100  0.55946000  0.06618200  1
  H  28  1  0.48553700  0.64568800  0.95824400  1
  H  35  1  0.01528100  0.53419000  0.39038900  1
  H  36  1  0.13757900  0.53761700  0.33542000  1
  H  43  1  0.80347600  0.40877700  0.34233100  1
  H  44  1  0.94793700  0.51854400  0.31013300  1
  H  47  1  0.98091200  0.39486700  0.30382600  1
  H  48  1  0.92766900  0.36840500  0.37381700  1
  H  50  1  0.81972200  0.48176400  0.30549000  1
  H  52  1  0.80389900  0.33200200  0.37241300  1
  H  54  1  0.14222700  0.57802000  0.39897800  1
  H  56  1  0.11512200  0.46446400  0.29158700  1
  H  63  1  0.47407000  0.93537900  0.72362700  1
  H  64  1  0.35522400  0.81322000  0.66850600  1
  H  71  1  0.56087700  0.14726900  0.67562700  1
  H  72  1  0.52623900  0.00280800  0.64346200  1
  H  75  1  0.36968500  0.97003600  0.63665100  1
  H  76  1  0.39614200  0.02310600  0.70670300  1
  H  78  1  0.61769400  0.13103900  0.63900000  1
  H  80  1  0.48343500  0.14674300  0.70541700  1
  H  82  1  0.39073000  0.80851100  0.73220100  1
  H  84  1  0.30481400  0.83581700  0.62448700  1
  H  97  1  0.43815800  0.10773700  0.82978500  1
  H  98  1  0.47451500  0.26541100  0.77588000  1
  H  99  1  0.49231400  0.21204600  0.73903900  1
  H  100  1  0.47676100  0.37006200  0.85226700  1
  H  101  1  0.40836900  0.26199200  0.93934000  1
  H  102  1  0.40620400  0.20083000  0.89663400  1
  H  119  1  0.62852100  0.51797000  0.16122000  1
  H  120  1  0.74211700  0.46860100  0.11099700  1
  H  121  1  0.67098400  0.45167100  0.07429600  1
  H  122  1  0.84727000  0.47116300  0.18643000  1
  H  123  1  0.81052400  0.54397600  0.27185000  1
  H  124  1  0.75131500  0.54553500  0.22901100  1
  H  141  1  0.84419100  0.32421500  0.49562600  1
  H  142  1  0.68368800  0.20662800  0.44363300  1
  H  143  1  0.73732700  0.27788800  0.40688400  1
  H  144  1  0.58040500  0.10266800  0.51958500  1
  H  145  1  0.68940000  0.14096800  0.60572400  1
  H  146  1  0.75024700  0.20015100  0.56291100  1
  H  163  1  0.53738600  0.85235700  0.77932000  1
  H  164  1  0.40704800  0.68028600  0.77505500  1
  H  165  1  0.40162900  0.73853900  0.73374300  1
  H  166  1  0.41556900  0.58141700  0.85106900  1
  H  167  1  0.54035800  0.69793400  0.90695900  1
  H  168  1  0.54200200  0.75465300  0.85992700  1
  H  185  1  0.27056700  0.41279000  0.11340900  1
  H  186  1  0.22809500  0.54258000  0.10848800  1
  H  187  1  0.29205800  0.54818800  0.06743000  1
  H  188  1  0.12074600  0.53419800  0.18445100  1
  H  189  1  0.11238200  0.40944500  0.24046200  1
  H  190  1  0.16750700  0.40775300  0.19350700  1
  H  207  1  0.09826800  0.68089000  0.44577900  1
  H  208  1  0.27039200  0.72280800  0.44144800  1
  H  209  1  0.21211700  0.65895000  0.40027600  1
  H  210  1  0.36919800  0.83005600  0.51752800  1
  H  211  1  0.25273900  0.83866200  0.57320500  1
  H  212  1  0.19604700  0.78362700  0.52614700  1
  H  223  1  0.41724600  0.47660600  0.74223000  1
  H  224  1  0.41279000  0.59501300  0.68737800  1
  H  231  1  0.54287500  0.39076900  0.69359300  1
  H  232  1  0.43278100  0.42500300  0.66141400  1
  H  235  1  0.55551600  0.58136300  0.65493500  1
  H  236  1  0.58247600  0.55509700  0.72529700  1
  H  238  1  0.47019400  0.33396700  0.65682500  1
  H  240  1  0.61926300  0.46751500  0.72397100  1
  H  242  1  0.37306100  0.55946000  0.75112600  1
  H  244  1  0.48553700  0.64568800  0.64318800  1
  H  251  1  0.01528100  0.53419000  0.07533300  1
  H  252  1  0.13757900  0.53761700  0.02036400  1
  H  259  1  0.80347600  0.40877700  0.02727500  1
  H  260  1  0.94793700  0.51854400  0.99507675  1
  H  263  1  0.98091200  0.39486700  0.98876970  1
  H  264  1  0.92766900  0.36840500  0.05876100  1
  H  266  1  0.81972200  0.48176400  0.99043375  1
  H  268  1  0.80389900  0.33200200  0.05735700  1
  H  270  1  0.14222700  0.57802000  0.08392200  1
  H  272  1  0.11512200  0.46446400  0.97653070  1
  H  279  1  0.47407000  0.93537900  0.40857100  1
  H  280  1  0.35522400  0.81322000  0.35345000  1
  H  287  1  0.56087700  0.14726900  0.36057100  1
  H  288  1  0.52623900  0.00280800  0.32840600  1
  H  291  1  0.36968500  0.97003600  0.32159500  1
  H  292  1  0.39614200  0.02310600  0.39164700  1
  H  294  1  0.61769400  0.13103900  0.32394400  1
  H  296  1  0.48343500  0.14674300  0.39036100  1
  H  298  1  0.39073000  0.80851100  0.41714500  1
  H  300  1  0.30481400  0.83581700  0.30943100  1
  H  313  1  0.43815800  0.10773700  0.51472900  1
  H  314  1  0.47451500  0.26541100  0.46082400  1
  H  315  1  0.49231400  0.21204600  0.42398300  1
  H  316  1  0.47676100  0.37006200  0.53721100  1
  H  317  1  0.40836900  0.26199200  0.62428400  1
  H  318  1  0.40620400  0.20083000  0.58157800  1
  H  335  1  0.62852100  0.51797000  0.84616400  1
  H  336  1  0.74211700  0.46860100  0.79594100  1
  H  337  1  0.67098400  0.45167100  0.75924000  1
  H  338  1  0.84727000  0.47116300  0.87137400  1
  H  339  1  0.81052400  0.54397600  0.95679370  1
  H  340  1  0.75131500  0.54553500  0.91395470  1
  H  357  1  0.84419100  0.32421500  0.18057000  1
  H  358  1  0.68368800  0.20662800  0.12857700  1
  H  359  1  0.73732700  0.27788800  0.09182800  1
  H  360  1  0.58040500  0.10266800  0.20452900  1
  H  361  1  0.68940000  0.14096800  0.29066800  1
  H  362  1  0.75024700  0.20015100  0.24785500  1
  H  379  1  0.53738600  0.85235700  0.46426400  1
  H  380  1  0.40704800  0.68028600  0.45999900  1
  H  381  1  0.40162900  0.73853900  0.41868700  1
  H  382  1  0.41556900  0.58141700  0.53601300  1
  H  383  1  0.54035800  0.69793400  0.59190300  1
  H  384  1  0.54200200  0.75465300  0.54487100  1
  H  401  1  0.27056700  0.41279000  0.79835300  1
  H  402  1  0.22809500  0.54258000  0.79343200  1
  H  403  1  0.29205800  0.54818800  0.75237400  1
  H  404  1  0.12074600  0.53419800  0.86939500  1
  H  405  1  0.11238200  0.40944500  0.92540570  1
  H  406  1  0.16750700  0.40775300  0.87845100  1
  H  423  1  0.09826800  0.68089000  0.13072300  1
  H  424  1  0.27039200  0.72280800  0.12639200  1
  H  425  1  0.21211700  0.65895000  0.08522000  1
  H  426  1  0.36919800  0.83005600  0.20247200  1
  H  427  1  0.25273900  0.83866200  0.25814900  1
  H  428  1  0.19604700  0.78362700  0.21109100  1
  H  439  1  0.41724600  0.47660600  0.42717300  1
  H  440  1  0.41279000  0.59501300  0.37232100  1
  H  447  1  0.54287500  0.39076900  0.37853600  1
  H  448  1  0.43278100  0.42500300  0.34635700  1
  H  451  1  0.55551600  0.58136300  0.33987800  1
  H  452  1  0.58247600  0.55509700  0.41024000  1
  H  454  1  0.47019400  0.33396700  0.34176800  1
  H  456  1  0.61926300  0.46751500  0.40891400  1
  H  458  1  0.37306100  0.55946000  0.43606900  1
  H  460  1  0.48553700  0.64568800  0.32813100  1
  H  467  1  0.01528100  0.53419000  0.76027600  1
  H  468  1  0.13757900  0.53761700  0.70530700  1
  H  475  1  0.80347600  0.40877700  0.71221800  1
  H  476  1  0.94793700  0.51854400  0.68002000  1
  H  479  1  0.98091200  0.39486700  0.67371300  1
  H  480  1  0.92766900  0.36840500  0.74370400  1
  H  482  1  0.81972200  0.48176400  0.67537700  1
  H  484  1  0.80389900  0.33200200  0.74230000  1
  H  486  1  0.14222700  0.57802000  0.76886500  1
  H  488  1  0.11512200  0.46446400  0.66147400  1
  H  495  1  0.47407000  0.93537900  0.09351400  1
  H  496  1  0.35522400  0.81322000  0.03839300  1
  H  503  1  0.56087700  0.14726900  0.04551400  1
  H  504  1  0.52623900  0.00280800  0.01334900  1
  H  507  1  0.36968500  0.97003600  0.00653800  1
  H  508  1  0.39614200  0.02310600  0.07659000  1
  H  510  1  0.61769400  0.13103900  0.00888700  1
  H  512  1  0.48343500  0.14674300  0.07530400  1
  H  514  1  0.39073000  0.80851100  0.10208800  1
  H  516  1  0.30481400  0.83581700  0.99437450  1
  H  529  1  0.43815800  0.10773700  0.19967200  1
  H  530  1  0.47451500  0.26541100  0.14576700  1
  H  531  1  0.49231400  0.21204600  0.10892600  1
  H  532  1  0.47676100  0.37006200  0.22215400  1
  H  533  1  0.40836900  0.26199200  0.30922700  1
  H  534  1  0.40620400  0.20083000  0.26652100  1
  H  551  1  0.62852100  0.51797000  0.53110700  1
  H  552  1  0.74211700  0.46860100  0.48088400  1
  H  553  1  0.67098400  0.45167100  0.44418300  1
  H  554  1  0.84727000  0.47116300  0.55631700  1
  H  555  1  0.81052400  0.54397600  0.64173700  1
  H  556  1  0.75131500  0.54553500  0.59889800  1
  H  573  1  0.84419100  0.32421500  0.86551300  1
  H  574  1  0.68368800  0.20662800  0.81352000  1
  H  575  1  0.73732700  0.27788800  0.77677100  1
  H  576  1  0.58040500  0.10266800  0.88947200  1
  H  577  1  0.68940000  0.14096800  0.97561150  1
  H  578  1  0.75024700  0.20015100  0.93279850  1
  H  595  1  0.53738600  0.85235700  0.14920700  1
  H  596  1  0.40704800  0.68028600  0.14494200  1
  H  597  1  0.40162900  0.73853900  0.10363000  1
  H  598  1  0.41556900  0.58141700  0.22095600  1
  H  599  1  0.54035800  0.69793400  0.27684600  1
  H  600  1  0.54200200  0.75465300  0.22981400  1
  H  617  1  0.27056700  0.41279000  0.48329600  1
  H  618  1  0.22809500  0.54258000  0.47837500  1
  H  619  1  0.29205800  0.54818800  0.43731700  1
  H  620  1  0.12074600  0.53419800  0.55433800  1
  H  621  1  0.11238200  0.40944500  0.61034900  1
  H  622  1  0.16750700  0.40775300  0.56339400  1
  H  639  1  0.09826800  0.68089000  0.81566600  1
  H  640  1  0.27039200  0.72280800  0.81133500  1
  H  641  1  0.21211700  0.65895000  0.77016300  1
  H  642  1  0.36919800  0.83005600  0.88741500  1
  H  643  1  0.25273900  0.83866200  0.94309250  1
  H  644  1  0.19604700  0.78362700  0.89603400  1
  C  1  1  0.46911600  0.51011500  0.01237600  1
  C  2  1  0.43022900  0.50387200  0.03679000  1
  C  3  1  0.40908100  0.53480800  0.03341000  1
  C  4  1  0.42865100  0.57314500  0.00574800  1
  C  5  1  0.46651900  0.57898600  0.98022700  1
  C  6  1  0.48755300  0.54790900  0.98418400  1
  C  9  1  0.48709400  0.47644600  0.01441800  1
  C  10  1  0.53064100  0.48822000  0.03528900  1
  C  11  1  0.54995400  0.45539700  0.03453300  1
  C  12  1  0.52747400  0.41320800  0.01045100  1
  C  13  1  0.48497600  0.40186100  0.98821900  1
  C  14  1  0.46422100  0.43313100  0.99162700  1
  C  29  1  0.99647300  0.48178200  0.34583100  1
  C  30  1  0.02935900  0.52091800  0.36995300  1
  C  31  1  0.08140000  0.54189000  0.36639000  1
  C  32  1  0.09988000  0.52193400  0.33881700  1
  C  33  1  0.06760300  0.48380200  0.31357800  1
  C  34  1  0.01553800  0.46293300  0.31772800  1
  C  37  1  0.94488000  0.46405700  0.34799700  1
  C  38  1  0.91300700  0.42051500  0.36883300  1
  C  39  1  0.86089800  0.40139600  0.36812600  1
  C  40  1  0.84129900  0.42408100  0.34415000  1
  C  41  1  0.87256700  0.46657100  0.32196100  1
  C  42  1  0.92456900  0.48714700  0.32531800  1
  C  57  1  0.44075900  0.95429000  0.67891500  1
  C  58  1  0.44679800  0.92135000  0.70313100  1
  C  59  1  0.41563700  0.86932200  0.69956500  1
  C  60  1  0.37727400  0.85090700  0.67193200  1
  C  61  1  0.37163800  0.88323300  0.64659600  1
  C  62  1  0.40294800  0.93529100  0.65073100  1
  C  65  1  0.47465700  0.00586800  0.68115400  1
  C  66  1  0.46292500  0.03774500  0.70191900  1
  C  67  1  0.49594900  0.08984200  0.70127800  1
  C  68  1  0.53833300  0.10944600  0.67740800  1
  C  69  1  0.54964700  0.07818600  0.65528300  1
  C  70  1  0.51817400  0.02618100  0.65860500  1
  C  85  1  0.44346200  0.32304300  0.90076300  1
  C  86  1  0.42200400  0.27270100  0.91218500  1
  C  87  1  0.42036900  0.23652400  0.88699000  1
  C  88  1  0.44052100  0.25045600  0.84970100  1
  C  90  1  0.46019000  0.33443700  0.86246200  1
  C  91  1  0.44638100  0.21766500  0.82451800  1
  C  92  1  0.46592100  0.23157000  0.78708200  1
  C  93  1  0.47600900  0.19958600  0.76519200  1
  C  94  1  0.46678100  0.15316600  0.77986300  1
  C  95  1  0.44613500  0.14060100  0.81711300  1
  C  103  1  0.47860800  0.12051300  0.75943700  1
  C  104  1  0.45127400  0.36155600  0.92692100  1
  C  107  1  0.83510600  0.50687800  0.23407800  1
  C  108  1  0.80697100  0.52934200  0.24499000  1
  C  109  1  0.77233100  0.53062900  0.21970000  1
  C  110  1  0.76514200  0.50896000  0.18289600  1
  C  112  1  0.82891800  0.48867500  0.19617700  1
  C  113  1  0.72636000  0.50284800  0.15773700  1
  C  114  1  0.71859300  0.47997600  0.12138200  1
  C  115  1  0.67664500  0.47042200  0.09955200  1
  C  116  1  0.64177600  0.48352900  0.11324200  1
  C  117  1  0.65179100  0.50718900  0.14940800  1
  C  125  1  0.59757300  0.47247200  0.09286700  1
  C  126  1  0.86590000  0.49956800  0.26045100  1
  C  129  1  0.62796000  0.11562900  0.56760800  1
  C  130  1  0.67843700  0.14423100  0.57874100  1
  C  131  1  0.71441100  0.17888300  0.55348500  1
  C  132  1  0.70011300  0.18556400  0.51646000  1
  C  134  1  0.61617100  0.12136400  0.52952100  1
  C  135  1  0.73273200  0.22434700  0.49128400  1
  C  136  1  0.71807100  0.23108400  0.45443100  1
  C  137  1  0.75016000  0.27316400  0.43259500  1
  C  138  1  0.79742400  0.30920500  0.44675000  1
  C  139  1  0.81067300  0.30012900  0.48341400  1
  C  147  1  0.83026600  0.35357100  0.42636000  1
  C  148  1  0.58969100  0.08486800  0.59388700  1
  C  151  1  0.47750200  0.63352500  0.88435100  1
  C  152  1  0.51428100  0.68447600  0.88557800  1
  C  153  1  0.51561200  0.71783100  0.85769500  1
  C  154  1  0.47938700  0.70050700  0.82827500  1
  C  156  1  0.44354700  0.61756600  0.85346900  1
  C  157  1  0.47571700  0.73282100  0.80121300  1
  C  158  1  0.43498000  0.71663600  0.77578300  1
  C  159  1  0.43146500  0.75117500  0.75185500  1
  C  160  1  0.46852300  0.80204800  0.75249300  1
  C  161  1  0.50946300  0.81613200  0.77723300  1
  C  169  1  0.46527000  0.83815400  0.72962400  1
  C  170  1  0.47326100  0.59973500  0.91354600  1
  C  173  1  0.11085700  0.47228100  0.21778100  1
  C  174  1  0.12499900  0.43547900  0.21905300  1
  C  175  1  0.15705500  0.43412200  0.19121000  1
  C  176  1  0.17603400  0.47035000  0.16179300  1
  C  178  1  0.12888200  0.50620000  0.18687700  1
  C  179  1  0.21214900  0.47407100  0.13483500  1
  C  180  1  0.23666600  0.51475900  0.10935600  1
  C  181  1  0.27489600  0.51839000  0.08558000  1
  C  182  1  0.28893600  0.48150100  0.08641700  1
  C  183  1  0.26209300  0.44058000  0.11117400  1
  C  191  1  0.32845800  0.48488400  0.06368100  1
  C  192  1  0.08141500  0.47668800  0.24698700  1
  C  195  1  0.31712500  0.84008000  0.55069500  1
  C  196  1  0.26620000  0.82602000  0.55184400  1
  C  197  1  0.23286800  0.79404300  0.52393000  1
  C  198  1  0.25017000  0.77502700  0.49457800  1
  C  200  1  0.33309500  0.82206700  0.51983100  1
  C  201  1  0.21784100  0.73894600  0.46757500  1
  C  202  1  0.23402900  0.71435000  0.44219300  1
  C  203  1  0.19947900  0.67618600  0.41834600  1
  C  204  1  0.14858700  0.66230400  0.41901300  1
  C  205  1  0.13450100  0.68922500  0.44367900  1
  C  213  1  0.11247200  0.62280900  0.39624000  1
  C  214  1  0.35087400  0.86951900  0.57995500  1
  C  217  1  0.46911600  0.51011500  0.69732000  1
  C  218  1  0.43022900  0.50387200  0.72173400  1
  C  219  1  0.40908100  0.53480800  0.71835400  1
  C  220  1  0.42865100  0.57314500  0.69069200  1
  C  221  1  0.46651900  0.57898600  0.66517100  1
  C  222  1  0.48755300  0.54790900  0.66912800  1
  C  225  1  0.48709400  0.47644600  0.69936200  1
  C  226  1  0.53064100  0.48822000  0.72023300  1
  C  227  1  0.54995400  0.45539700  0.71947700  1
  C  228  1  0.52747400  0.41320800  0.69539500  1
  C  229  1  0.48497600  0.40186100  0.67316300  1
  C  230  1  0.46422100  0.43313100  0.67657100  1
  C  245  1  0.99647300  0.48178200  0.03077500  1
  C  246  1  0.02935900  0.52091800  0.05489700  1
  C  247  1  0.08140000  0.54189000  0.05133400  1
  C  248  1  0.09988000  0.52193400  0.02376100  1
  C  249  1  0.06760300  0.48380200  0.99852175  1
  C  250  1  0.01553800  0.46293300  0.00267200  1
  C  253  1  0.94488000  0.46405700  0.03294100  1
  C  254  1  0.91300700  0.42051500  0.05377700  1
  C  255  1  0.86089800  0.40139600  0.05307000  1
  C  256  1  0.84129900  0.42408100  0.02909400  1
  C  257  1  0.87256700  0.46657100  0.00690500  1
  C  258  1  0.92456900  0.48714700  0.01026200  1
  C  273  1  0.44075900  0.95429000  0.36385900  1
  C  274  1  0.44679800  0.92135000  0.38807500  1
  C  275  1  0.41563700  0.86932200  0.38450900  1
  C  276  1  0.37727400  0.85090700  0.35687600  1
  C  277  1  0.37163800  0.88323300  0.33154000  1
  C  278  1  0.40294800  0.93529100  0.33567500  1
  C  281  1  0.47465700  0.00586800  0.36609800  1
  C  282  1  0.46292500  0.03774500  0.38686300  1
  C  283  1  0.49594900  0.08984200  0.38622200  1
  C  284  1  0.53833300  0.10944600  0.36235200  1
  C  285  1  0.54964700  0.07818600  0.34022700  1
  C  286  1  0.51817400  0.02618100  0.34354900  1
  C  301  1  0.44346200  0.32304300  0.58570700  1
  C  302  1  0.42200400  0.27270100  0.59712900  1
  C  303  1  0.42036900  0.23652400  0.57193400  1
  C  304  1  0.44052100  0.25045600  0.53464500  1
  C  306  1  0.46019000  0.33443700  0.54740600  1
  C  307  1  0.44638100  0.21766500  0.50946200  1
  C  308  1  0.46592100  0.23157000  0.47202600  1
  C  309  1  0.47600900  0.19958600  0.45013600  1
  C  310  1  0.46678100  0.15316600  0.46480700  1
  C  311  1  0.44613500  0.14060100  0.50205700  1
  C  319  1  0.47860800  0.12051300  0.44438100  1
  C  320  1  0.45127400  0.36155600  0.61186500  1
  C  323  1  0.83510600  0.50687800  0.91902170  1
  C  324  1  0.80697100  0.52934200  0.92993370  1
  C  325  1  0.77233100  0.53062900  0.90464370  1
  C  326  1  0.76514200  0.50896000  0.86784000  1
  C  328  1  0.82891800  0.48867500  0.88112100  1
  C  329  1  0.72636000  0.50284800  0.84268100  1
  C  330  1  0.71859300  0.47997600  0.80632600  1
  C  331  1  0.67664500  0.47042200  0.78449600  1
  C  332  1  0.64177600  0.48352900  0.79818600  1
  C  333  1  0.65179100  0.50718900  0.83435200  1
  C  341  1  0.59757300  0.47247200  0.77781100  1
  C  342  1  0.86590000  0.49956800  0.94539470  1
  C  345  1  0.62796000  0.11562900  0.25255200  1
  C  346  1  0.67843700  0.14423100  0.26368500  1
  C  347  1  0.71441100  0.17888300  0.23842900  1
  C  348  1  0.70011300  0.18556400  0.20140400  1
  C  350  1  0.61617100  0.12136400  0.21446500  1
  C  351  1  0.73273200  0.22434700  0.17622800  1
  C  352  1  0.71807100  0.23108400  0.13937500  1
  C  353  1  0.75016000  0.27316400  0.11753900  1
  C  354  1  0.79742400  0.30920500  0.13169400  1
  C  355  1  0.81067300  0.30012900  0.16835800  1
  C  363  1  0.83026600  0.35357100  0.11130400  1
  C  364  1  0.58969100  0.08486800  0.27883100  1
  C  367  1  0.47750200  0.63352500  0.56929500  1
  C  368  1  0.51428100  0.68447600  0.57052200  1
  C  369  1  0.51561200  0.71783100  0.54263900  1
  C  370  1  0.47938700  0.70050700  0.51321900  1
  C  372  1  0.44354700  0.61756600  0.53841300  1
  C  373  1  0.47571700  0.73282100  0.48615700  1
  C  374  1  0.43498000  0.71663600  0.46072700  1
  C  375  1  0.43146500  0.75117500  0.43679900  1
  C  376  1  0.46852300  0.80204800  0.43743700  1
  C  377  1  0.50946300  0.81613200  0.46217700  1
  C  385  1  0.46527000  0.83815400  0.41456800  1
  C  386  1  0.47326100  0.59973500  0.59849000  1
  C  389  1  0.11085700  0.47228100  0.90272470  1
  C  390  1  0.12499900  0.43547900  0.90399670  1
  C  391  1  0.15705500  0.43412200  0.87615400  1
  C  392  1  0.17603400  0.47035000  0.84673700  1
  C  394  1  0.12888200  0.50620000  0.87182100  1
  C  395  1  0.21214900  0.47407100  0.81977900  1
  C  396  1  0.23666600  0.51475900  0.79430000  1
  C  397  1  0.27489600  0.51839000  0.77052400  1
  C  398  1  0.28893600  0.48150100  0.77136100  1
  C  399  1  0.26209300  0.44058000  0.79611800  1
  C  407  1  0.32845800  0.48488400  0.74862500  1
  C  408  1  0.08141500  0.47668800  0.93193070  1
  C  411  1  0.31712500  0.84008000  0.23563900  1
  C  412  1  0.26620000  0.82602000  0.23678800  1
  C  413  1  0.23286800  0.79404300  0.20887400  1
  C  414  1  0.25017000  0.77502700  0.17952200  1
  C  416  1  0.33309500  0.82206700  0.20477500  1
  C  417  1  0.21784100  0.73894600  0.15251900  1
  C  418  1  0.23402900  0.71435000  0.12713700  1
  C  419  1  0.19947900  0.67618600  0.10329000  1
  C  420  1  0.14858700  0.66230400  0.10395700  1
  C  421  1  0.13450100  0.68922500  0.12862300  1
  C  429  1  0.11247200  0.62280900  0.08118400  1
  C  430  1  0.35087400  0.86951900  0.26489900  1
  C  433  1  0.46911600  0.51011500  0.38226300  1
  C  434  1  0.43022900  0.50387200  0.40667700  1
  C  435  1  0.40908100  0.53480800  0.40329700  1
  C  436  1  0.42865100  0.57314500  0.37563500  1
  C  437  1  0.46651900  0.57898600  0.35011400  1
  C  438  1  0.48755300  0.54790900  0.35407100  1
  C  441  1  0.48709400  0.47644600  0.38430500  1
  C  442  1  0.53064100  0.48822000  0.40517600  1
  C  443  1  0.54995400  0.45539700  0.40442000  1
  C  444  1  0.52747400  0.41320800  0.38033800  1
  C  445  1  0.48497600  0.40186100  0.35810600  1
  C  446  1  0.46422100  0.43313100  0.36151400  1
  C  461  1  0.99647300  0.48178200  0.71571800  1
  C  462  1  0.02935900  0.52091800  0.73984000  1
  C  463  1  0.08140000  0.54189000  0.73627700  1
  C  464  1  0.09988000  0.52193400  0.70870400  1
  C  465  1  0.06760300  0.48380200  0.68346500  1
  C  466  1  0.01553800  0.46293300  0.68761500  1
  C  469  1  0.94488000  0.46405700  0.71788400  1
  C  470  1  0.91300700  0.42051500  0.73872000  1
  C  471  1  0.86089800  0.40139600  0.73801300  1
  C  472  1  0.84129900  0.42408100  0.71403700  1
  C  473  1  0.87256700  0.46657100  0.69184800  1
  C  474  1  0.92456900  0.48714700  0.69520500  1
  C  489  1  0.44075900  0.95429000  0.04880200  1
  C  490  1  0.44679800  0.92135000  0.07301800  1
  C  491  1  0.41563700  0.86932200  0.06945200  1
  C  492  1  0.37727400  0.85090700  0.04181900  1
  C  493  1  0.37163800  0.88323300  0.01648300  1
  C  494  1  0.40294800  0.93529100  0.02061800  1
  C  497  1  0.47465700  0.00586800  0.05104100  1
  C  498  1  0.46292500  0.03774500  0.07180600  1
  C  499  1  0.49594900  0.08984200  0.07116500  1
  C  500  1  0.53833300  0.10944600  0.04729500  1
  C  501  1  0.54964700  0.07818600  0.02517000  1
  C  502  1  0.51817400  0.02618100  0.02849200  1
  C  517  1  0.44346200  0.32304300  0.27065000  1
  C  518  1  0.42200400  0.27270100  0.28207200  1
  C  519  1  0.42036900  0.23652400  0.25687700  1
  C  520  1  0.44052100  0.25045600  0.21958800  1
  C  522  1  0.46019000  0.33443700  0.23234900  1
  C  523  1  0.44638100  0.21766500  0.19440500  1
  C  524  1  0.46592100  0.23157000  0.15696900  1
  C  525  1  0.47600900  0.19958600  0.13507900  1
  C  526  1  0.46678100  0.15316600  0.14975000  1
  C  527  1  0.44613500  0.14060100  0.18700000  1
  C  535  1  0.47860800  0.12051300  0.12932400  1
  C  536  1  0.45127400  0.36155600  0.29680800  1
  C  539  1  0.83510600  0.50687800  0.60396500  1
  C  540  1  0.80697100  0.52934200  0.61487700  1
  C  541  1  0.77233100  0.53062900  0.58958700  1
  C  542  1  0.76514200  0.50896000  0.55278300  1
  C  544  1  0.82891800  0.48867500  0.56606400  1
  C  545  1  0.72636000  0.50284800  0.52762400  1
  C  546  1  0.71859300  0.47997600  0.49126900  1
  C  547  1  0.67664500  0.47042200  0.46943900  1
  C  548  1  0.64177600  0.48352900  0.48312900  1
  C  549  1  0.65179100  0.50718900  0.51929500  1
  C  557  1  0.59757300  0.47247200  0.46275400  1
  C  558  1  0.86590000  0.49956800  0.63033800  1
  C  561  1  0.62796000  0.11562900  0.93749550  1
  C  562  1  0.67843700  0.14423100  0.94862850  1
  C  563  1  0.71441100  0.17888300  0.92337250  1
  C  564  1  0.70011300  0.18556400  0.88634700  1
  C  566  1  0.61617100  0.12136400  0.89940800  1
  C  567  1  0.73273200  0.22434700  0.86117100  1
  C  568  1  0.71807100  0.23108400  0.82431800  1
  C  569  1  0.75016000  0.27316400  0.80248200  1
  C  570  1  0.79742400  0.30920500  0.81663700  1
  C  571  1  0.81067300  0.30012900  0.85330100  1
  C  579  1  0.83026600  0.35357100  0.79624700  1
  C  580  1  0.58969100  0.08486800  0.96377450  1
  C  583  1  0.47750200  0.63352500  0.25423800  1
  C  584  1  0.51428100  0.68447600  0.25546500  1
  C  585  1  0.51561200  0.71783100  0.22758200  1
  C  586  1  0.47938700  0.70050700  0.19816200  1
  C  588  1  0.44354700  0.61756600  0.22335600  1
  C  589  1  0.47571700  0.73282100  0.17110000  1
  C  590  1  0.43498000  0.71663600  0.14567000  1
  C  591  1  0.43146500  0.75117500  0.12174200  1
  C  592  1  0.46852300  0.80204800  0.12238000  1
  C  593  1  0.50946300  0.81613200  0.14712000  1
  C  601  1  0.46527000  0.83815400  0.09951100  1
  C  602  1  0.47326100  0.59973500  0.28343300  1
  C  605  1  0.11085700  0.47228100  0.58766800  1
  C  606  1  0.12499900  0.43547900  0.58894000  1
  C  607  1  0.15705500  0.43412200  0.56109700  1
  C  608  1  0.17603400  0.47035000  0.53168000  1
  C  610  1  0.12888200  0.50620000  0.55676400  1
  C  611  1  0.21214900  0.47407100  0.50472200  1
  C  612  1  0.23666600  0.51475900  0.47924300  1
  C  613  1  0.27489600  0.51839000  0.45546700  1
  C  614  1  0.28893600  0.48150100  0.45630400  1
  C  615  1  0.26209300  0.44058000  0.48106100  1
  C  623  1  0.32845800  0.48488400  0.43356800  1
  C  624  1  0.08141500  0.47668800  0.61687400  1
  C  627  1  0.31712500  0.84008000  0.92058250  1
  C  628  1  0.26620000  0.82602000  0.92173150  1
  C  629  1  0.23286800  0.79404300  0.89381700  1
  C  630  1  0.25017000  0.77502700  0.86446500  1
  C  632  1  0.33309500  0.82206700  0.88971800  1
  C  633  1  0.21784100  0.73894600  0.83746200  1
  C  634  1  0.23402900  0.71435000  0.81208000  1
  C  635  1  0.19947900  0.67618600  0.78823300  1
  C  636  1  0.14858700  0.66230400  0.78890000  1
  C  637  1  0.13450100  0.68922500  0.81356600  1
  C  645  1  0.11247200  0.62280900  0.76612700  1
  C  646  1  0.35087400  0.86951900  0.94984250  1
  N  21  1  0.46566900  0.36158700  0.96394000  1
  N  23  1  0.59207900  0.46559700  0.05421800  1
  N  25  1  0.37056400  0.52898700  0.05611700  1
  N  27  1  0.48046300  0.61302800  0.95125800  1
  N  49  1  0.85175400  0.48594700  0.29761900  1
  N  51  1  0.82892300  0.35920000  0.38771900  1
  N  53  1  0.11430400  0.58057400  0.38886800  1
  N  55  1  0.08742000  0.46939400  0.28471600  1
  N  77  1  0.58993200  0.09900700  0.63101500  1
  N  79  1  0.48561400  0.12179100  0.72079500  1
  N  81  1  0.42126200  0.83638200  0.72211400  1
  N  83  1  0.33749900  0.86346200  0.61766800  1
  N  89  1  0.45907600  0.29884500  0.83935800  1
  N  96  1  0.43743700  0.17260500  0.83754200  1
  N  111  1  0.79425800  0.48938600  0.17304600  1
  N  118  1  0.69233700  0.51534100  0.16980600  1
  N  133  1  0.65157000  0.15601500  0.50639800  1
  N  140  1  0.77856500  0.25944500  0.50381200  1
  N  155  1  0.44527900  0.65101600  0.82769900  1
  N  162  1  0.51101400  0.78194600  0.80047400  1
  N  177  1  0.16064900  0.50445600  0.16116200  1
  N  184  1  0.22619200  0.43892700  0.13428200  1
  N  199  1  0.29964300  0.79032000  0.49407400  1
  N  206  1  0.16869900  0.72506800  0.46685000  1
  N  237  1  0.46566900  0.36158700  0.64888400  1
  N  239  1  0.59207900  0.46559700  0.73916200  1
  N  241  1  0.37056400  0.52898700  0.74106100  1
  N  243  1  0.48046300  0.61302800  0.63620200  1
  N  265  1  0.85175400  0.48594700  0.98256270  1
  N  267  1  0.82892300  0.35920000  0.07266300  1
  N  269  1  0.11430400  0.58057400  0.07381200  1
  N  271  1  0.08742000  0.46939400  0.96965970  1
  N  293  1  0.58993200  0.09900700  0.31595900  1
  N  295  1  0.48561400  0.12179100  0.40573900  1
  N  297  1  0.42126200  0.83638200  0.40705800  1
  N  299  1  0.33749900  0.86346200  0.30261200  1
  N  305  1  0.45907600  0.29884500  0.52430200  1
  N  312  1  0.43743700  0.17260500  0.52248600  1
  N  327  1  0.79425800  0.48938600  0.85799000  1
  N  334  1  0.69233700  0.51534100  0.85475000  1
  N  349  1  0.65157000  0.15601500  0.19134200  1
  N  356  1  0.77856500  0.25944500  0.18875600  1
  N  371  1  0.44527900  0.65101600  0.51264300  1
  N  378  1  0.51101400  0.78194600  0.48541800  1
  N  393  1  0.16064900  0.50445600  0.84610600  1
  N  400  1  0.22619200  0.43892700  0.81922600  1
  N  415  1  0.29964300  0.79032000  0.17901800  1
  N  422  1  0.16869900  0.72506800  0.15179400  1
  N  453  1  0.46566900  0.36158700  0.33382700  1
  N  455  1  0.59207900  0.46559700  0.42410500  1
  N  457  1  0.37056400  0.52898700  0.42600400  1
  N  459  1  0.48046300  0.61302800  0.32114500  1
  N  481  1  0.85175400  0.48594700  0.66750600  1
  N  483  1  0.82892300  0.35920000  0.75760600  1
  N  485  1  0.11430400  0.58057400  0.75875500  1
  N  487  1  0.08742000  0.46939400  0.65460300  1
  N  509  1  0.58993200  0.09900700  0.00090200  1
  N  511  1  0.48561400  0.12179100  0.09068200  1
  N  513  1  0.42126200  0.83638200  0.09200100  1
  N  515  1  0.33749900  0.86346200  0.98755550  1
  N  521  1  0.45907600  0.29884500  0.20924500  1
  N  528  1  0.43743700  0.17260500  0.20742900  1
  N  543  1  0.79425800  0.48938600  0.54293300  1
  N  550  1  0.69233700  0.51534100  0.53969300  1
  N  565  1  0.65157000  0.15601500  0.87628500  1
  N  572  1  0.77856500  0.25944500  0.87369900  1
  N  587  1  0.44527900  0.65101600  0.19758600  1
  N  594  1  0.51101400  0.78194600  0.17036100  1
  N  609  1  0.16064900  0.50445600  0.53104900  1
  N  616  1  0.22619200  0.43892700  0.50416900  1
  N  631  1  0.29964300  0.79032000  0.86396100  1
  N  638  1  0.16869900  0.72506800  0.83673700  1
  O  17  1  0.52452300  0.55333400  0.96003200  1
  O  18  1  0.55396200  0.53136200  0.05583900  1
  O  45  1  0.98375800  0.42578200  0.29380400  1
  O  46  1  0.93270000  0.39700900  0.38930600  1
  O  73  1  0.39776500  0.96712500  0.62673600  1
  O  74  1  0.41964200  0.01806500  0.72228000  1
  O  105  1  0.45513800  0.40359800  0.91180800  1
  O  106  1  0.48531600  0.08741600  0.78026500  1
  O  127  1  0.90372600  0.49498700  0.24544600  1
  O  128  1  0.55807300  0.46646400  0.11374900  1
  O  149  1  0.54742000  0.04688800  0.57885600  1
  O  150  1  0.86344200  0.39327200  0.44723400  1
  O  171  1  0.45375800  0.55123600  0.90362500  1
  O  172  1  0.50823100  0.87454600  0.71419600  1
  O  193  1  0.05228700  0.49602300  0.23702200  1
  O  194  1  0.32207700  0.44197200  0.04829800  1
  O  215  1  0.39941200  0.89841500  0.57009400  1
  O  216  1  0.07597400  0.62920600  0.38081100  1
  O  233  1  0.52452300  0.55333400  0.64497600  1
  O  234  1  0.55396200  0.53136200  0.74078300  1
  O  261  1  0.98375800  0.42578200  0.97874770  1
  O  262  1  0.93270000  0.39700900  0.07425000  1
  O  289  1  0.39776500  0.96712500  0.31168000  1
  O  290  1  0.41964200  0.01806500  0.40722400  1
  O  321  1  0.45513800  0.40359800  0.59675200  1
  O  322  1  0.48531600  0.08741600  0.46520900  1
  O  343  1  0.90372600  0.49498700  0.93038970  1
  O  344  1  0.55807300  0.46646400  0.79869300  1
  O  365  1  0.54742000  0.04688800  0.26380000  1
  O  366  1  0.86344200  0.39327200  0.13217800  1
  O  387  1  0.45375800  0.55123600  0.58856900  1
  O  388  1  0.50823100  0.87454600  0.39914000  1
  O  409  1  0.05228700  0.49602300  0.92196570  1
  O  410  1  0.32207700  0.44197200  0.73324200  1
  O  431  1  0.39941200  0.89841500  0.25503800  1
  O  432  1  0.07597400  0.62920600  0.06575500  1
  O  449  1  0.52452300  0.55333400  0.32991900  1
  O  450  1  0.55396200  0.53136200  0.42572600  1
  O  477  1  0.98375800  0.42578200  0.66369100  1
  O  478  1  0.93270000  0.39700900  0.75919300  1
  O  505  1  0.39776500  0.96712500  0.99662350  1
  O  506  1  0.41964200  0.01806500  0.09216700  1
  O  537  1  0.45513800  0.40359800  0.28169500  1
  O  538  1  0.48531600  0.08741600  0.15015200  1
  O  559  1  0.90372600  0.49498700  0.61533300  1
  O  560  1  0.55807300  0.46646400  0.48363600  1
  O  581  1  0.54742000  0.04688800  0.94874350  1
  O  582  1  0.86344200  0.39327200  0.81712100  1
  O  603  1  0.45375800  0.55123600  0.27351200  1
  O  604  1  0.50823100  0.87454600  0.08408300  1
  O  625  1  0.05228700  0.49602300  0.60690900  1
  O  626  1  0.32207700  0.44197200  0.41818500  1
  O  647  1  0.39941200  0.89841500  0.93998150  1
  O  648  1  0.07597400  0.62920600  0.75069800  1
