# generated using pymatgen
data_UCuH12C24(NO2)4
_symmetry_space_group_name_H-M   'P 1'
_cell_length_a   15.81107000
_cell_length_b   15.81715000
_cell_length_c   15.84067000
_cell_angle_alpha   103.51796000
_cell_angle_beta   103.53385000
_cell_angle_gamma   112.18710000
_symmetry_Int_Tables_number   1
_chemical_formula_structural   UCuH12C24(NO2)4
_chemical_formula_sum   'U4 Cu4 H48 C96 N16 O32'
_cell_volume   3330.21943619
_cell_formula_units_Z   4
loop_
 _symmetry_equiv_pos_site_id
 _symmetry_equiv_pos_as_xyz
  1  'x, y, z'
loop_
 _atom_site_type_symbol
 _atom_site_label
 _atom_site_symmetry_multiplicity
 _atom_site_fract_x
 _atom_site_fract_y
 _atom_site_fract_z
 _atom_site_occupancy
  U  U0  1  0.90370000  0.37277000  0.57320000  1
  U  U1  1  0.62516000  0.09454000  0.92584000  1
  U  U2  1  0.09611000  0.62707000  0.42648000  1
  U  U3  1  0.36891000  0.89953000  0.07229000  1
  Cu  Cu4  1  0.29172000  0.23328000  0.48691000  1
  Cu  Cu5  1  0.76693000  0.70829000  0.01322000  1
  Cu  Cu6  1  0.70799000  0.76685000  0.51304000  1
  Cu  Cu7  1  0.23291000  0.29166000  0.98692000  1
  H  H8  1  0.31991000  0.62405000  0.62009000  1
  H  H9  1  0.46793000  0.59898000  0.64225000  1
  H  H10  1  0.14592000  0.31040000  0.50350000  1
  H  H11  1  0.58629000  0.56733000  0.65840000  1
  H  H12  1  0.26260000  0.28965000  0.67424000  1
  H  H13  1  0.31690000  0.12608000  0.31595000  1
  H  H14  1  0.27346000  0.84681000  0.33770000  1
  H  H15  1  0.48974000  0.21801000  0.51435000  1
  H  H16  1  0.24624000  0.05692000  0.77252000  1
  H  H17  1  0.24809000  0.90069000  0.48464000  1
  H  H18  1  0.71464000  0.51554000  0.65258000  1
  H  H19  1  0.26076000  0.97132000  0.62578000  1
  H  H20  1  0.37585000  0.68006000  0.87979000  1
  H  H21  1  0.40094000  0.53202000  0.85757000  1
  H  H22  1  0.68962000  0.85392000  0.99651000  1
  H  H23  1  0.43263000  0.41375000  0.84155000  1
  H  H24  1  0.71026000  0.73734000  0.82572000  1
  H  H25  1  0.87448000  0.68323000  0.18439000  1
  H  H26  1  0.15374000  0.72663000  0.16224000  1
  H  H27  1  0.78212000  0.51027000  0.98572000  1
  H  H28  1  0.94322000  0.75382000  0.72755000  1
  H  H29  1  0.09953000  0.75215000  0.01532000  1
  H  H30  1  0.48454000  0.28552000  0.84745000  1
  H  H31  1  0.02877000  0.73918000  0.87420000  1
  H  H32  1  0.68010000  0.37609000  0.38010000  1
  H  H33  1  0.53206000  0.40114000  0.35654000  1
  H  H34  1  0.85417000  0.68978000  0.49652000  1
  H  H35  1  0.41382000  0.43268000  0.34248000  1
  H  H36  1  0.73731000  0.71026000  0.32570000  1
  H  H37  1  0.68318000  0.87452000  0.68448000  1
  H  H38  1  0.72666000  0.15349000  0.66212000  1
  H  H39  1  0.51022000  0.78208000  0.48570000  1
  H  H40  1  0.75391000  0.94315000  0.22767000  1
  H  H41  1  0.75172000  0.09914000  0.51509000  1
  H  H42  1  0.28539000  0.48451000  0.34736000  1
  H  H43  1  0.73937000  0.02870000  0.37436000  1
  H  H44  1  0.62412000  0.31995000  0.11997000  1
  H  H45  1  0.59900000  0.46797000  0.14337000  1
  H  H46  1  0.31026000  0.14599000  0.00373000  1
  H  H47  1  0.56745000  0.58603000  0.15777000  1
  H  H48  1  0.28981000  0.26270000  0.17437000  1
  H  H49  1  0.12550000  0.31670000  0.81552000  1
  H  H50  1  0.84626000  0.27335000  0.83787000  1
  H  H51  1  0.21765000  0.48939000  0.01417000  1
  H  H52  1  0.05673000  0.24609000  0.27234000  1
  H  H53  1  0.90049000  0.24797000  0.98465000  1
  H  H54  1  0.51533000  0.71425000  0.15259000  1
  H  H55  1  0.97117000  0.26072000  0.12567000  1
  C  C56  1  0.31314000  0.55054000  0.59979000  1
  C  C57  1  0.39558000  0.53656000  0.61217000  1
  C  C58  1  0.21580000  0.37586000  0.53556000  1
  C  C59  1  0.56595000  0.49006000  0.62750000  1
  C  C60  1  0.29948000  0.98321000  0.31488000  1
  C  C61  1  0.12851000  0.47845000  0.54494000  1
  C  C62  1  0.26318000  0.08392000  0.56904000  1
  C  C63  1  0.26042000  0.21875000  0.66455000  1
  C  C64  1  0.21901000  0.46872000  0.56084000  1
  C  C65  1  0.30204000  0.07414000  0.35127000  1
  C  C66  1  0.61215000  0.36219000  0.58199000  1
  C  C67  1  0.27713000  0.91845000  0.36337000  1
  C  C68  1  0.51267000  0.29539000  0.54699000  1
  C  C69  1  0.25214000  0.08828000  0.71895000  1
  C  C70  1  0.38648000  0.44124000  0.58342000  1
  C  C71  1  0.26382000  0.94943000  0.44625000  1
  C  C72  1  0.63816000  0.46156000  0.62471000  1
  C  C73  1  0.27143000  0.04310000  0.48136000  1
  C  C74  1  0.46755000  0.41867000  0.58802000  1
  C  C75  1  0.68647000  0.32729000  0.57369000  1
  C  C76  1  0.32101000  0.95668000  0.23035000  1
  C  C77  1  0.25845000  0.04066000  0.63711000  1
  C  C78  1  0.25055000  0.23914000  0.82046000  1
  C  C79  1  0.25432000  0.18015000  0.73459000  1
  C  C80  1  0.44935000  0.68668000  0.89999000  1
  C  C81  1  0.46341000  0.60429000  0.88785000  1
  C  C82  1  0.62417000  0.78402000  0.96442000  1
  C  C83  1  0.50996000  0.43414000  0.87237000  1
  C  C84  1  0.01747000  0.70057000  0.18535000  1
  C  C85  1  0.52134000  0.87114000  0.95525000  1
  C  C86  1  0.91613000  0.73676000  0.93101000  1
  C  C87  1  0.78121000  0.73955000  0.83541000  1
  C  C88  1  0.53125000  0.78062000  0.93931000  1
  C  C89  1  0.92646000  0.69800000  0.14905000  1
  C  C90  1  0.63792000  0.38792000  0.91771000  1
  C  C91  1  0.08203000  0.72286000  0.13661000  1
  C  C92  1  0.70472000  0.48737000  0.95306000  1
  C  C93  1  0.91181000  0.74794000  0.78110000  1
  C  C94  1  0.55877000  0.61353000  0.91649000  1
  C  C95  1  0.05086000  0.73622000  0.05379000  1
  C  C96  1  0.53856000  0.36195000  0.87529000  1
  C  C97  1  0.95709000  0.72856000  0.01871000  1
  C  C98  1  0.58139000  0.53241000  0.91197000  1
  C  C99  1  0.67316000  0.31376000  0.92643000  1
  C  C100  1  0.04439000  0.67960000  0.27013000  1
  C  C101  1  0.95942000  0.74152000  0.86291000  1
  C  C102  1  0.76093000  0.74965000  0.67957000  1
  C  C103  1  0.81987000  0.74572000  0.76543000  1
  C  C104  1  0.68686000  0.44959000  0.40016000  1
  C  C105  1  0.60444000  0.46358000  0.38744000  1
  C  C106  1  0.78430000  0.62430000  0.46487000  1
  C  C107  1  0.43412000  0.50999000  0.37295000  1
  C  C108  1  0.70054000  0.01733000  0.68526000  1
  C  C109  1  0.87155000  0.52168000  0.45526000  1
  C  C110  1  0.73680000  0.91601000  0.43105000  1
  C  C111  1  0.73958000  0.78120000  0.33551000  1
  C  C112  1  0.78109000  0.53143000  0.43954000  1
  C  C113  1  0.69813000  0.92638000  0.64909000  1
  C  C114  1  0.38786000  0.63791000  0.41800000  1
  C  C115  1  0.72297000  0.08183000  0.63659000  1
  C  C116  1  0.48735000  0.70472000  0.45307000  1
  C  C117  1  0.74800000  0.91175000  0.28121000  1
  C  C118  1  0.61352000  0.55893000  0.41660000  1
  C  C119  1  0.73600000  0.05053000  0.55361000  1
  C  C120  1  0.36189000  0.53847000  0.37546000  1
  C  C121  1  0.72842000  0.95686000  0.51868000  1
  C  C122  1  0.53258000  0.58142000  0.41232000  1
  C  C123  1  0.31359000  0.67283000  0.42622000  1
  C  C124  1  0.67943000  0.04432000  0.77006000  1
  C  C125  1  0.74167000  0.95936000  0.36306000  1
  C  C126  1  0.74933000  0.76084000  0.17955000  1
  C  C127  1  0.74579000  0.81991000  0.26555000  1
  C  C128  1  0.55055000  0.31324000  0.10005000  1
  C  C129  1  0.53649000  0.39567000  0.11258000  1
  C  C130  1  0.37570000  0.21590000  0.03550000  1
  C  C131  1  0.49007000  0.56560000  0.12734000  1
  C  C132  1  0.98253000  0.29929000  0.81458000  1
  C  C133  1  0.47775000  0.12825000  0.04520000  1
  C  C134  1  0.08388000  0.26322000  0.06896000  1
  C  C135  1  0.21882000  0.26043000  0.16454000  1
  C  C136  1  0.46852000  0.21929000  0.06101000  1
  C  C137  1  0.07360000  0.30201000  0.85094000  1
  C  C138  1  0.36208000  0.61177000  0.08229000  1
  C  C139  1  0.91804000  0.27718000  0.86338000  1
  C  C140  1  0.29507000  0.51244000  0.04696000  1
  C  C141  1  0.08816000  0.25202000  0.21881000  1
  C  C142  1  0.44106000  0.38634000  0.08347000  1
  C  C143  1  0.94919000  0.26381000  0.94622000  1
  C  C144  1  0.46154000  0.63775000  0.12473000  1
  C  C145  1  0.04301000  0.27163000  0.98134000  1
  C  C146  1  0.41847000  0.46734000  0.08777000  1
  C  C147  1  0.32872000  0.68682000  0.07329000  1
  C  C148  1  0.95576000  0.32064000  0.72989000  1
  C  C149  1  0.04056000  0.25844000  0.13701000  1
  C  C150  1  0.23916000  0.25060000  0.32043000  1
  C  C151  1  0.18012000  0.25431000  0.23451000  1
  N  N152  1  0.29066000  0.10410000  0.43207000  1
  N  N153  1  0.26246000  0.17210000  0.58405000  1
  N  N154  1  0.44234000  0.32201000  0.54794000  1
  N  N155  1  0.29531000  0.36253000  0.54548000  1
  N  N156  1  0.89623000  0.70920000  0.06815000  1
  N  N157  1  0.82791000  0.73750000  0.91595000  1
  N  N158  1  0.67801000  0.55768000  0.95219000  1
  N  N159  1  0.63754000  0.70454000  0.95446000  1
  N  N160  1  0.70938000  0.89611000  0.56822000  1
  N  N161  1  0.73731000  0.82775000  0.41594000  1
  N  N162  1  0.55772000  0.67822000  0.45180000  1
  N  N163  1  0.70486000  0.63764000  0.45555000  1
  N  N164  1  0.10375000  0.29063000  0.93176000  1
  N  N165  1  0.17219000  0.26262000  0.08406000  1
  N  N166  1  0.32174000  0.44217000  0.04823000  1
  N  N167  1  0.36235000  0.29531000  0.04464000  1
  O  O168  1  0.13039000  0.55974000  0.53871000  1
  O  O169  1  0.04917000  0.40673000  0.53687000  1
  O  O170  1  0.34215000  0.01571000  0.18565000  1
  O  O171  1  0.32314000  0.87404000  0.20194000  1
  O  O172  1  0.77472000  0.39805000  0.59426000  1
  O  O173  1  0.66425000  0.23837000  0.54515000  1
  O  O174  1  0.21368000  0.19042000  0.86892000  1
  O  O175  1  0.28217000  0.32980000  0.83967000  1
  O  O176  1  0.43996000  0.86902000  0.96107000  1
  O  O177  1  0.59361000  0.95051000  0.96413000  1
  O  O178  1  0.98517000  0.65926000  0.31503000  1
  O  O179  1  0.12636000  0.67634000  0.29812000  1
  O  O180  1  0.60308000  0.22563000  0.90663000  1
  O  O181  1  0.76214000  0.33639000  0.95463000  1
  O  O182  1  0.80969000  0.78633000  0.63106000  1
  O  O183  1  0.67023000  0.71805000  0.66026000  1
  O  O184  1  0.86966000  0.44024000  0.46127000  1
  O  O185  1  0.95093000  0.59345000  0.46348000  1
  O  O186  1  0.65918000  0.98511000  0.81493000  1
  O  O187  1  0.67542000  0.12587000  0.79759000  1
  O  O188  1  0.22530000  0.60209000  0.40570000  1
  O  O189  1  0.33572000  0.76171000  0.45478000  1
  O  O190  1  0.78545000  0.80934000  0.13066000  1
  O  O191  1  0.71809000  0.67028000  0.16073000  1
  O  O192  1  0.55892000  0.13055000  0.03803000  1
  O  O193  1  0.40659000  0.04905000  0.03743000  1
  O  O194  1  0.01505000  0.34105000  0.68514000  1
  O  O195  1  0.87372000  0.32369000  0.70185000  1
  O  O196  1  0.40075000  0.77408000  0.09295000  1
  O  O197  1  0.24040000  0.66708000  0.04452000  1
  O  O198  1  0.19058000  0.21445000  0.36930000  1
  O  O199  1  0.32973000  0.28175000  0.33931000  1
