# generated using pymatgen
data_H24C39(N4O)2
_symmetry_space_group_name_H-M   'P 1'
_cell_length_a   17.06465000
_cell_length_b   17.06460000
_cell_length_c   34.12930000
_cell_angle_alpha   90.00380000
_cell_angle_beta   89.99620000
_cell_angle_gamma   90.00000000
_symmetry_Int_Tables_number   1
_chemical_formula_structural   H24C39(N4O)2
_chemical_formula_sum   'H48 C78 N16 O4'
_cell_volume   9938.50079798
_cell_formula_units_Z   2
loop_
 _symmetry_equiv_pos_site_id
 _symmetry_equiv_pos_as_xyz
  1  'x, y, z'
loop_
 _atom_site_type_symbol
 _atom_site_label
 _atom_site_symmetry_multiplicity
 _atom_site_fract_x
 _atom_site_fract_y
 _atom_site_fract_z
 _atom_site_occupancy
  C  1  1  0.02972300  0.80498300  0.98192700  1
  C  2  1  0.00469400  0.72688500  0.98220800  1
  C  3  1  0.92258600  0.72573800  0.98284900  1
  C  4  1  0.89542900  0.80310200  0.98309800  1
  C  5  1  0.81428000  0.81929600  0.98401200  1
  C  6  1  0.75859200  0.75739400  0.98452500  1
  C  7  1  0.78757600  0.67924400  0.98402400  1
  C  8  1  0.86881500  0.66316400  0.98317400  1
  C  9  1  0.06011900  0.66578700  0.98148000  1
  C  10  1  0.14084100  0.68405800  0.97997300  1
  C  11  1  0.16759000  0.76295800  0.97919600  1
  C  12  1  0.11038400  0.82339300  0.98037000  1
  C  13  1  0.96000200  0.91469000  0.94932100  1
  C  14  1  0.95989100  0.99222700  0.96266900  1
  C  15  1  0.96097200  0.99157500  0.00375500  1
  C  16  1  0.96212300  0.91364000  0.01647700  1
  C  17  1  0.96054700  0.05286600  0.03137600  1
  C  18  1  0.96103400  0.03493100  0.07181900  1
  C  19  1  0.96190600  0.95615900  0.08546100  1
  C  20  1  0.96253700  0.89559600  0.05687600  1
  C  21  1  0.95862400  0.89794400  0.90879100  1
  C  22  1  0.95732700  0.95943600  0.88071400  1
  C  23  1  0.95733900  0.03776800  0.89497000  1
  C  24  1  0.95855200  0.05440200  0.93555100  1
  C  37  1  0.96180700  0.85911100  0.98268000  1
  C  38  1  0.96161100  0.93659800  0.12538000  1
  C  39  1  0.95514100  0.94117000  0.84066700  1
  C  40  1  0.24689100  0.78243200  0.97540000  1
  C  41  1  0.67848500  0.77501600  0.98655200  1
  C  46  1  0.80465400  0.89713700  0.48359100  1
  C  47  1  0.72664700  0.92242300  0.48397800  1
  C  48  1  0.72580700  0.00455100  0.48458400  1
  C  49  1  0.80326600  0.03146100  0.48467200  1
  C  50  1  0.81974900  0.11257000  0.48535500  1
  C  51  1  0.75803300  0.16847200  0.48581800  1
  C  52  1  0.67978800  0.13972900  0.48547500  1
  C  53  1  0.66342700  0.05854000  0.48484800  1
  C  54  1  0.66539000  0.86717300  0.48306700  1
  C  55  1  0.68342200  0.78640800  0.48126200  1
  C  56  1  0.76224500  0.75947000  0.48030900  1
  C  57  1  0.82284000  0.81646000  0.48168100  1
  C  58  1  0.91356800  0.96612500  0.45028500  1
  C  59  1  0.99153100  0.96525700  0.46296100  1
  C  60  1  0.99210500  0.96441700  0.50407500  1
  C  61  1  0.91453800  0.96433100  0.51739200  1
  C  62  1  0.05414000  0.96485600  0.53128000  1
  C  63  1  0.03732200  0.96590700  0.57185200  1
  C  64  1  0.95893200  0.96650900  0.58606600  1
  C  65  1  0.89760400  0.96528100  0.55790200  1
  C  66  1  0.89532200  0.96822700  0.40994800  1
  C  67  1  0.95571300  0.96956200  0.38129500  1
  C  68  1  0.03455900  0.96826800  0.39479900  1
  C  69  1  0.05267900  0.96614100  0.43523700  1
  C  82  1  0.85900300  0.96485500  0.48403600  1
  C  83  1  0.94037400  0.96999000  0.62608700  1
  C  84  1  0.93562500  0.97474500  0.34154000  1
  C  85  1  0.78150500  0.68023700  0.47602900  1
  C  86  1  0.77587100  0.24857700  0.48757000  1
  C  91  1  0.97393700  0.97443600  0.19174800  1
  C  93  1  0.91073700  0.99747100  0.25344600  1
  C  94  1  0.97586900  0.96705400  0.27406200  1
  C  96  1  0.04000900  0.94429700  0.21200700  1
  C  98  1  0.11225200  0.91715600  0.19205000  1
  C  105  1  0.97990600  0.96942700  0.69237600  1
  C  107  1  0.99390700  0.04667400  0.75063300  1
  C  108  1  0.97121100  0.98288700  0.77425900  1
  C  110  1  0.95702700  0.90456100  0.71575800  1
  C  112  1  0.93822500  0.82642200  0.69927300  1
  C  119  1  0.38126000  0.74182400  0.98298400  1
  C  121  1  0.49835600  0.66746900  0.97074900  1
  C  122  1  0.54580800  0.73190000  0.98071500  1
  C  124  1  0.42859100  0.80713600  0.99364600  1
  C  126  1  0.39811000  0.88330200  0.00796200  1
  C  133  1  0.74185300  0.54584800  0.48384300  1
  C  135  1  0.66788300  0.42845100  0.47179500  1
  C  136  1  0.73258300  0.38126600  0.48164300  1
  C  138  1  0.80739100  0.49879700  0.49445600  1
  C  140  1  0.88342900  0.52972300  0.50870100  1
  H  25  1  0.95590500  0.08387000  0.87581900  1
  H  26  1  0.95828100  0.11119800  0.94505600  1
  H  27  1  0.95952100  0.10995400  0.02233700  1
  H  28  1  0.96023400  0.08044600  0.09132400  1
  H  29  1  0.96311500  0.83793400  0.06514800  1
  H  30  1  0.95874400  0.84055900  0.90004600  1
  H  31  1  0.79639900  0.87655400  0.98442800  1
  H  32  1  0.74960300  0.63286700  0.98470100  1
  H  33  1  0.88820900  0.60649800  0.98305100  1
  H  34  1  0.12680100  0.88108100  0.97965600  1
  H  35  1  0.04226600  0.60862100  0.98147900  1
  H  36  1  0.18005400  0.63877400  0.97864200  1
  H  42  1  0.94324600  0.88616600  0.83295400  1
  H  43  1  0.95391000  0.88063600  0.13278100  1
  H  44  1  0.26026600  0.83412900  0.96387300  1
  H  45  1  0.66288200  0.82952200  0.99345900  1
  H  70  1  0.07991900  0.96990600  0.37521500  1
  H  71  1  0.10981600  0.96589300  0.44421100  1
  H  72  1  0.11097800  0.96533500  0.52183400  1
  H  73  1  0.08338800  0.96717200  0.59102300  1
  H  74  1  0.84016300  0.96600900  0.56655500  1
  H  75  1  0.83760500  0.96931800  0.40178500  1
  H  76  1  0.87706900  0.13026500  0.48558300  1
  H  77  1  0.63353000  0.17785100  0.48607600  1
  H  78  1  0.60669500  0.03934300  0.48476900  1
  H  79  1  0.88047500  0.79988800  0.48073700  1
  H  80  1  0.60827800  0.88520400  0.48302000  1
  H  81  1  0.63804700  0.74734000  0.47969400  1
  H  87  1  0.88037400  0.98761300  0.33489800  1
  H  88  1  0.88435100  0.97656000  0.63367900  1
  H  89  1  0.83256900  0.66701300  0.46375800  1
  H  90  1  0.83049100  0.26416800  0.49424500  1
  H  97  1  0.86298100  0.01931600  0.26774200  1
  H  100  1  0.15862600  0.90485200  0.21333400  1
  H  101  1  0.13356200  0.96373100  0.17289600  1
  H  102  1  0.08571500  0.80498800  0.18635400  1
  H  111  1  0.00873400  0.09939600  0.76275400  1
  H  114  1  0.92939500  0.78340600  0.72264000  1
  H  115  1  0.98773400  0.80635400  0.68167000  1
  H  116  1  0.82435800  0.84027500  0.69124500  1
  H  125  1  0.52238800  0.61509600  0.96258400  1
  H  128  1  0.44302700  0.91447400  0.02468400  1
  H  129  1  0.34909700  0.87316800  0.02791300  1
  H  130  1  0.41769300  0.94699200  0.96054700  1
  H  139  1  0.61550800  0.40420300  0.46380500  1
  H  142  1  0.91510100  0.48486300  0.52523000  1
  H  143  1  0.87304300  0.57842400  0.52881000  1
  H  144  1  0.94692200  0.51123000  0.46110900  1
  N  92  1  0.91284500  0.00086800  0.21365300  1
  N  95  1  0.03745800  0.94255600  0.25196000  1
  N  103  1  0.97172700  0.98673900  0.15317200  1
  N  104  1  0.98405000  0.96375500  0.31303700  1
  N  106  1  0.99821900  0.03731600  0.71113400  1
  N  109  1  0.95401600  0.91458400  0.75541600  1
  N  117  1  0.99159600  0.96605200  0.65377300  1
  N  118  1  0.96956200  0.99104100  0.81320700  1
  N  120  1  0.41918700  0.67489400  0.97256400  1
  N  123  1  0.50806700  0.79852900  0.99196400  1
  N  131  1  0.30327100  0.73578700  0.98468000  1
  N  132  1  0.62373000  0.72471000  0.97985600  1
  N  134  1  0.67496800  0.50765000  0.47361100  1
  N  137  1  0.79911800  0.41927100  0.49281500  1
  N  145  1  0.73543700  0.62376900  0.48587100  1
  N  146  1  0.72551700  0.30333300  0.48096600  1
  O  99  1  0.09908800  0.84867900  0.16871500  1
  O  113  1  0.87014400  0.82804200  0.67476100  1
  O  127  1  0.37193300  0.93243300  0.97657400  1
  O  141  1  0.93211400  0.55667700  0.47730300  1
