# generated using pymatgen
data_Cd3H32(C14O5)4
_symmetry_space_group_name_H-M   'P 1'
_cell_length_a   13.16734000
_cell_length_b   14.70511000
_cell_length_c   22.28242000
_cell_angle_alpha   89.99992000
_cell_angle_beta   89.99865000
_cell_angle_gamma   86.75135000
_symmetry_Int_Tables_number   1
_chemical_formula_structural   Cd3H32(C14O5)4
_chemical_formula_sum   'Cd6 H64 C112 O40'
_cell_volume   4307.54886950
_cell_formula_units_Z   2
loop_
 _symmetry_equiv_pos_site_id
 _symmetry_equiv_pos_as_xyz
  1  'x, y, z'
loop_
 _atom_site_type_symbol
 _atom_site_label
 _atom_site_symmetry_multiplicity
 _atom_site_fract_x
 _atom_site_fract_y
 _atom_site_fract_z
 _atom_site_occupancy
  Cd  Cd0  1  0.67895000  0.17505000  0.02184000  1
  Cd  Cd1  1  0.82101000  0.32495000  0.52186000  1
  Cd  Cd2  1  0.32105000  0.82496000  0.97816000  1
  Cd  Cd3  1  0.17899000  0.67506000  0.47814000  1
  Cd  Cd4  1  0.50000000  0.00000000  0.00000000  1
  Cd  Cd5  1  0.00000000  0.50000000  0.50000000  1
  H  H6  1  0.04950000  0.79439000  0.98399000  1
  H  H7  1  0.67343000  0.85134000  0.96388000  1
  H  H8  1  0.86723000  0.37565000  0.88637000  1
  H  H9  1  0.80466000  0.46707000  0.06611000  1
  H  H10  1  0.75524000  0.70082000  0.93557000  1
  H  H11  1  0.59442000  0.18037000  0.22671000  1
  H  H12  1  0.26138000  0.03637000  0.23050000  1
  H  H13  1  0.94472000  0.52536000  0.86259000  1
  H  H14  1  0.87411000  0.61811000  0.04228000  1
  H  H15  1  0.32923000  0.25817000  0.33486000  1
  H  H16  1  0.50413000  0.15675000  0.32519000  1
  H  H17  1  0.18973000  0.36054000  0.37963000  1
  H  H18  1  0.96611000  0.94260000  0.01659000  1
  H  H19  1  0.15939000  0.02450000  0.37741000  1
  H  H20  1  0.35264000  0.05810000  0.13251000  1
  H  H21  1  0.01882000  0.12880000  0.42039000  1
  H  H22  1  0.45050000  0.70562000  0.48400000  1
  H  H23  1  0.82657000  0.64865000  0.46388000  1
  H  H24  1  0.63279000  0.12432000  0.38637000  1
  H  H25  1  0.69537000  0.03289000  0.56611000  1
  H  H26  1  0.74477000  0.79918000  0.43557000  1
  H  H27  1  0.90557000  0.31962000  0.72671000  1
  H  H28  1  0.23860000  0.46366000  0.73051000  1
  H  H29  1  0.55529000  0.97462000  0.36261000  1
  H  H30  1  0.62591000  0.88186000  0.54227000  1
  H  H31  1  0.17074000  0.24184000  0.83486000  1
  H  H32  1  0.99584000  0.34327000  0.82519000  1
  H  H33  1  0.31023000  0.13946000  0.87962000  1
  H  H34  1  0.53388000  0.55740000  0.51659000  1
  H  H35  1  0.34058000  0.47551000  0.87742000  1
  H  H36  1  0.14737000  0.44190000  0.63252000  1
  H  H37  1  0.48115000  0.37119000  0.92039000  1
  H  H38  1  0.95050000  0.20561000  0.01601000  1
  H  H39  1  0.32657000  0.14866000  0.03613000  1
  H  H40  1  0.13277000  0.62435000  0.11363000  1
  H  H41  1  0.19535000  0.53293000  0.93389000  1
  H  H42  1  0.24477000  0.29919000  0.06443000  1
  H  H43  1  0.40558000  0.81963000  0.77329000  1
  H  H44  1  0.73863000  0.96364000  0.76951000  1
  H  H45  1  0.05528000  0.47465000  0.13741000  1
  H  H46  1  0.12590000  0.38190000  0.95772000  1
  H  H47  1  0.67078000  0.74184000  0.66514000  1
  H  H48  1  0.49587000  0.84326000  0.67481000  1
  H  H49  1  0.81027000  0.63947000  0.62037000  1
  H  H50  1  0.03389000  0.05740000  0.98341000  1
  H  H51  1  0.84061000  0.97551000  0.62260000  1
  H  H52  1  0.64736000  0.94190000  0.86749000  1
  H  H53  1  0.98119000  0.87120000  0.57961000  1
  H  H54  1  0.54950000  0.29439000  0.51601000  1
  H  H55  1  0.17343000  0.35135000  0.53613000  1
  H  H56  1  0.36721000  0.87569000  0.61363000  1
  H  H57  1  0.30464000  0.96712000  0.43389000  1
  H  H58  1  0.25523000  0.20082000  0.56443000  1
  H  H59  1  0.09443000  0.68039000  0.27329000  1
  H  H60  1  0.76140000  0.53635000  0.26949000  1
  H  H61  1  0.44472000  0.02539000  0.63740000  1
  H  H62  1  0.37410000  0.11815000  0.45773000  1
  H  H63  1  0.82926000  0.75817000  0.16514000  1
  H  H64  1  0.00416000  0.65674000  0.17481000  1
  H  H65  1  0.68977000  0.86054000  0.12038000  1
  H  H66  1  0.46612000  0.44261000  0.48341000  1
  H  H67  1  0.65942000  0.52450000  0.12259000  1
  H  H68  1  0.85263000  0.55810000  0.36748000  1
  H  H69  1  0.51885000  0.62882000  0.07962000  1
  C  C70  1  0.76908000  0.99960000  0.00658000  1
  C  C71  1  0.53195000  0.13453000  0.11606000  1
  C  C72  1  0.83118000  0.41348000  0.97725000  1
  C  C73  1  0.47823000  0.12141000  0.17421000  1
  C  C74  1  0.81490000  0.90697000  0.99215000  1
  C  C75  1  0.78625000  0.32517000  0.99089000  1
  C  C76  1  0.96768000  0.80731000  0.97993000  1
  C  C77  1  0.90652000  0.73991000  0.95800000  1
  C  C78  1  0.75502000  0.83814000  0.96995000  1
  C  C79  1  0.87125000  0.42916000  0.91985000  1
  C  C80  1  0.83343000  0.48123000  0.02155000  1
  C  C81  1  0.80030000  0.75414000  0.95366000  1
  C  C82  1  0.09670000  0.25034000  0.40251000  1
  C  C83  1  0.37863000  0.09540000  0.28215000  1
  C  C84  1  0.52173000  0.14879000  0.22833000  1
  C  C85  1  0.33388000  0.06813000  0.22875000  1
  C  C86  1  0.91337000  0.51126000  0.90658000  1
  C  C87  1  0.87239000  0.56465000  0.00863000  1
  C  C88  1  0.01618000  0.31148000  0.43163000  1
  C  C89  1  0.26107000  0.23059000  0.35342000  1
  C  C90  1  0.47218000  0.13556000  0.28276000  1
  C  C91  1  0.18377000  0.28715000  0.37805000  1
  C  C92  1  0.92087000  0.88992000  0.99792000  1
  C  C93  1  0.91173000  0.57917000  0.95096000  1
  C  C94  1  0.16471000  0.09803000  0.37830000  1
  C  C95  1  0.25144000  0.13606000  0.35462000  1
  C  C96  1  0.38440000  0.08063000  0.17470000  1
  C  C97  1  0.08741000  0.15562000  0.40183000  1
  C  C98  1  0.73092000  0.50041000  0.50658000  1
  C  C99  1  0.96806000  0.36549000  0.61606000  1
  C  C100  1  0.66883000  0.08648000  0.47726000  1
  C  C101  1  0.02178000  0.37860000  0.67421000  1
  C  C102  1  0.68510000  0.59303000  0.49216000  1
  C  C103  1  0.71376000  0.17479000  0.49090000  1
  C  C104  1  0.53232000  0.69269000  0.47994000  1
  C  C105  1  0.59348000  0.76009000  0.45800000  1
  C  C106  1  0.74498000  0.66186000  0.46995000  1
  C  C107  1  0.62876000  0.07082000  0.41986000  1
  C  C108  1  0.66658000  0.01874000  0.52155000  1
  C  C109  1  0.69970000  0.74586000  0.45365000  1
  C  C110  1  0.40328000  0.24966000  0.90250000  1
  C  C111  1  0.12135000  0.40460000  0.78216000  1
  C  C112  1  0.97826000  0.35121000  0.72833000  1
  C  C113  1  0.16611000  0.43187000  0.72876000  1
  C  C114  1  0.58665000  0.98871000  0.40659000  1
  C  C115  1  0.62763000  0.93532000  0.50864000  1
  C  C116  1  0.48381000  0.18852000  0.93162000  1
  C  C117  1  0.23890000  0.26942000  0.85342000  1
  C  C118  1  0.02779000  0.36444000  0.78276000  1
  C  C119  1  0.31620000  0.21285000  0.87804000  1
  C  C120  1  0.57912000  0.61009000  0.49792000  1
  C  C121  1  0.58829000  0.92082000  0.45097000  1
  C  C122  1  0.33526000  0.40198000  0.87830000  1
  C  C123  1  0.24852000  0.36394000  0.85463000  1
  C  C124  1  0.11560000  0.41937000  0.67471000  1
  C  C125  1  0.41256000  0.34438000  0.90183000  1
  C  C126  1  0.23092000  0.00041000  0.99343000  1
  C  C127  1  0.46806000  0.86548000  0.88394000  1
  C  C128  1  0.16882000  0.58652000  0.02275000  1
  C  C129  1  0.52178000  0.87860000  0.82579000  1
  C  C130  1  0.18510000  0.09303000  0.00785000  1
  C  C131  1  0.21375000  0.67483000  0.00912000  1
  C  C132  1  0.03232000  0.19269000  0.02007000  1
  C  C133  1  0.09349000  0.26010000  0.04200000  1
  C  C134  1  0.24499000  0.16186000  0.03005000  1
  C  C135  1  0.12876000  0.57084000  0.08015000  1
  C  C136  1  0.16657000  0.51878000  0.97846000  1
  C  C137  1  0.19970000  0.24586000  0.04635000  1
  C  C138  1  0.90331000  0.74967000  0.59750000  1
  C  C139  1  0.62137000  0.90460000  0.71785000  1
  C  C140  1  0.47827000  0.85122000  0.77168000  1
  C  C141  1  0.66613000  0.93187000  0.77126000  1
  C  C142  1  0.08664000  0.48874000  0.09343000  1
  C  C143  1  0.12762000  0.43535000  0.99137000  1
  C  C144  1  0.98383000  0.68852000  0.56837000  1
  C  C145  1  0.73893000  0.76942000  0.64658000  1
  C  C146  1  0.52782000  0.86445000  0.71724000  1
  C  C147  1  0.81623000  0.71285000  0.62196000  1
  C  C148  1  0.07913000  0.11009000  0.00208000  1
  C  C149  1  0.08828000  0.42084000  0.04904000  1
  C  C150  1  0.83530000  0.90198000  0.62171000  1
  C  C151  1  0.74856000  0.86394000  0.64538000  1
  C  C152  1  0.61560000  0.91937000  0.82530000  1
  C  C153  1  0.91260000  0.84439000  0.59817000  1
  C  C154  1  0.26908000  0.49960000  0.49343000  1
  C  C155  1  0.03195000  0.63452000  0.38394000  1
  C  C156  1  0.33118000  0.91353000  0.52274000  1
  C  C157  1  0.97823000  0.62141000  0.32579000  1
  C  C158  1  0.31490000  0.40698000  0.50785000  1
  C  C159  1  0.28624000  0.82522000  0.50910000  1
  C  C160  1  0.46769000  0.30732000  0.52007000  1
  C  C161  1  0.40652000  0.23992000  0.54201000  1
  C  C162  1  0.25502000  0.33815000  0.53005000  1
  C  C163  1  0.37124000  0.92919000  0.58015000  1
  C  C164  1  0.33343000  0.98127000  0.47845000  1
  C  C165  1  0.30030000  0.25415000  0.54635000  1
  C  C166  1  0.59673000  0.75035000  0.09750000  1
  C  C167  1  0.87866000  0.59540000  0.21785000  1
  C  C168  1  0.02174000  0.64880000  0.27168000  1
  C  C169  1  0.83389000  0.56813000  0.27125000  1
  C  C170  1  0.41335000  0.01129000  0.59342000  1
  C  C171  1  0.37238000  0.06469000  0.49136000  1
  C  C172  1  0.51619000  0.81149000  0.06838000  1
  C  C173  1  0.76110000  0.73059000  0.14658000  1
  C  C174  1  0.97221000  0.63556000  0.21724000  1
  C  C175  1  0.68380000  0.78716000  0.12196000  1
  C  C176  1  0.42088000  0.38992000  0.50208000  1
  C  C177  1  0.41172000  0.07919000  0.54904000  1
  C  C178  1  0.66475000  0.59803000  0.12170000  1
  C  C179  1  0.75148000  0.63606000  0.14538000  1
  C  C180  1  0.88441000  0.58064000  0.32529000  1
  C  C181  1  0.58745000  0.65563000  0.09817000  1
  O  O182  1  0.67966000  0.02284000  0.98504000  1
  O  O183  1  0.80719000  0.25608000  0.95804000  1
  O  O184  1  0.72634000  0.32254000  0.03623000  1
  O  O185  1  0.02741000  0.39715000  0.42764000  1
  O  O186  1  0.62156000  0.16314000  0.11785000  1
  O  O187  1  0.95483000  0.65969000  0.93680000  1
  O  O188  1  0.48502000  0.11814000  0.06728000  1
  O  O189  1  0.81862000  0.05502000  0.03635000  1
  O  O190  1  0.94453000  0.27268000  0.45766000  1
  O  O191  1  0.32970000  0.07561000  0.33619000  1
  O  O192  1  0.82035000  0.47716000  0.48504000  1
  O  O193  1  0.69284000  0.24387000  0.45805000  1
  O  O194  1  0.77365000  0.17746000  0.53625000  1
  O  O195  1  0.47256000  0.10285000  0.92764000  1
  O  O196  1  0.87844000  0.33689000  0.61784000  1
  O  O197  1  0.54517000  0.84031000  0.43680000  1
  O  O198  1  0.01499000  0.38188000  0.56728000  1
  O  O199  1  0.68138000  0.44498000  0.53635000  1
  O  O200  1  0.55547000  0.22733000  0.95763000  1
  O  O201  1  0.17025000  0.42439000  0.83620000  1
  O  O202  1  0.32034000  0.97717000  0.01497000  1
  O  O203  1  0.19282000  0.74393000  0.04196000  1
  O  O204  1  0.27366000  0.67747000  0.96377000  1
  O  O205  1  0.97259000  0.60286000  0.57236000  1
  O  O206  1  0.37845000  0.83687000  0.88216000  1
  O  O207  1  0.04517000  0.34032000  0.06320000  1
  O  O208  1  0.51499000  0.88187000  0.93273000  1
  O  O209  1  0.18138000  0.94498000  0.96365000  1
  O  O210  1  0.05548000  0.72733000  0.54235000  1
  O  O211  1  0.67030000  0.92440000  0.66381000  1
  O  O212  1  0.17966000  0.52285000  0.51496000  1
  O  O213  1  0.30716000  0.75614000  0.54196000  1
  O  O214  1  0.22635000  0.82255000  0.46376000  1
  O  O215  1  0.52744000  0.89715000  0.07237000  1
  O  O216  1  0.12157000  0.66311000  0.38216000  1
  O  O217  1  0.45483000  0.15970000  0.56320000  1
  O  O218  1  0.98502000  0.61813000  0.43273000  1
  O  O219  1  0.31862000  0.55503000  0.46365000  1
  O  O220  1  0.44453000  0.77268000  0.04237000  1
  O  O221  1  0.82976000  0.57561000  0.16380000  1
