# generated using pymatgen
data_ZnH4(C5O2)2
_symmetry_space_group_name_H-M   'P 1'
_cell_length_a   18.99949000
_cell_length_b   19.00346000
_cell_length_c   19.00212000
_cell_angle_alpha   74.86630000
_cell_angle_beta   74.82854000
_cell_angle_gamma   74.82732000
_symmetry_Int_Tables_number   1
_chemical_formula_structural   ZnH4(C5O2)2
_chemical_formula_sum   'Zn12 H48 C120 O48'
_cell_volume   6252.82179455
_cell_formula_units_Z   12
loop_
 _symmetry_equiv_pos_site_id
 _symmetry_equiv_pos_as_xyz
  1  'x, y, z'
loop_
 _atom_site_type_symbol
 _atom_site_label
 _atom_site_symmetry_multiplicity
 _atom_site_fract_x
 _atom_site_fract_y
 _atom_site_fract_z
 _atom_site_occupancy
  Zn  Zn0  1  0.68626000  0.46199000  0.97352000  1
  Zn  Zn1  1  0.74972000  0.38110000  0.10635000  1
  Zn  Zn2  1  0.46190000  0.97311000  0.68618000  1
  Zn  Zn3  1  0.38088000  0.10630000  0.74963000  1
  Zn  Zn4  1  0.97330000  0.68633000  0.46205000  1
  Zn  Zn5  1  0.10621000  0.75108000  0.38080000  1
  Zn  Zn6  1  0.96203000  0.18630000  0.47329000  1
  Zn  Zn7  1  0.88095000  0.24917000  0.60648000  1
  Zn  Zn8  1  0.47281000  0.96197000  0.18620000  1
  Zn  Zn9  1  0.60625000  0.88063000  0.25119000  1
  Zn  Zn10  1  0.18629000  0.47364000  0.96211000  1
  Zn  Zn11  1  0.25103000  0.60626000  0.88072000  1
  H  H12  1  0.44668000  0.50445000  0.97433000  1
  H  H13  1  0.27647000  0.43257000  0.15861000  1
  H  H14  1  0.50377000  0.38923000  0.18551000  1
  H  H15  1  0.25838000  0.45406000  0.27830000  1
  H  H16  1  0.80189000  0.32032000  0.82733000  1
  H  H17  1  0.95770000  0.11189000  0.82159000  1
  H  H18  1  0.87377000  0.19046000  0.02805000  1
  H  H19  1  0.87656000  0.05963000  0.06626000  1
  H  H20  1  0.50417000  0.97398000  0.44623000  1
  H  H21  1  0.43222000  0.15866000  0.27651000  1
  H  H22  1  0.38862000  0.18474000  0.50418000  1
  H  H23  1  0.45349000  0.27797000  0.25902000  1
  H  H24  1  0.32027000  0.82736000  0.80177000  1
  H  H25  1  0.11192000  0.82145000  0.95780000  1
  H  H26  1  0.19036000  0.02792000  0.87400000  1
  H  H27  1  0.05964000  0.06605000  0.87689000  1
  H  H28  1  0.97334000  0.44608000  0.50499000  1
  H  H29  1  0.15830000  0.27681000  0.43244000  1
  H  H30  1  0.18420000  0.50434000  0.39015000  1
  H  H31  1  0.27759000  0.25906000  0.45421000  1
  H  H32  1  0.82728000  0.80184000  0.32045000  1
  H  H33  1  0.82141000  0.95765000  0.11208000  1
  H  H34  1  0.02791000  0.87384000  0.19053000  1
  H  H35  1  0.06613000  0.87670000  0.05975000  1
  H  H36  1  0.00422000  0.94642000  0.47408000  1
  H  H37  1  0.93245000  0.77664000  0.65877000  1
  H  H38  1  0.88863000  0.00433000  0.68487000  1
  H  H39  1  0.95365000  0.75906000  0.77797000  1
  H  H40  1  0.82040000  0.30183000  0.32734000  1
  H  H41  1  0.61188000  0.45771000  0.32159000  1
  H  H42  1  0.69040000  0.37379000  0.52800000  1
  H  H43  1  0.55967000  0.37668000  0.56619000  1
  H  H44  1  0.47278000  0.00346000  0.94613000  1
  H  H45  1  0.65868000  0.93284000  0.77667000  1
  H  H46  1  0.68353000  0.88928000  0.00476000  1
  H  H47  1  0.77758000  0.95415000  0.75942000  1
  H  H48  1  0.32740000  0.82022000  0.30190000  1
  H  H49  1  0.32139000  0.61193000  0.45777000  1
  H  H50  1  0.52797000  0.69023000  0.37398000  1
  H  H51  1  0.56609000  0.55959000  0.37686000  1
  H  H52  1  0.94651000  0.47402000  0.00439000  1
  H  H53  1  0.77645000  0.65855000  0.93261000  1
  H  H54  1  0.00404000  0.68487000  0.88895000  1
  H  H55  1  0.75866000  0.77789000  0.95417000  1
  H  H56  1  0.30194000  0.32717000  0.82045000  1
  H  H57  1  0.45770000  0.32138000  0.61191000  1
  H  H58  1  0.37375000  0.52782000  0.69053000  1
  H  H59  1  0.37655000  0.56602000  0.55979000  1
  C  C60  1  0.56234000  0.44873000  0.04275000  1
  C  C61  1  0.48287000  0.44629000  0.07681000  1
  C  C62  1  0.42967000  0.47785000  0.03226000  1
  C  C63  1  0.35532000  0.47245000  0.06233000  1
  C  C64  1  0.33413000  0.43808000  0.13699000  1
  C  C65  1  0.38633000  0.40894000  0.18307000  1
  C  C66  1  0.46139000  0.41224000  0.15191000  1
  C  C67  1  0.29941000  0.49947000  0.01395000  1
  C  C68  1  0.36033000  0.37147000  0.26103000  1
  C  C69  1  0.29076000  0.40095000  0.30216000  1
  C  C70  1  0.78593000  0.32020000  0.97255000  1
  C  C71  1  0.83338000  0.26123000  0.93210000  1
  C  C72  1  0.83541000  0.27120000  0.85604000  1
  C  C73  1  0.88069000  0.21727000  0.81668000  1
  C  C74  1  0.92393000  0.15364000  0.85325000  1
  C  C75  1  0.92164000  0.14224000  0.92991000  1
  C  C76  1  0.87597000  0.19688000  0.96894000  1
  C  C77  1  0.96408000  0.07181000  0.96807000  1
  C  C78  1  0.93166000  0.03454000  0.03838000  1
  C  C79  1  0.88025000  0.22779000  0.73650000  1
  C  C80  1  0.44762000  0.04250000  0.56242000  1
  C  C81  1  0.44566000  0.07631000  0.48286000  1
  C  C82  1  0.47744000  0.03193000  0.42952000  1
  C  C83  1  0.47211000  0.06220000  0.35518000  1
  C  C84  1  0.43767000  0.13687000  0.33417000  1
  C  C85  1  0.40844000  0.18279000  0.38656000  1
  C  C86  1  0.41165000  0.15142000  0.46155000  1
  C  C87  1  0.49931000  0.01388000  0.29919000  1
  C  C88  1  0.37095000  0.26081000  0.36090000  1
  C  C89  1  0.40037000  0.30190000  0.29137000  1
  C  C90  1  0.32011000  0.97249000  0.78606000  1
  C  C91  1  0.26114000  0.93203000  0.83344000  1
  C  C92  1  0.27112000  0.85600000  0.83536000  1
  C  C93  1  0.21723000  0.81662000  0.88062000  1
  C  C94  1  0.15363000  0.85312000  0.92399000  1
  C  C95  1  0.14224000  0.92976000  0.92182000  1
  C  C96  1  0.19681000  0.96883000  0.87615000  1
  C  C97  1  0.07181000  0.96789000  0.96432000  1
  C  C98  1  0.03452000  0.03819000  0.93194000  1
  C  C99  1  0.22795000  0.73639000  0.88032000  1
  C  C100  1  0.04160000  0.56234000  0.44895000  1
  C  C101  1  0.07570000  0.48287000  0.44685000  1
  C  C102  1  0.03136000  0.42950000  0.47830000  1
  C  C103  1  0.06175000  0.35526000  0.47267000  1
  C  C104  1  0.13646000  0.33437000  0.43821000  1
  C  C105  1  0.18236000  0.38674000  0.40933000  1
  C  C106  1  0.15093000  0.46167000  0.41291000  1
  C  C107  1  0.01357000  0.29921000  0.49965000  1
  C  C108  1  0.26039000  0.36094000  0.37174000  1
  C  C109  1  0.30147000  0.29133000  0.40105000  1
  C  C110  1  0.97240000  0.78620000  0.32036000  1
  C  C111  1  0.93197000  0.83343000  0.26132000  1
  C  C112  1  0.85592000  0.83538000  0.27129000  1
  C  C113  1  0.81657000  0.88059000  0.21737000  1
  C  C114  1  0.85309000  0.92388000  0.15378000  1
  C  C115  1  0.92975000  0.92169000  0.14239000  1
  C  C116  1  0.96880000  0.87604000  0.19698000  1
  C  C117  1  0.96785000  0.96416000  0.07198000  1
  C  C118  1  0.03821000  0.93176000  0.03469000  1
  C  C119  1  0.73634000  0.88030000  0.22803000  1
  C  C120  1  0.94786000  0.06252000  0.54252000  1
  C  C121  1  0.94578000  0.98303000  0.57645000  1
  C  C122  1  0.97754000  0.92970000  0.53206000  1
  C  C123  1  0.97222000  0.85537000  0.56232000  1
  C  C124  1  0.93780000  0.83433000  0.63700000  1
  C  C125  1  0.90850000  0.88670000  0.68294000  1
  C  C126  1  0.91173000  0.96170000  0.65157000  1
  C  C127  1  0.99941000  0.79938000  0.51400000  1
  C  C128  1  0.87100000  0.86092000  0.76098000  1
  C  C129  1  0.90049000  0.79133000  0.80195000  1
  C  C130  1  0.82029000  0.28607000  0.47247000  1
  C  C131  1  0.76127000  0.33341000  0.43203000  1
  C  C132  1  0.77121000  0.33537000  0.35599000  1
  C  C133  1  0.71724000  0.38061000  0.31667000  1
  C  C134  1  0.65362000  0.42392000  0.35323000  1
  C  C135  1  0.64227000  0.42168000  0.42987000  1
  C  C136  1  0.69689000  0.37603000  0.46888000  1
  C  C137  1  0.57182000  0.46413000  0.46803000  1
  C  C138  1  0.53453000  0.43173000  0.53833000  1
  C  C139  1  0.72788000  0.38031000  0.23645000  1
  C  C140  1  0.54055000  0.94832000  0.06239000  1
  C  C141  1  0.57503000  0.94569000  0.98307000  1
  C  C142  1  0.53091000  0.97711000  0.92955000  1
  C  C143  1  0.56170000  0.97217000  0.85521000  1
  C  C144  1  0.63655000  0.93810000  0.83437000  1
  C  C145  1  0.68223000  0.90893000  0.88696000  1
  C  C146  1  0.65041000  0.91209000  0.96196000  1
  C  C147  1  0.51363000  0.99944000  0.79908000  1
  C  C148  1  0.76039000  0.87152000  0.86119000  1
  C  C149  1  0.80149000  0.90096000  0.79161000  1
  C  C150  1  0.47247000  0.82004000  0.28621000  1
  C  C151  1  0.43205000  0.76105000  0.33355000  1
  C  C152  1  0.35600000  0.77105000  0.33545000  1
  C  C153  1  0.31661000  0.71716000  0.38064000  1
  C  C154  1  0.35310000  0.65360000  0.42400000  1
  C  C155  1  0.42974000  0.64219000  0.42185000  1
  C  C156  1  0.46884000  0.69674000  0.37620000  1
  C  C157  1  0.46784000  0.57178000  0.46432000  1
  C  C158  1  0.53819000  0.53451000  0.43192000  1
  C  C159  1  0.23637000  0.72787000  0.38030000  1
  C  C160  1  0.06242000  0.54245000  0.94863000  1
  C  C161  1  0.98292000  0.57641000  0.94617000  1
  C  C162  1  0.92964000  0.53196000  0.97776000  1
  C  C163  1  0.85528000  0.56213000  0.97236000  1
  C  C164  1  0.83414000  0.63682000  0.93802000  1
  C  C165  1  0.88643000  0.68280000  0.90885000  1
  C  C166  1  0.96149000  0.65150000  0.91209000  1
  C  C167  1  0.79931000  0.51382000  0.99949000  1
  C  C168  1  0.86049000  0.76085000  0.87148000  1
  C  C169  1  0.79090000  0.80191000  0.90105000  1
  C  C170  1  0.28618000  0.47235000  0.82040000  1
  C  C171  1  0.33345000  0.43187000  0.76137000  1
  C  C172  1  0.33543000  0.35584000  0.77128000  1
  C  C173  1  0.38063000  0.31652000  0.71726000  1
  C  C174  1  0.42393000  0.35305000  0.65367000  1
  C  C175  1  0.42166000  0.42969000  0.64234000  1
  C  C176  1  0.37602000  0.46871000  0.69699000  1
  C  C177  1  0.46409000  0.46786000  0.57193000  1
  C  C178  1  0.43166000  0.53817000  0.53469000  1
  C  C179  1  0.38024000  0.23633000  0.72781000  1
  O  O180  1  0.61406000  0.41468000  0.07843000  1
  O  O181  1  0.57840000  0.48586000  0.97502000  1
  O  O182  1  0.31433000  0.54640000  0.95363000  1
  O  O183  1  0.24010000  0.47213000  0.03622000  1
  O  O184  1  0.83462000  0.28303000  0.70662000  1
  O  O185  1  0.92477000  0.18239000  0.69686000  1
  O  O186  1  0.77841000  0.30705000  0.04336000  1
  O  O187  1  0.75592000  0.38058000  0.93252000  1
  O  O188  1  0.41230000  0.07804000  0.61394000  1
  O  O189  1  0.48585000  0.97519000  0.57853000  1
  O  O190  1  0.54636000  0.95365000  0.31423000  1
  O  O191  1  0.47195000  0.03605000  0.23989000  1
  O  O192  1  0.28351000  0.70654000  0.83479000  1
  O  O193  1  0.18266000  0.69673000  0.92473000  1
  O  O194  1  0.30694000  0.04329000  0.77850000  1
  O  O195  1  0.38060000  0.93241000  0.75619000  1
  O  O196  1  0.07740000  0.61393000  0.41470000  1
  O  O197  1  0.97389000  0.57858000  0.48607000  1
  O  O198  1  0.95321000  0.31399000  0.54658000  1
  O  O199  1  0.03611000  0.23990000  0.47222000  1
  O  O200  1  0.70653000  0.83487000  0.28367000  1
  O  O201  1  0.69665000  0.92455000  0.18269000  1
  O  O202  1  0.04327000  0.77844000  0.30701000  1
  O  O203  1  0.93235000  0.75666000  0.38101000  1
  O  O204  1  0.91298000  0.11412000  0.57811000  1
  O  O205  1  0.98582000  0.07856000  0.47511000  1
  O  O206  1  0.04640000  0.81436000  0.45370000  1
  O  O207  1  0.97216000  0.74004000  0.53621000  1
  O  O208  1  0.78321000  0.33470000  0.20657000  1
  O  O209  1  0.68254000  0.42483000  0.19683000  1
  O  O210  1  0.80700000  0.27839000  0.54330000  1
  O  O211  1  0.88091000  0.25639000  0.43239000  1
  O  O212  1  0.57729000  0.91737000  0.11387000  1
  O  O213  1  0.47177000  0.98286000  0.07872000  1
  O  O214  1  0.45336000  0.04648000  0.81398000  1
  O  O215  1  0.53604000  0.97211000  0.73972000  1
  O  O216  1  0.20659000  0.78342000  0.33478000  1
  O  O217  1  0.19662000  0.68264000  0.42466000  1
  O  O218  1  0.54335000  0.80683000  0.27844000  1
  O  O219  1  0.43236000  0.88052000  0.25658000  1
  O  O220  1  0.11410000  0.57822000  0.91474000  1
  O  O221  1  0.07849000  0.47475000  0.98582000  1
  O  O222  1  0.81416000  0.45354000  0.04646000  1
  O  O223  1  0.73998000  0.53615000  0.97212000  1
  O  O224  1  0.33454000  0.20655000  0.78306000  1
  O  O225  1  0.42478000  0.19665000  0.68247000  1
  O  O226  1  0.27842000  0.54321000  0.80697000  1
  O  O227  1  0.25661000  0.43241000  0.88111000  1
