# generated using pymatgen
data_AlH14C24N2O5
_symmetry_space_group_name_H-M   'P 1'
_cell_length_a   6.64979000
_cell_length_b   17.13502000
_cell_length_c   31.80931000
_cell_angle_alpha   89.97418000
_cell_angle_beta   89.45057000
_cell_angle_gamma   89.88063000
_symmetry_Int_Tables_number   1
_chemical_formula_structural   AlH14C24N2O5
_chemical_formula_sum   'Al4 H56 C96 N8 O20'
_cell_volume   3624.31422586
_cell_formula_units_Z   4
loop_
 _symmetry_equiv_pos_site_id
 _symmetry_equiv_pos_as_xyz
  1  'x, y, z'
loop_
 _atom_site_type_symbol
 _atom_site_label
 _atom_site_symmetry_multiplicity
 _atom_site_fract_x
 _atom_site_fract_y
 _atom_site_fract_z
 _atom_site_occupancy
  Al  Al1  1  0.24854000  0.99937000  0.24919000  1.0
  Al  Al2  1  0.74760000  0.99532000  0.24937000  1.0
  Al  Al3  1  0.25405000  0.00083000  0.74853000  1.0
  Al  Al4  1  0.75326000  0.99708000  0.75012000  1.0
  H  H1  1  0.99329000  0.03125000  0.30038000  1.0
  H  H2  1  0.96117000  0.79742000  0.04165000  1.0
  H  H3  1  0.00052000  0.49944000  0.03371000  1.0
  H  H4  1  0.00556000  0.57872000  0.16029000  1.0
  H  H5  1  0.04449000  0.20262000  0.04125000  1.0
  H  H6  1  0.99284000  0.42157000  0.16058000  1.0
  H  H7  1  0.28052000  0.32560000  0.13606000  1.0
  H  H8  1  0.28130000  0.21559000  0.18743000  1.0
  H  H9  1  0.29254000  0.75076000  0.08865000  1.0
  H  H10  1  0.29835000  0.85596000  0.14312000  1.0
  H  H11  1  0.71543000  0.67518000  0.13537000  1.0
  H  H12  1  0.71483000  0.78441000  0.18744000  1.0
  H  H13  1  0.71297000  0.24664000  0.08837000  1.0
  H  H14  1  0.70852000  0.13948000  0.14142000  1.0
  H  H15  1  0.99785000  0.03377000  0.69859000  1.0
  H  H16  1  0.96289000  0.79791000  0.95704000  1.0
  H  H17  1  0.00169000  0.50079000  0.96467000  1.0
  H  H18  1  0.00967000  0.57907000  0.83789000  1.0
  H  H19  1  0.29628000  0.75199000  0.90901000  1.0
  H  H20  1  0.30399000  0.85740000  0.85468000  1.0
  H  H21  1  0.04494000  0.20302000  0.95678000  1.0
  H  H22  1  0.99584000  0.42204000  0.83795000  1.0
  H  H23  1  0.28465000  0.32549000  0.86205000  1.0
  H  H24  1  0.28538000  0.21563000  0.81056000  1.0
  H  H25  1  0.71291000  0.24804000  0.91073000  1.0
  H  H26  1  0.70804000  0.14162000  0.85734000  1.0
  H  H27  1  0.72142000  0.67625000  0.86336000  1.0
  H  H28  1  0.72207000  0.78602000  0.81166000  1.0
  H  H29  1  0.50257000  0.03292000  0.19854000  1.0
  H  H30  1  0.49843000  0.03732000  0.79953000  1.0
  H  H31  1  0.53190000  0.79748000  0.45758000  1.0
  H  H32  1  0.49620000  0.49874000  0.46507000  1.0
  H  H33  1  0.47423000  0.58020000  0.33890000  1.0
  H  H34  1  0.77482000  0.67353000  0.36422000  1.0
  H  H35  1  0.78020000  0.78243000  0.31191000  1.0
  H  H36  1  0.54379000  0.79754000  0.54205000  1.0
  H  H37  1  0.51046000  0.50127000  0.53401000  1.0
  H  H38  1  0.51767000  0.57684000  0.66116000  1.0
  H  H39  1  0.22349000  0.75314000  0.59036000  1.0
  H  H40  1  0.22184000  0.85963000  0.64405000  1.0
  H  H41  1  0.47026000  0.20250000  0.54144000  1.0
  H  H42  1  0.53289000  0.41983000  0.66018000  1.0
  H  H43  1  0.80124000  0.24428000  0.58745000  1.0
  H  H44  1  0.79765000  0.13699000  0.64041000  1.0
  H  H45  1  0.46066000  0.20239000  0.45700000  1.0
  H  H46  1  0.49042000  0.42325000  0.33787000  1.0
  H  H47  1  0.21419000  0.32688000  0.36231000  1.0
  H  H48  1  0.21198000  0.21762000  0.31064000  1.0
  H  H49  1  0.23390000  0.32765000  0.63588000  1.0
  H  H50  1  0.22663000  0.21799000  0.68753000  1.0
  H  H51  1  0.78288000  0.24601000  0.40910000  1.0
  H  H52  1  0.78356000  0.13879000  0.35623000  1.0
  H  H53  1  0.20089000  0.75392000  0.41066000  1.0
  H  H54  1  0.20148000  0.85965000  0.35636000  1.0
  H  H55  1  0.79543000  0.67338000  0.63605000  1.0
  H  H56  1  0.79739000  0.78237000  0.68812000  1.0
  C  C1  1  0.00033000  0.66677000  0.03340000  1.0
  C  C2  1  0.97893000  0.74817000  0.02063000  1.0
  C  C3  1  0.00196000  0.56593000  0.09049000  1.0
  C  C4  1  0.00214000  0.54011000  0.13340000  1.0
  C  C5  1  0.00227000  0.64339000  0.07599000  1.0
  C  C6  1  0.00407000  0.70586000  0.10853000  1.0
  C  C7  1  0.00679000  0.82633000  0.16840000  1.0
  C  C8  1  0.00457000  0.89188000  0.19911000  1.0
  C  C9  1  0.00241000  0.33326000  0.03355000  1.0
  C  C10  1  0.02600000  0.25211000  0.02048000  1.0
  C  C11  1  0.99836000  0.43369000  0.09069000  1.0
  C  C12  1  0.99701000  0.45986000  0.13352000  1.0
  C  C13  1  0.99905000  0.35621000  0.07622000  1.0
  C  C14  1  0.99698000  0.29336000  0.10860000  1.0
  C  C15  1  0.15553000  0.28480000  0.13723000  1.0
  C  C16  1  0.15627000  0.22334000  0.16602000  1.0
  C  C17  1  0.99491000  0.17071000  0.16761000  1.0
  C  C18  1  0.99655000  0.10413000  0.19783000  1.0
  C  C19  1  0.16776000  0.75754000  0.11071000  1.0
  C  C20  1  0.17098000  0.81653000  0.14088000  1.0
  C  C21  1  0.84250000  0.71489000  0.13699000  1.0
  C  C22  1  0.84199000  0.77553000  0.16622000  1.0
  C  C23  1  0.83606000  0.24023000  0.11038000  1.0
  C  C24  1  0.83357000  0.18017000  0.13996000  1.0
  C  C25  1  0.00185000  0.66718000  0.96483000  1.0
  C  C26  1  0.97993000  0.74842000  0.97788000  1.0
  C  C27  1  0.00459000  0.56668000  0.90774000  1.0
  C  C28  1  0.00553000  0.54065000  0.86489000  1.0
  C  C29  1  0.00540000  0.64418000  0.92219000  1.0
  C  C30  1  0.00876000  0.70687000  0.88970000  1.0
  C  C31  1  0.17229000  0.75872000  0.88725000  1.0
  C  C32  1  0.17649000  0.81797000  0.85716000  1.0
  C  C33  1  0.01310000  0.82802000  0.83012000  1.0
  C  C34  1  0.01115000  0.89400000  0.79966000  1.0
  C  C35  1  0.00292000  0.33361000  0.96494000  1.0
  C  C36  1  0.02626000  0.25232000  0.97773000  1.0
  C  C37  1  0.99996000  0.43440000  0.90781000  1.0
  C  C38  1  0.99972000  0.46041000  0.86493000  1.0
  C  C39  1  0.00031000  0.35690000  0.92232000  1.0
  C  C40  1  0.99869000  0.29414000  0.88990000  1.0
  C  C41  1  0.99641000  0.17212000  0.83067000  1.0
  C  C42  1  0.99736000  0.10605000  0.80022000  1.0
  C  C43  1  0.15871000  0.28515000  0.86104000  1.0
  C  C44  1  0.15936000  0.22389000  0.83215000  1.0
  C  C45  1  0.83672000  0.24154000  0.88840000  1.0
  C  C46  1  0.83398000  0.18184000  0.85866000  1.0
  C  C47  1  0.84842000  0.71604000  0.86157000  1.0
  C  C48  1  0.84854000  0.77707000  0.83255000  1.0
  C  C49  1  0.49573000  0.66678000  0.46590000  1.0
  C  C50  1  0.51826000  0.74808000  0.47861000  1.0
  C  C51  1  0.48610000  0.56639000  0.40863000  1.0
  C  C52  1  0.48142000  0.54126000  0.36564000  1.0
  C  C53  1  0.48811000  0.64371000  0.42333000  1.0
  C  C54  1  0.48724000  0.70643000  0.39085000  1.0
  C  C55  1  0.64944000  0.71421000  0.36246000  1.0
  C  C56  1  0.65278000  0.77471000  0.33315000  1.0
  C  C57  1  0.49086000  0.82716000  0.33097000  1.0
  C  C58  1  0.49690000  0.89243000  0.30006000  1.0
  C  C59  1  0.50526000  0.66681000  0.53445000  1.0
  C  C60  1  0.52408000  0.74812000  0.52133000  1.0
  C  C61  1  0.51447000  0.56582000  0.59124000  1.0
  C  C62  1  0.51920000  0.53898000  0.63393000  1.0
  C  C63  1  0.50971000  0.64352000  0.57707000  1.0
  C  C64  1  0.50944000  0.70600000  0.60960000  1.0
  C  C65  1  0.34818000  0.75924000  0.61198000  1.0
  C  C66  1  0.34701000  0.81888000  0.64177000  1.0
  C  C67  1  0.50962000  0.82748000  0.66916000  1.0
  C  C68  1  0.51168000  0.89323000  0.69977000  1.0
  C  C69  1  0.50990000  0.33309000  0.53317000  1.0
  C  C70  1  0.48589000  0.25186000  0.52043000  1.0
  C  C71  1  0.52014000  0.43353000  0.59046000  1.0
  C  C72  1  0.52556000  0.45874000  0.63343000  1.0
  C  C73  1  0.51759000  0.35618000  0.57575000  1.0
  C  C74  1  0.51799000  0.29331000  0.60815000  1.0
  C  C75  1  0.67667000  0.23898000  0.60968000  1.0
  C  C76  1  0.67469000  0.17881000  0.63923000  1.0
  C  C77  1  0.51167000  0.17078000  0.66722000  1.0
  C  C78  1  0.50379000  0.10446000  0.69756000  1.0
  C  C79  1  0.50157000  0.33304000  0.46458000  1.0
  C  C80  1  0.48106000  0.25180000  0.47770000  1.0
  C  C81  1  0.49265000  0.43412000  0.40780000  1.0
  C  C82  1  0.48830000  0.46103000  0.36512000  1.0
  C  C83  1  0.49779000  0.35638000  0.42194000  1.0
  C  C84  1  0.49854000  0.29390000  0.38939000  1.0
  C  C85  1  0.33924000  0.28593000  0.36089000  1.0
  C  C86  1  0.33738000  0.22475000  0.33197000  1.0
  C  C87  1  0.49737000  0.17120000  0.33026000  1.0
  C  C88  1  0.49281000  0.10442000  0.30021000  1.0
  C  C89  1  0.35739000  0.28600000  0.63698000  1.0
  C  C90  1  0.35287000  0.22481000  0.66589000  1.0
  C  C91  1  0.65881000  0.24017000  0.38730000  1.0
  C  C92  1  0.65930000  0.18001000  0.35781000  1.0
  C  C93  1  0.32620000  0.75961000  0.38866000  1.0
  C  C94  1  0.32647000  0.81888000  0.35857000  1.0
  C  C95  1  0.66983000  0.71404000  0.63781000  1.0
  C  C96  1  0.67133000  0.77478000  0.66700000  1.0
  N  N1  1  0.01156000  0.61829000  0.99903000  1.0
  N  N2  1  0.00033000  0.49971000  0.06585000  1.0
  N  N3  1  0.99111000  0.38208000  0.99932000  1.0
  N  N4  1  0.00167000  0.50055000  0.93252000  1.0
  N  N5  1  0.49038000  0.61811000  0.50028000  1.0
  N  N6  1  0.49112000  0.49973000  0.43296000  1.0
  N  N7  1  0.51510000  0.50016000  0.56612000  1.0
  N  N8  1  0.51668000  0.38169000  0.49877000  1.0
  O  O1  1  0.99704000  0.00011000  0.27493000  1.0
  O  O2  1  0.16905000  0.07806000  0.20834000  1.0
  O  O3  1  0.17407000  0.91791000  0.21113000  1.0
  O  O4  1  0.82583000  0.07812000  0.21009000  1.0
  O  O5  1  0.66011000  0.07045000  0.29196000  1.0
  O  O6  1  0.49967000  0.00006000  0.22340000  1.0
  O  O7  1  0.83230000  0.91770000  0.21029000  1.0
  O  O8  1  0.66922000  0.91065000  0.28521000  1.0
  O  O9  1  0.00276000  0.00060000  0.72331000  1.0
  O  O10  1  0.16909000  0.07835000  0.78975000  1.0
  O  O11  1  0.33011000  0.08666000  0.71218000  1.0
  O  O12  1  0.50136000  0.00346000  0.77509000  1.0
  O  O13  1  0.18029000  0.91756000  0.78542000  1.0
  O  O14  1  0.34624000  0.92931000  0.70635000  1.0
  O  O15  1  0.82641000  0.08200000  0.78770000  1.0
  O  O16  1  0.83944000  0.92259000  0.79094000  1.0
  O  O17  1  0.32092000  0.08586000  0.28569000  1.0
  O  O18  1  0.33064000  0.92588000  0.29137000  1.0
  O  O19  1  0.66968000  0.07023000  0.70599000  1.0
  O  O20  1  0.67959000  0.90967000  0.71657000  1.0
