# generated using pymatgen
data_Lu2CuH8C24(NO2)8
_symmetry_space_group_name_H-M   'P 1'
_cell_length_a   5.82770000
_cell_length_b   12.43539000
_cell_length_c   23.75437000
_cell_angle_alpha   90.00498000
_cell_angle_beta   90.01742000
_cell_angle_gamma   83.81446000
_symmetry_Int_Tables_number   1
_chemical_formula_structural   Lu2CuH8C24(NO2)8
_chemical_formula_sum   'Lu4 Cu2 H16 C48 N16 O32'
_cell_volume   1711.45042696
_cell_formula_units_Z   2
loop_
 _symmetry_equiv_pos_site_id
 _symmetry_equiv_pos_as_xyz
  1  'x, y, z'
loop_
 _atom_site_type_symbol
 _atom_site_label
 _atom_site_symmetry_multiplicity
 _atom_site_fract_x
 _atom_site_fract_y
 _atom_site_fract_z
 _atom_site_occupancy
  Lu  Lu1  1  0.97706000  0.61899000  0.32234000  1.0
  Lu  Lu2  1  0.52320000  0.88342000  0.82257000  1.0
  Lu  Lu3  1  0.02294000  0.38100000  0.67766000  1.0
  Lu  Lu4  1  0.47680000  0.11659000  0.17742000  1.0
  Cu  Cu1  1  0.50002000  0.99999000  0.49999000  1.0
  Cu  Cu2  1  0.00000000  0.50000000  0.00000000  1.0
  H  H1  1  0.62783000  0.93537000  0.29959000  1.0
  H  H2  1  0.47130000  0.77191000  0.34325000  1.0
  H  H3  1  0.32805000  0.15503000  0.39840000  1.0
  H  H4  1  0.03691000  0.12752000  0.32227000  1.0
  H  H5  1  0.87284000  0.56445000  0.79928000  1.0
  H  H6  1  0.02724000  0.72880000  0.84301000  1.0
  H  H7  1  0.17347000  0.34627000  0.89850000  1.0
  H  H8  1  0.46510000  0.37263000  0.82250000  1.0
  H  H9  1  0.37218000  0.06462000  0.70041000  1.0
  H  H10  1  0.52871000  0.22808000  0.65675000  1.0
  H  H11  1  0.67196000  0.84496000  0.60160000  1.0
  H  H12  1  0.96309000  0.87247000  0.67773000  1.0
  H  H13  1  0.12714000  0.43554000  0.20072000  1.0
  H  H14  1  0.97273000  0.27118000  0.15699000  1.0
  H  H15  1  0.82653000  0.65371000  0.10150000  1.0
  H  H16  1  0.53489000  0.62737000  0.17750000  1.0
  C  C1  1  0.89181000  0.77225000  0.21637000  1.0
  C  C2  1  0.08600000  0.82719000  0.24329000  1.0
  C  C3  1  0.15755000  0.92484000  0.22417000  1.0
  C  C4  1  0.01448000  0.00960000  0.18994000  1.0
  C  C5  1  0.47157000  0.90444000  0.28361000  1.0
  C  C6  1  0.38713000  0.81277000  0.30707000  1.0
  C  C7  1  0.81937000  0.82636000  0.40648000  1.0
  C  C8  1  0.96313000  0.92025000  0.40320000  1.0
  C  C9  1  0.12838000  0.93349000  0.44443000  1.0
  C  C10  1  0.17606000  0.85618000  0.49311000  1.0
  C  C11  1  0.22267000  0.08793000  0.39902000  1.0
  C  C12  1  0.05833000  0.07197000  0.35781000  1.0
  C  C13  1  0.61004000  0.72909000  0.71678000  1.0
  C  C14  1  0.41546000  0.67324000  0.74319000  1.0
  C  C15  1  0.34348000  0.57538000  0.72408000  1.0
  C  C16  1  0.48507000  0.48976000  0.69015000  1.0
  C  C17  1  0.02923000  0.59577000  0.78363000  1.0
  C  C18  1  0.11278000  0.68782000  0.80691000  1.0
  C  C19  1  0.68079000  0.67459000  0.90654000  1.0
  C  C20  1  0.53729000  0.58056000  0.90291000  1.0
  C  C21  1  0.37218000  0.56743000  0.94425000  1.0
  C  C22  1  0.32630000  0.64405000  0.99329000  1.0
  C  C23  1  0.27703000  0.41379000  0.89864000  1.0
  C  C24  1  0.44195000  0.42915000  0.85756000  1.0
  C  C25  1  0.10820000  0.22775000  0.78363000  1.0
  C  C26  1  0.91401000  0.17280000  0.75671000  1.0
  C  C27  1  0.84247000  0.07515000  0.77584000  1.0
  C  C28  1  0.98554000  0.99039000  0.81008000  1.0
  C  C29  1  0.52845000  0.09556000  0.71639000  1.0
  C  C30  1  0.61288000  0.18722000  0.69293000  1.0
  C  C31  1  0.18064000  0.17363000  0.59352000  1.0
  C  C32  1  0.03687000  0.07974000  0.59680000  1.0
  C  C33  1  0.87163000  0.06650000  0.55557000  1.0
  C  C34  1  0.82395000  0.14381000  0.50689000  1.0
  C  C35  1  0.77733000  0.91206000  0.60098000  1.0
  C  C36  1  0.94167000  0.92803000  0.64219000  1.0
  C  C37  1  0.38996000  0.27090000  0.28324000  1.0
  C  C38  1  0.58454000  0.32676000  0.25681000  1.0
  C  C39  1  0.65654000  0.42462000  0.27592000  1.0
  C  C40  1  0.51492000  0.51024000  0.30986000  1.0
  C  C41  1  0.97076000  0.40422000  0.21638000  1.0
  C  C42  1  0.88720000  0.31217000  0.19309000  1.0
  C  C43  1  0.31923000  0.32535000  0.09345000  1.0
  C  C44  1  0.46268000  0.41941000  0.09709000  1.0
  C  C45  1  0.62783000  0.43255000  0.05576000  1.0
  C  C46  1  0.67372000  0.35593000  0.00672000  1.0
  C  C47  1  0.72296000  0.58620000  0.10136000  1.0
  C  C48  1  0.55806000  0.57083000  0.14244000  1.0
  N  N1  1  0.20230000  0.77150000  0.28521000  1.0
  N  N2  1  0.35902000  0.95858000  0.24123000  1.0
  N  N3  1  0.93002000  0.98810000  0.35893000  1.0
  N  N4  1  0.25700000  0.01642000  0.44126000  1.0
  N  N5  1  0.29711000  0.72913000  0.78476000  1.0
  N  N6  1  0.14200000  0.54188000  0.74124000  1.0
  N  N7  1  0.56957000  0.51323000  0.85839000  1.0
  N  N8  1  0.24137000  0.48536000  0.94078000  1.0
  N  N9  1  0.79772000  0.22849000  0.71478000  1.0
  N  N10  1  0.64099000  0.04141000  0.75877000  1.0
  N  N11  1  0.06998000  0.01189000  0.64107000  1.0
  N  N12  1  0.74301000  0.98357000  0.55874000  1.0
  N  N13  1  0.70288000  0.27087000  0.21524000  1.0
  N  N14  1  0.85801000  0.45813000  0.25876000  1.0
  N  N15  1  0.43046000  0.48673000  0.14161000  1.0
  N  N16  1  0.75864000  0.51463000  0.05922000  1.0
  O  O1  1  0.83015000  0.69188000  0.24639000  1.0
  O  O2  1  0.81387000  0.80132000  0.17009000  1.0
  O  O3  1  0.12511000  0.07471000  0.16268000  1.0
  O  O4  1  0.79781000  0.02017000  0.19611000  1.0
  O  O5  1  0.62235000  0.83873000  0.42575000  1.0
  O  O6  1  0.91399000  0.73797000  0.38215000  1.0
  O  O7  1  0.06558000  0.77673000  0.49595000  1.0
  O  O8  1  0.32868000  0.88360000  0.52875000  1.0
  O  O9  1  0.66873000  0.80975000  0.74725000  1.0
  O  O10  1  0.69184000  0.69965000  0.67103000  1.0
  O  O11  1  0.37513000  0.42392000  0.66305000  1.0
  O  O12  1  0.70199000  0.48016000  0.69573000  1.0
  O  O13  1  0.87586000  0.66295000  0.92703000  1.0
  O  O14  1  0.58640000  0.76244000  0.88164000  1.0
  O  O15  1  0.43223000  0.72509000  0.99543000  1.0
  O  O16  1  0.17944000  0.61387000  0.02971000  1.0
  O  O17  1  0.16986000  0.30812000  0.75361000  1.0
  O  O18  1  0.18613000  0.19869000  0.82991000  1.0
  O  O19  1  0.87488000  0.92529000  0.83734000  1.0
  O  O20  1  0.20219000  0.97982000  0.80389000  1.0
  O  O21  1  0.37765000  0.16126000  0.57425000  1.0
  O  O22  1  0.08602000  0.26203000  0.61785000  1.0
  O  O23  1  0.93442000  0.22326000  0.50405000  1.0
  O  O24  1  0.67133000  0.11639000  0.47125000  1.0
  O  O25  1  0.33131000  0.19023000  0.25276000  1.0
  O  O26  1  0.30823000  0.30033000  0.32899000  1.0
  O  O27  1  0.62487000  0.57609000  0.33694000  1.0
  O  O28  1  0.29801000  0.51984000  0.30427000  1.0
  O  O29  1  0.12422000  0.33695000  0.07296000  1.0
  O  O30  1  0.41376000  0.23754000  0.11836000  1.0
  O  O31  1  0.56778000  0.27489000  0.00456000  1.0
  O  O32  1  0.82056000  0.38612000  0.97030000  1.0
