# generated using pymatgen
data_MnZn2H36C72(N2O3)4
_symmetry_space_group_name_H-M   'P 1'
_cell_length_a   13.91957000
_cell_length_b   13.92401000
_cell_length_c   16.71181000
_cell_angle_alpha   70.68371000
_cell_angle_beta   70.64099000
_cell_angle_gamma   74.10642000
_symmetry_Int_Tables_number   1
_chemical_formula_structural   MnZn2H36C72(N2O3)4
_chemical_formula_sum   'Mn1 Zn2 H36 C72 N8 O12'
_cell_volume   2834.39354217
_cell_formula_units_Z   1
loop_
 _symmetry_equiv_pos_site_id
 _symmetry_equiv_pos_as_xyz
  1  'x, y, z'
loop_
 _atom_site_type_symbol
 _atom_site_label
 _atom_site_symmetry_multiplicity
 _atom_site_fract_x
 _atom_site_fract_y
 _atom_site_fract_z
 _atom_site_occupancy
  Mn  Mn0  1  0.49994000  0.49994000  0.00004000  1
  Zn  Zn1  1  0.07221000  0.07218000  0.46515000  1
  Zn  Zn2  1  0.92779000  0.92782000  0.53485000  1
  H  H3  1  0.20371000  0.80917000  0.07764000  1
  H  H4  1  0.44197000  0.60402000  0.29057000  1
  H  H5  1  0.20323000  0.61521000  0.27663000  1
  H  H6  1  0.09875000  0.72250000  0.38083000  1
  H  H7  1  0.29312000  0.95019000  0.24481000  1
  H  H8  1  0.39774000  0.84370000  0.13845000  1
  H  H9  1  0.65107000  0.24718000  0.48457000  1
  H  H10  1  0.18992000  0.79532000  0.92307000  1
  H  H11  1  0.39658000  0.55834000  0.70910000  1
  H  H12  1  0.38478000  0.79695000  0.72332000  1
  H  H13  1  0.27748000  0.90125000  0.61917000  1
  H  H14  1  0.04982000  0.70684000  0.75520000  1
  H  H15  1  0.15637000  0.60231000  0.86143000  1
  H  H16  1  0.75278000  0.34890000  0.51560000  1
  H  H17  1  0.79629000  0.19083000  0.92236000  1
  H  H18  1  0.55803000  0.39598000  0.70943000  1
  H  H19  1  0.79677000  0.38479000  0.72337000  1
  H  H20  1  0.90125000  0.27749000  0.61917000  1
  H  H21  1  0.70688000  0.04981000  0.75519000  1
  H  H22  1  0.60226000  0.15629000  0.86155000  1
  H  H23  1  0.34893000  0.75282000  0.51543000  1
  H  H24  1  0.81008000  0.20467000  0.07692000  1
  H  H25  1  0.60343000  0.44165000  0.29090000  1
  H  H26  1  0.61522000  0.20304000  0.27668000  1
  H  H27  1  0.72252000  0.09875000  0.38082000  1
  H  H28  1  0.95018000  0.29316000  0.24479000  1
  H  H29  1  0.84363000  0.39768000  0.13857000  1
  H  H30  1  0.24722000  0.65110000  0.48440000  1
  H  H31  1  0.21501000  0.21500000  0.32200000  1
  H  H32  1  0.33000000  0.32998000  0.31782000  1
  H  H33  1  0.23997000  0.23998000  0.60106000  1
  H  H34  1  0.12854000  0.12853000  0.59437000  1
  H  H35  1  0.78499000  0.78499000  0.67800000  1
  H  H36  1  0.67000000  0.67001000  0.68218000  1
  H  H37  1  0.76003000  0.76001000  0.39894000  1
  H  H38  1  0.87146000  0.87147000  0.40563000  1
  C  C39  1  0.25107000  0.75574000  0.03895000  1
  C  C40  1  0.33584000  0.67681000  0.06256000  1
  C  C41  1  0.36691000  0.65857000  0.13866000  1
  C  C42  1  0.44833000  0.58076000  0.16262000  1
  C  C43  1  0.47889000  0.56066000  0.24168000  1
  C  C44  1  0.30619000  0.72352000  0.20057000  1
  C  C45  1  0.22209000  0.68913000  0.26894000  1
  C  C46  1  0.16372000  0.74880000  0.32718000  1
  C  C47  1  0.18937000  0.84305000  0.31832000  1
  C  C48  1  0.27393000  0.87721000  0.25031000  1
  C  C49  1  0.33199000  0.81786000  0.19148000  1
  C  C50  1  0.12583000  0.90595000  0.38206000  1
  C  C51  1  0.45942000  0.30775000  0.46596000  1
  C  C52  1  0.61828000  0.32549000  0.49141000  1
  C  C53  1  0.51758000  0.36929000  0.48239000  1
  C  C54  1  0.24406000  0.74872000  0.96127000  1
  C  C55  1  0.32409000  0.66505000  0.93684000  1
  C  C56  1  0.34181000  0.63354000  0.86103000  1
  C  C57  1  0.41922000  0.55168000  0.83736000  1
  C  C58  1  0.43937000  0.52097000  0.75833000  1
  C  C59  1  0.27656000  0.69394000  0.79934000  1
  C  C60  1  0.31085000  0.77806000  0.73102000  1
  C  C61  1  0.25118000  0.83633000  0.67281000  1
  C  C62  1  0.15693000  0.81063000  0.68168000  1
  C  C63  1  0.12282000  0.72606000  0.74967000  1
  C  C64  1  0.18222000  0.66804000  0.80842000  1
  C  C65  1  0.09403000  0.87412000  0.61796000  1
  C  C66  1  0.69239000  0.54070000  0.53371000  1
  C  C67  1  0.67454000  0.38177000  0.50856000  1
  C  C68  1  0.63093000  0.48266000  0.51712000  1
  C  C69  1  0.74894000  0.24426000  0.96105000  1
  C  C70  1  0.66415000  0.32318000  0.93743000  1
  C  C71  1  0.63309000  0.34143000  0.86133000  1
  C  C72  1  0.55167000  0.41924000  0.83737000  1
  C  C73  1  0.52111000  0.43933000  0.75831000  1
  C  C74  1  0.69381000  0.27648000  0.79943000  1
  C  C75  1  0.77791000  0.31087000  0.73106000  1
  C  C76  1  0.83629000  0.25120000  0.67281000  1
  C  C77  1  0.81063000  0.15695000  0.68168000  1
  C  C78  1  0.72607000  0.12278000  0.74969000  1
  C  C79  1  0.66801000  0.18213000  0.80851000  1
  C  C80  1  0.87417000  0.09404000  0.61794000  1
  C  C81  1  0.54058000  0.69225000  0.53403000  1
  C  C82  1  0.38172000  0.67450000  0.50858000  1
  C  C83  1  0.48242000  0.63070000  0.51761000  1
  C  C84  1  0.75594000  0.25127000  0.03873000  1
  C  C85  1  0.67590000  0.33494000  0.06316000  1
  C  C86  1  0.65819000  0.36646000  0.13897000  1
  C  C87  1  0.58077000  0.44831000  0.16263000  1
  C  C88  1  0.56063000  0.47903000  0.24167000  1
  C  C89  1  0.72345000  0.30605000  0.20065000  1
  C  C90  1  0.68915000  0.22193000  0.26897000  1
  C  C91  1  0.74882000  0.16366000  0.32719000  1
  C  C92  1  0.84307000  0.18937000  0.31832000  1
  C  C93  1  0.87718000  0.27393000  0.25033000  1
  C  C94  1  0.81779000  0.33195000  0.19157000  1
  C  C95  1  0.90597000  0.12587000  0.38203000  1
  C  C96  1  0.30761000  0.45929000  0.46628000  1
  C  C97  1  0.32546000  0.61823000  0.49144000  1
  C  C98  1  0.36907000  0.51734000  0.48287000  1
  C  C99  1  0.22291000  0.22289000  0.38207000  1
  C  C100  1  0.28630000  0.28628000  0.37987000  1
  C  C101  1  0.29250000  0.29249000  0.45950000  1
  C  C102  1  0.23585000  0.23585000  0.53839000  1
  C  C103  1  0.17438000  0.17437000  0.53498000  1
  C  C104  1  0.47103000  0.47105000  0.49137000  1
  C  C105  1  0.77709000  0.77711000  0.61793000  1
  C  C106  1  0.71370000  0.71371000  0.62013000  1
  C  C107  1  0.70751000  0.70750000  0.54049000  1
  C  C108  1  0.76415000  0.76414000  0.46161000  1
  C  C109  1  0.82562000  0.82562000  0.46502000  1
  C  C110  1  0.52897000  0.52895000  0.50862000  1
  N  N111  1  0.16791000  0.16789000  0.45810000  1
  N  N112  1  0.35620000  0.35619000  0.46252000  1
  N  N113  1  0.83209000  0.83211000  0.54189000  1
  N  N114  1  0.64380000  0.64380000  0.53747000  1
  N  N115  1  0.38044000  0.62174000  0.99924000  1
  N  N116  1  0.61955000  0.37824000  0.00077000  1
  N  N117  1  0.51134000  0.51125000  0.11452000  1
  N  N118  1  0.48864000  0.48873000  0.88549000  1
  O  O119  1  0.15721000  0.98614000  0.37710000  1
  O  O120  1  0.04533000  0.87283000  0.43637000  1
  O  O121  1  0.49355000  0.21941000  0.45645000  1
  O  O122  1  0.01381000  0.84277000  0.62291000  1
  O  O123  1  0.12718000  0.95457000  0.56366000  1
  O  O124  1  0.78070000  0.50657000  0.54333000  1
  O  O125  1  0.84279000  0.01386000  0.62290000  1
  O  O126  1  0.95467000  0.12717000  0.56362000  1
  O  O127  1  0.50645000  0.78059000  0.54354000  1
  O  O128  1  0.98619000  0.15723000  0.37708000  1
  O  O129  1  0.87282000  0.04543000  0.43634000  1
  O  O130  1  0.21930000  0.49342000  0.45667000  1
