# generated using pymatgen
data_H7C10N2O
_symmetry_space_group_name_H-M   'P 1'
_cell_length_a   10.01153333
_cell_length_b   60.20915000
_cell_length_c   60.20920000
_cell_angle_alpha   120.00008241
_cell_angle_beta   90.00000000
_cell_angle_gamma   90.00000000
_symmetry_Int_Tables_number   1
_chemical_formula_structural   H7C10N2O
_chemical_formula_sum   'H126 C180 N36 O18'
_cell_volume   31430.85691832
_cell_formula_units_Z   18
loop_
 _symmetry_equiv_pos_site_id
 _symmetry_equiv_pos_as_xyz
  1  'x, y, z'
loop_
 _atom_site_type_symbol
 _atom_site_label
 _atom_site_symmetry_multiplicity
 _atom_site_fract_x
 _atom_site_fract_y
 _atom_site_fract_z
 _atom_site_occupancy
  C  1  1  0.98967800  0.82515200  0.43258600  1
  C  3  1  0.00361000  0.86482600  0.43301300  1
  C  5  1  0.02063100  0.82540800  0.39356500  1
  C  7  1  0.00189300  0.89214100  0.44675000  1
  C  8  1  0.97067600  0.90606600  0.47324500  1
  C  9  1  0.96779300  0.93302000  0.48675700  1
  C  10  1  0.99654900  0.94705200  0.47427300  1
  C  11  1  0.03009000  0.93330700  0.44796000  1
  C  12  1  0.03156400  0.90635000  0.43440900  1
  C  13  1  0.97392700  0.81092300  0.44532700  1
  C  14  1  0.03235700  0.81907200  0.46960700  1
  C  15  1  0.03008000  0.80310700  0.48051400  1
  C  16  1  0.96330900  0.77923200  0.46806500  1
  C  17  1  0.90004600  0.77162700  0.44433000  1
  C  18  1  0.90609900  0.78714000  0.43306400  1
  C  19  1  0.03635400  0.81144400  0.36658300  1
  C  20  1  0.10458900  0.78770200  0.35481700  1
  C  21  1  0.11037200  0.77241900  0.32801000  1
  C  22  1  0.04630600  0.78020900  0.31209600  1
  C  23  1  0.97913500  0.80404600  0.32377000  1
  C  24  1  0.97721300  0.81979400  0.35067000  1
  C  37  1  0.98957300  0.60887700  0.17598800  1
  C  39  1  0.00353100  0.56962700  0.13631800  1
  C  41  1  0.02045500  0.56960400  0.17574100  1
  C  43  1  0.00185900  0.55604700  0.10900300  1
  C  44  1  0.97069000  0.56861300  0.09507400  1
  C  45  1  0.96781400  0.55517000  0.06812200  1
  C  46  1  0.99653500  0.52865300  0.05409400  1
  C  47  1  0.03009000  0.51608900  0.06784300  1
  C  48  1  0.03152800  0.52949600  0.09479900  1
  C  49  1  0.97388500  0.63584900  0.19021500  1
  C  50  1  0.03251300  0.65197700  0.18208600  1
  C  51  1  0.03008500  0.67885100  0.19802900  1
  C  52  1  0.96320400  0.69029200  0.22189100  1
  C  53  1  0.90010700  0.67415500  0.22951200  1
  C  54  1  0.90605500  0.64737600  0.21399600  1
  C  55  1  0.03616400  0.55659100  0.18971200  1
  C  56  1  0.10433900  0.56857800  0.21346300  1
  C  57  1  0.11001400  0.55706800  0.22876000  1
  C  58  1  0.04607600  0.53335000  0.22094400  1
  C  59  1  0.97909100  0.52115400  0.19709200  1
  C  60  1  0.97707200  0.53232200  0.18135900  1
  C  73  1  0.98966400  0.56855600  0.39228300  1
  C  75  1  0.00362100  0.56813500  0.43153200  1
  C  77  1  0.02064100  0.60757900  0.43155500  1
  C  79  1  0.00190800  0.55440000  0.44511200  1
  C  80  1  0.97069100  0.52790600  0.43254500  1
  C  81  1  0.96780800  0.51439700  0.44598900  1
  C  82  1  0.99655100  0.52688400  0.47250500  1
  C  83  1  0.03009400  0.55319600  0.48507000  1
  C  84  1  0.03157300  0.56674400  0.47166100  1
  C  85  1  0.97389200  0.55581200  0.36531200  1
  C  86  1  0.03236300  0.53153700  0.34918200  1
  C  87  1  0.03007600  0.52062700  0.32230800  1
  C  88  1  0.96325300  0.53307100  0.31088300  1
  C  89  1  0.89994200  0.55680200  0.32701400  1
  C  90  1  0.90601300  0.56806900  0.35379200  1
  C  91  1  0.03636700  0.63456200  0.44457100  1
  C  92  1  0.10455400  0.64632400  0.43258400  1
  C  93  1  0.11034100  0.67313000  0.44410500  1
  C  94  1  0.04632100  0.68904800  0.46781500  1
  C  95  1  0.97920100  0.67737700  0.47998700  1
  C  96  1  0.97727700  0.65047700  0.46883600  1
  C  109  1  0.98479300  0.17657100  0.56800300  1
  C  111  1  0.00002000  0.13702500  0.56774900  1
  C  113  1  0.01045400  0.17646200  0.60722300  1
  C  115  1  0.00218300  0.10976000  0.55404700  1
  C  116  1  0.02780900  0.09586600  0.52733800  1
  C  117  1  0.03124400  0.06891500  0.51384200  1
  C  118  1  0.00761700  0.05493600  0.52656700  1
  C  119  1  0.97945900  0.06866400  0.55311200  1
  C  120  1  0.97839200  0.09562100  0.56667100  1
  C  121  1  0.96963600  0.19073400  0.55516700  1
  C  122  1  0.02866600  0.18255700  0.53093000  1
  C  123  1  0.02565600  0.19836000  0.51984000  1
  C  124  1  0.95776900  0.22212000  0.53207200  1
  C  125  1  0.89448300  0.22980400  0.55582500  1
  C  126  1  0.90094500  0.21443000  0.56723900  1
  C  127  1  0.02482500  0.19049800  0.63423400  1
  C  128  1  0.09276800  0.21427400  0.64603900  1
  C  129  1  0.09901700  0.22946700  0.67284700  1
  C  130  1  0.03609700  0.22151000  0.68872600  1
  C  131  1  0.96902600  0.19766400  0.67703000  1
  C  132  1  0.96629000  0.18204800  0.65011400  1
  C  145  1  0.98487900  0.39287600  0.82457100  1
  C  147  1  0.00012433  0.43216400  0.86412100  1
  C  149  1  0.01058800  0.43220700  0.82468600  1
  C  151  1  0.00231800  0.44572500  0.89138500  1
  C  152  1  0.02794800  0.43290700  0.90527500  1
  C  153  1  0.03133300  0.44636100  0.93222800  1
  C  154  1  0.00768200  0.47306200  0.94620800  1
  C  155  1  0.97958900  0.48588300  0.93248300  1
  C  156  1  0.97854200  0.47249000  0.90552700  1
  C  157  1  0.96965700  0.36587800  0.81040800  1
  C  158  1  0.02850800  0.34981300  0.81860000  1
  C  159  1  0.02564600  0.32292300  0.80277600  1
  C  160  1  0.95785900  0.31141100  0.77900500  1
  C  161  1  0.89438400  0.32747400  0.77133900  1
  C  162  1  0.90094500  0.35426000  0.78671200  1
  C  163  1  0.02496600  0.44518500  0.81065300  1
  C  164  1  0.09289300  0.43321700  0.78687800  1
  C  165  1  0.09929500  0.44485200  0.77170500  1
  C  166  1  0.03628800  0.46868000  0.77964200  1
  C  167  1  0.96905700  0.48079900  0.80347500  1
  C  168  1  0.96642400  0.46951400  0.81910500  1
  C  181  1  0.98480200  0.43314000  0.60828400  1
  C  183  1  0.00002200  0.43340000  0.56899600  1
  C  185  1  0.01044200  0.39392300  0.56895500  1
  C  187  1  0.00219300  0.44710400  0.55543500  1
  C  188  1  0.02781800  0.47381200  0.56825300  1
  C  189  1  0.03125500  0.48731000  0.55479900  1
  C  190  1  0.00762200  0.47458700  0.52809500  1
  C  191  1  0.97946500  0.44804500  0.51527800  1
  C  192  1  0.97840100  0.43448200  0.52867100  1
  C  193  1  0.96965600  0.44597500  0.63528400  1
  C  194  1  0.02866200  0.47021500  0.65134600  1
  C  195  1  0.02565500  0.48130400  0.67823900  1
  C  196  1  0.95779500  0.46906800  0.68976600  1
  C  197  1  0.89453300  0.44531300  0.67369600  1
  C  198  1  0.90099000  0.43389900  0.64690700  1
  C  199  1  0.02479600  0.36691100  0.55597600  1
  C  200  1  0.09273300  0.35510200  0.56794500  1
  C  201  1  0.09902600  0.32829400  0.55632200  1
  C  202  1  0.03607900  0.31241700  0.53248800  1
  C  203  1  0.96896600  0.32411700  0.52034600  1
  C  204  1  0.96623100  0.35103500  0.53164900  1
  C  217  1  0.00802500  0.02778600  0.51310500  1
  C  219  1  0.89468800  0.98938900  0.50518700  1
  C  220  1  0.99590600  0.97423400  0.48774300  1
  C  222  1  0.10907900  0.01266200  0.49562200  1
  C  225  1  0.33176700  0.02555000  0.50599000  1
  C  229  1  0.67215800  0.97651100  0.49454600  1
  C  233  1  0.00807000  0.48674800  0.97335900  1
  C  235  1  0.89471200  0.51722700  0.01175300  1
  C  236  1  0.99591500  0.51493600  0.02691000  1
  C  238  1  0.10910600  0.48438800  0.98848400  1
  C  241  1  0.33179700  0.48186800  0.97559600  1
  C  245  1  0.67217000  0.51946600  0.02462400  1
  C  249  1  0.00802500  0.48805300  0.51441000  1
  C  251  1  0.89468800  0.49597100  0.48393000  1
  C  252  1  0.99590600  0.51341700  0.48622100  1
  C  254  1  0.10907500  0.50553600  0.51677100  1
  C  257  1  0.33176200  0.49516900  0.51929300  1
  C  261  1  0.67215400  0.50660800  0.48169400  1
  C  265  1  0.97967800  0.71658600  0.24015300  1
  C  267  1  0.13598300  0.74745300  0.26961100  1
  C  268  1  0.02955100  0.76214600  0.28575400  1
  C  270  1  0.87318200  0.73253800  0.25507900  1
  C  273  1  0.67880600  0.73378600  0.23431900  1
  C  277  1  0.32845600  0.76863700  0.26829700  1
  C  281  1  0.97955800  0.52498300  0.28457600  1
  C  283  1  0.13581400  0.52362500  0.25371400  1
  C  284  1  0.02945100  0.52504100  0.23898400  1
  C  286  1  0.87312200  0.52396400  0.26861700  1
  C  289  1  0.67874300  0.50196500  0.26738800  1
  C  293  1  0.32847700  0.50118300  0.23256300  1
  C  297  1  0.97963000  0.76101300  0.47615500  1
  C  299  1  0.13597800  0.73153300  0.47753800  1
  C  300  1  0.02956000  0.71539000  0.47609300  1
  C  302  1  0.87320100  0.74606200  0.47716000  1
  C  305  1  0.67877200  0.76682200  0.49914600  1
  C  309  1  0.32852200  0.73283400  0.50001200  1
  C  313  1  0.97323800  0.28504800  0.76088900  1
  C  315  1  0.12801100  0.25403700  0.73110500  1
  C  316  1  0.02084000  0.23941700  0.71514600  1
  C  318  1  0.86607100  0.26916600  0.74616900  1
  C  321  1  0.67251800  0.26807600  0.76721800  1
  C  325  1  0.32132900  0.23289400  0.73211500  1
  C  329  1  0.97334100  0.47725700  0.71611300  1
  C  331  1  0.12815300  0.47853700  0.74713100  1
  C  332  1  0.02090100  0.47716700  0.76171500  1
  C  334  1  0.86610200  0.47842800  0.73199000  1
  C  337  1  0.67256400  0.50057800  0.73309600  1
  C  341  1  0.32129400  0.50074300  0.76830700  1
  C  345  1  0.97330600  0.24027900  0.52388400  1
  C  347  1  0.12802700  0.27003800  0.52263000  1
  C  348  1  0.02083200  0.28599800  0.52397200  1
  C  350  1  0.86606500  0.25497300  0.52270000  1
  C  353  1  0.67256600  0.23391900  0.50053800  1
  C  357  1  0.32127500  0.26901900  0.50045300  1
  H  25  1  0.08078200  0.80871200  0.49726100  1
  H  26  1  0.08568600  0.83579900  0.47865600  1
  H  27  1  0.85658600  0.75391900  0.43410900  1
  H  28  1  0.86318000  0.78050000  0.41542000  1
  H  29  1  0.14800100  0.78091400  0.36565600  1
  H  30  1  0.15406400  0.75471300  0.32032900  1
  H  31  1  0.92350900  0.83648600  0.35851900  1
  H  32  1  0.92785500  0.80977200  0.31278400  1
  H  33  1  0.05564600  0.89727100  0.41534800  1
  H  34  1  0.05152900  0.94280100  0.43825300  1
  H  35  1  0.94710700  0.94228100  0.50596900  1
  H  36  1  0.94909900  0.89677400  0.48312700  1
  H  61  1  0.08067200  0.68999200  0.19240800  1
  H  62  1  0.08551100  0.64429500  0.16531900  1
  H  63  1  0.85669600  0.68164200  0.24722500  1
  H  64  1  0.86321000  0.63637900  0.22065300  1
  H  65  1  0.14770400  0.58620700  0.22025200  1
  H  66  1  0.15377700  0.56708500  0.24646000  1
  H  67  1  0.92349500  0.52347200  0.16465100  1
  H  68  1  0.92784400  0.50443900  0.19136200  1
  H  69  1  0.05557600  0.51951500  0.10387900  1
  H  70  1  0.05148500  0.49688600  0.05834900  1
  H  71  1  0.94713800  0.56511900  0.05885700  1
  H  72  1  0.94910500  0.58778900  0.10436400  1
  H  97  1  0.08080700  0.50388600  0.31116700  1
  H  98  1  0.08573700  0.52249100  0.35686000  1
  H  99  1  0.85644100  0.56701900  0.31952600  1
  H  100  1  0.86306400  0.58571100  0.36479700  1
  H  101  1  0.14792900  0.63548500  0.41495600  1
  H  102  1  0.15399200  0.68081200  0.43407600  1
  H  103  1  0.92361000  0.64263000  0.47768500  1
  H  104  1  0.92795800  0.68836500  0.49670100  1
  H  105  1  0.05565500  0.58580500  0.48164300  1
  H  106  1  0.05152900  0.56290400  0.50427100  1
  H  107  1  0.94711700  0.49518300  0.43604000  1
  H  108  1  0.94912000  0.51802100  0.41337000  1
  H  133  1  0.07638200  0.19270200  0.50308500  1
  H  134  1  0.08212600  0.16584100  0.52194900  1
  H  135  1  0.85030900  0.24745800  0.56592300  1
  H  136  1  0.85758000  0.22112000  0.58485500  1
  H  137  1  0.13593400  0.22112700  0.63523700  1
  H  138  1  0.14287000  0.24716300  0.68056600  1
  H  139  1  0.91337500  0.16526200  0.64222300  1
  H  140  1  0.91860000  0.19182200  0.68800700  1
  H  141  1  0.95790000  0.10476000  0.58588800  1
  H  142  1  0.96182000  0.05915500  0.56294600  1
  H  143  1  0.04845500  0.05960500  0.49450000  1
  H  144  1  0.04581200  0.10520100  0.51735900  1
  H  169  1  0.07649700  0.31182500  0.80841600  1
  H  170  1  0.08230500  0.35754500  0.83527700  1
  H  171  1  0.85014900  0.31991700  0.75369000  1
  H  172  1  0.85749200  0.36519300  0.78003900  1
  H  173  1  0.13614300  0.41557100  0.78003300  1
  H  174  1  0.14306500  0.43486800  0.75400200  1
  H  175  1  0.91339600  0.47840500  0.83587800  1
  H  176  1  0.91861100  0.49761500  0.80931600  1
  H  177  1  0.95803400  0.48256700  0.89638700  1
  H  178  1  0.96191500  0.50522400  0.94199100  1
  H  179  1  0.04850900  0.43632300  0.94153500  1
  H  180  1  0.04590200  0.41359200  0.89594000  1
  H  205  1  0.07636600  0.49805900  0.68933500  1
  H  206  1  0.08210100  0.47919900  0.64361200  1
  H  207  1  0.85037900  0.43521300  0.68125100  1
  H  208  1  0.85763600  0.41628300  0.63598200  1
  H  209  1  0.13598700  0.36590300  0.58559100  1
  H  210  1  0.14292000  0.32057300  0.56629300  1
  H  211  1  0.91330500  0.35892700  0.52275800  1
  H  212  1  0.91852000  0.31314200  0.50352900  1
  H  213  1  0.95790900  0.41526400  0.51859200  1
  H  214  1  0.96183000  0.43821000  0.49593400  1
  H  215  1  0.04846300  0.50665200  0.56483400  1
  H  216  1  0.04581800  0.48379000  0.58756600  1
  H  226  1  0.41343800  0.03374300  0.50044100  1
  H  227  1  0.36445400  0.00697600  0.50312300  1
  H  228  1  0.31059600  0.03846600  0.52630800  1
  H  230  1  0.58991800  0.96839600  0.50004700  1
  H  231  1  0.69400400  0.96350600  0.47427400  1
  H  232  1  0.63992300  0.99505300  0.49726000  1
  H  242  1  0.41347300  0.46812900  0.96740700  1
  H  243  1  0.36447500  0.49757900  0.99417200  1
  H  244  1  0.31062600  0.48926800  0.96267900  1
  H  246  1  0.58993500  0.53308400  0.03273800  1
  H  247  1  0.69399900  0.51220200  0.03763200  1
  H  248  1  0.63994100  0.50363900  0.00608200  1
  H  258  1  0.41343300  0.50071700  0.53303300  1
  H  259  1  0.36445000  0.49803600  0.50358400  1
  H  260  1  0.31059200  0.47485100  0.51189100  1
  H  262  1  0.58991400  0.50110700  0.46807700  1
  H  263  1  0.69398900  0.52688000  0.48896200  1
  H  264  1  0.63992200  0.50389200  0.49752200  1
  H  274  1  0.57556100  0.72715200  0.23123400  1
  H  275  1  0.72725100  0.72580300  0.21559600  1
  H  276  1  0.67810100  0.75471500  0.24370800  1
  H  278  1  0.43185700  0.77190100  0.27484400  1
  H  279  1  0.27890800  0.78727000  0.27640900  1
  H  280  1  0.32859100  0.75934600  0.24737400  1
  H  290  1  0.57549600  0.50552000  0.27401900  1
  H  291  1  0.72718000  0.49124000  0.27538900  1
  H  292  1  0.67805200  0.49040700  0.24646000  1
  H  294  1  0.43186700  0.50449500  0.22932200  1
  H  295  1  0.27904300  0.49065200  0.21392000  1
  H  296  1  0.32866500  0.48954600  0.24184900  1
  H  306  1  0.57552700  0.76989400  0.49558400  1
  H  307  1  0.72717700  0.78555000  0.50987600  1
  H  308  1  0.67806300  0.75745100  0.51070200  1
  H  310  1  0.43192100  0.72628500  0.49671700  1
  H  311  1  0.27902300  0.72471500  0.51053200  1
  H  312  1  0.32866500  0.75375600  0.51165200  1
  H  322  1  0.56941800  0.27479800  0.77046100  1
  H  323  1  0.72171800  0.27600100  0.78586800  1
  H  324  1  0.67135600  0.24714500  0.75781100  1
  H  326  1  0.42440600  0.22962700  0.72538000  1
  H  327  1  0.27194100  0.21426000  0.72415900  1
  H  328  1  0.32256700  0.24225800  0.75304300  1
  H  338  1  0.56946800  0.49710500  0.72637000  1
  H  339  1  0.72178100  0.51131500  0.72518800  1
  H  340  1  0.67137500  0.51208500  0.75402500  1
  H  342  1  0.42438100  0.49730300  0.77159900  1
  H  343  1  0.27179500  0.51141200  0.78692900  1
  H  344  1  0.32249700  0.51230100  0.75893800  1
  H  354  1  0.56946800  0.23066400  0.50400400  1
  H  355  1  0.72180800  0.21527700  0.48980500  1
  H  356  1  0.67140000  0.24334200  0.48902900  1
  H  358  1  0.42435100  0.27575400  0.50390900  1
  H  359  1  0.27183700  0.27696600  0.48977300  1
  H  360  1  0.32251300  0.24809000  0.48889500  1
  N  2  1  0.99017300  0.85118500  0.44536800  1
  N  4  1  0.01797400  0.85143100  0.40703000  1
  N  6  1  0.00558900  0.81273200  0.40674800  1
  N  38  1  0.99010700  0.59562500  0.14995600  1
  N  40  1  0.01784400  0.55704200  0.14971800  1
  N  42  1  0.00543500  0.59546300  0.18841300  1
  N  74  1  0.99016700  0.55577600  0.40553500  1
  N  76  1  0.01799000  0.59411800  0.44411700  1
  N  78  1  0.00557900  0.59439200  0.40569500  1
  N  110  1  0.98824100  0.15054300  0.55524200  1
  N  112  1  0.01030300  0.15043500  0.59379700  1
  N  114  1  0.99692300  0.18905300  0.59392100  1
  N  146  1  0.98833500  0.40614100  0.85059900  1
  N  148  1  0.01044400  0.44480500  0.85071300  1
  N  150  1  0.99702500  0.40631500  0.81209200  1
  N  182  1  0.98825400  0.44590200  0.59501900  1
  N  184  1  0.01029300  0.40735000  0.55635400  1
  N  186  1  0.99691900  0.40722200  0.59484500  1
  N  218  1  0.90599500  0.01529100  0.51709900  1
  N  221  1  0.09782800  0.98676100  0.48374200  1
  N  234  1  0.90603800  0.50323900  0.98585200  1
  N  237  1  0.09783700  0.49841000  0.01438700  1
  N  250  1  0.90599600  0.48405700  0.49792000  1
  N  253  1  0.09782300  0.51741700  0.50274800  1
  N  266  1  0.10620300  0.72491200  0.24821500  1
  N  269  1  0.90297800  0.75390900  0.27763800  1
  N  282  1  0.10604300  0.52476200  0.27625000  1
  N  285  1  0.90293900  0.52515800  0.24725200  1
  N  298  1  0.10614300  0.75292700  0.47639600  1
  N  301  1  0.90299400  0.72350400  0.47597000  1
  N  314  1  0.09930000  0.27661300  0.75254400  1
  N  317  1  0.89474900  0.24779100  0.72354000  1
  N  330  1  0.09944400  0.47739100  0.72454900  1
  N  333  1  0.89475200  0.47718100  0.75336900  1
  N  346  1  0.09938000  0.24859900  0.52376900  1
  N  349  1  0.89473700  0.27759900  0.52395000  1
  O  223  1  0.21795700  0.02290900  0.49028300  1
  O  224  1  0.78519400  0.97922200  0.51044700  1
  O  239  1  0.21798800  0.46880200  0.97824100  1
  O  240  1  0.78522300  0.53265500  0.02191700  1
  O  255  1  0.21795300  0.51087700  0.53235700  1
  O  256  1  0.78519500  0.49070900  0.46850300  1
  O  271  1  0.74240800  0.72515800  0.25004900  1
  O  272  1  0.26683800  0.75267900  0.27685400  1
  O  287  1  0.74234300  0.52631800  0.27599400  1
  O  288  1  0.26666300  0.52567900  0.24851300  1
  O  303  1  0.74242300  0.75108100  0.47479700  1
  O  304  1  0.26683700  0.72428700  0.47550500  1
  O  319  1  0.73555600  0.27667400  0.75141600  1
  O  320  1  0.25847600  0.24876400  0.72358100  1
  O  335  1  0.73559600  0.47617300  0.72447800  1
  O  336  1  0.25862100  0.47631900  0.75243100  1
  O  351  1  0.73555100  0.24971100  0.52494600  1
  O  352  1  0.25848600  0.27756300  0.52486300  1
