# generated using pymatgen
data_EuH3(CO)6
_symmetry_space_group_name_H-M   'P 1'
_cell_length_a   7.24276000
_cell_length_b   8.38673000
_cell_length_c   11.95241000
_cell_angle_alpha   89.25652000
_cell_angle_beta   75.25755000
_cell_angle_gamma   75.66257000
_symmetry_Int_Tables_number   1
_chemical_formula_structural   EuH3(CO)6
_chemical_formula_sum   'Eu2 H6 C12 O12'
_cell_volume   679.28583831
_cell_formula_units_Z   2
loop_
 _symmetry_equiv_pos_site_id
 _symmetry_equiv_pos_as_xyz
  1  'x, y, z'
loop_
 _atom_site_type_symbol
 _atom_site_label
 _atom_site_symmetry_multiplicity
 _atom_site_fract_x
 _atom_site_fract_y
 _atom_site_fract_z
 _atom_site_occupancy
  Eu  Eu0  1  0.21351000  0.99882000  0.09080000  1
  Eu  Eu1  1  0.78614000  0.00168000  0.91134000  1
  H  H2  1  0.86667000  0.61829000  0.11427000  1
  H  H3  1  0.57951000  0.41166000  0.08890000  1
  H  H4  1  0.14512000  0.10588000  0.50595000  1
  H  H5  1  0.13486000  0.38070000  0.88723000  1
  H  H6  1  0.42067000  0.58903000  0.91155000  1
  H  H7  1  0.85232000  0.89551000  0.49663000  1
  C  C8  1  0.56390000  0.72996000  0.09762000  1
  C  C9  1  0.73082000  0.59093000  0.10671000  1
  C  C10  1  0.71521000  0.43518000  0.09988000  1
  C  C11  1  0.88014000  0.28989000  0.09923000  1
  C  C12  1  0.11628000  0.01910000  0.34045000  1
  C  C13  1  0.06633000  0.03530000  0.46805000  1
  C  C14  1  0.43782000  0.27141000  0.90479000  1
  C  C15  1  0.27012000  0.40923000  0.89479000  1
  C  C16  1  0.28502000  0.56531000  0.90064000  1
  C  C17  1  0.12001000  0.71065000  0.90118000  1
  C  C18  1  0.87987000  0.98393000  0.66241000  1
  C  C19  1  0.93090000  0.96621000  0.53474000  1
  O  O20  1  0.59934000  0.86971000  0.06311000  1
  O  O21  1  0.38987000  0.71225000  0.12188000  1
  O  O22  1  0.87984000  0.15217000  0.04993000  1
  O  O23  1  0.01877000  0.29705000  0.14334000  1
  O  O24  1  0.01906000  0.95253000  0.28720000  1
  O  O25  1  0.26045000  0.07249000  0.28117000  1
  O  O26  1  0.40375000  0.13260000  0.94263000  1
  O  O27  1  0.61194000  0.28868000  0.87805000  1
  O  O28  1  0.12103000  0.84863000  0.94988000  1
  O  O29  1  0.98059000  0.70326000  0.85784000  1
  O  O30  1  0.97973000  0.04723000  0.71589000  1
  O  O31  1  0.73196000  0.93528000  0.72186000  1
