# generated using pymatgen
data_H29C43N4
_symmetry_space_group_name_H-M   'P 1'
_cell_length_a   9.80333333
_cell_length_b   34.44060000
_cell_length_c   34.44060000
_cell_angle_alpha   89.83130000
_cell_angle_beta   90.00000000
_cell_angle_gamma   90.00000000
_symmetry_Int_Tables_number   1
_chemical_formula_structural   H29C43N4
_chemical_formula_sum   'H58 C86 N8'
_cell_volume   11628.22174313
_cell_formula_units_Z   2
loop_
 _symmetry_equiv_pos_site_id
 _symmetry_equiv_pos_as_xyz
  1  'x, y, z'
loop_
 _atom_site_type_symbol
 _atom_site_label
 _atom_site_symmetry_multiplicity
 _atom_site_fract_x
 _atom_site_fract_y
 _atom_site_fract_z
 _atom_site_occupancy
  C  1  1  0.99594500  0.88845000  0.08332100  1
  C  2  1  0.99587300  0.91699200  0.11145000  1
  C  3  1  0.99453300  0.95319700  0.09302900  1
  C  5  1  0.99593400  0.90632000  0.04682700  1
  C  6  1  0.99698600  0.88620000  0.01061900  1
  C  7  1  0.99699700  0.90496300  0.97369300  1
  C  9  1  0.99755700  0.95099400  0.92705100  1
  C  10  1  0.99952100  0.91470200  0.90905100  1
  C  11  1  0.99977200  0.88647800  0.93765700  1
  C  12  1  0.99729200  0.98765900  0.90777400  1
  C  13  1  0.99591400  0.02414200  0.92733200  1
  C  15  1  0.99539400  0.07101200  0.97351900  1
  C  16  1  0.99538500  0.08888300  0.93702400  1
  C  17  1  0.99628700  0.06034300  0.90889700  1
  C  18  1  0.99536300  0.09113100  0.00972400  1
  C  19  1  0.99498600  0.07237300  0.04664500  1
  C  21  1  0.99514500  0.02634800  0.09330300  1
  C  22  1  0.99637400  0.06265900  0.11128100  1
  C  23  1  0.99699600  0.09087600  0.08267300  1
  C  24  1  0.99491500  0.98968500  0.11259900  1
  C  25  1  0.99884400  0.98967500  0.15433700  1
  C  26  1  0.12281900  0.99605200  0.17423800  1
  C  27  1  0.12678900  0.99735200  0.21514100  1
  C  28  1  0.00755500  0.99225500  0.23798800  1
  C  29  1  0.88413400  0.98508000  0.21774200  1
  C  30  1  0.87957400  0.98401600  0.17675100  1
  C  31  1  0.01227700  0.99516700  0.27976300  1
  C  32  1  0.93911700  0.96960900  0.30457200  1
  C  33  1  0.94898100  0.97211400  0.34549000  1
  C  34  1  0.03179500  0.00057300  0.36348300  1
  C  35  1  0.10252100  0.02659000  0.33869500  1
  C  36  1  0.09274900  0.02401500  0.29798700  1
  C  37  1  0.99945500  0.13286600  0.00901000  1
  C  38  1  0.12339100  0.15266200  0.00214800  1
  C  39  1  0.12776900  0.19356300  0.00064100  1
  C  40  1  0.00902400  0.21651700  0.00604500  1
  C  41  1  0.88560200  0.19636500  0.01360000  1
  C  42  1  0.88063600  0.15538300  0.01490300  1
  C  43  1  0.01421300  0.25830800  0.00315900  1
  C  44  1  0.09427900  0.27667400  0.97420200  1
  C  45  1  0.10455200  0.31739200  0.97168700  1
  C  46  1  0.03473900  0.34204100  0.99788300  1
  C  47  1  0.95231100  0.32392100  0.02645600  1
  C  48  1  0.94196100  0.28299700  0.02890000  1
  C  49  1  0.00080200  0.98770600  0.86604700  1
  C  50  1  0.88030000  0.99197600  0.84389200  1
  C  51  1  0.88409200  0.99101000  0.80291400  1
  C  52  1  0.00799400  0.98544200  0.78237200  1
  C  53  1  0.12839100  0.98164400  0.80497000  1
  C  54  1  0.12514800  0.98280300  0.84590200  1
  C  55  1  0.01114400  0.98244400  0.74058100  1
  C  56  1  0.09421800  0.95443700  0.72196300  1
  C  57  1  0.09608600  0.95049700  0.68124300  1
  C  58  1  0.01540900  0.97447200  0.65687400  1
  C  59  1  0.93284200  0.00272400  0.67527400  1
  C  60  1  0.93040400  0.00645700  0.71615300  1
  C  61  1  0.00050700  0.84445600  0.01130700  1
  C  62  1  0.88142200  0.82220700  0.00491800  1
  C  63  1  0.12360500  0.82436800  0.01862000  1
  C  64  1  0.12686500  0.78343600  0.02008300  1
  C  65  1  0.00781900  0.76078000  0.01408100  1
  C  66  1  0.88528800  0.78122900  0.00612600  1
  C  67  1  0.01078700  0.71898900  0.01711600  1
  C  68  1  0.93755500  0.69464800  0.99129200  1
  C  69  1  0.94021300  0.65374000  0.99491000  1
  C  70  1  0.01531700  0.63521500  0.02484300  1
  C  71  1  0.08825100  0.65953700  0.05067000  1
  C  72  1  0.08633200  0.70029100  0.04684400  1
  C  115  1  0.05194700  0.00301000  0.40371800  1
  C  116  1  0.05533900  0.38227100  0.99552200  1
  C  117  1  0.01873300  0.96887400  0.61655800  1
  C  118  1  0.01911100  0.59481400  0.03017500  1
  C  123  1  0.97972600  0.98974300  0.46894000  1
  C  124  1  0.10410300  0.99211200  0.48976800  1
  C  125  1  0.10836700  0.99342500  0.53095200  1
  C  126  1  0.98420600  0.99143700  0.55234000  1
  C  127  1  0.86000100  0.98910200  0.53166300  1
  C  129  1  0.85798000  0.98781200  0.49072900  1
  C  132  1  0.24185200  0.99766300  0.55103300  1
  C  138  1  0.98258400  0.44741700  0.00867300  1
  C  139  1  0.10682600  0.46833300  0.00637000  1
  C  140  1  0.11076500  0.50953500  0.00517100  1
  C  141  1  0.98643900  0.53082000  0.00716900  1
  C  142  1  0.86237600  0.51005600  0.00942200  1
  C  144  1  0.86066800  0.46911300  0.01061600  1
  C  147  1  0.24406700  0.52976400  0.00107700  1
  H  73  1  0.14389500  0.64774700  0.07294600  1
  H  74  1  0.13860200  0.71631500  0.06690900  1
  H  75  1  0.88539400  0.63756100  0.97552600  1
  H  76  1  0.88256300  0.70656300  0.96900400  1
  H  77  1  0.79586800  0.76641600  0.00231100  1
  H  78  1  0.79035200  0.83578900  0.99970400  1
  H  79  1  0.21856500  0.77023400  0.02528800  1
  H  80  1  0.21198600  0.83950200  0.02320900  1
  H  81  1  0.99666000  0.85933900  0.08914600  1
  H  82  1  0.99687400  0.91162100  0.14064800  1
  H  83  1  0.99419200  0.96466300  0.03451900  1
  H  84  1  0.99548700  0.01266900  0.98583900  1
  H  85  1  0.00195300  0.85728000  0.93250100  1
  H  86  1  0.00107100  0.90915400  0.87992300  1
  H  87  1  0.78832000  0.99531800  0.85754200  1
  H  88  1  0.79377800  0.99309500  0.78817600  1
  H  89  1  0.21447300  0.97970200  0.86099200  1
  H  90  1  0.22099300  0.97820700  0.79172700  1
  H  91  1  0.99719100  0.06570200  0.87969600  1
  H  92  1  0.99512000  0.11799700  0.93120300  1
  H  93  1  0.99720500  0.06823500  0.14040700  1
  H  94  1  0.99869900  0.12007900  0.08781900  1
  H  95  1  0.21163900  0.13734100  0.99797000  1
  H  96  1  0.22021600  0.20651300  0.99589700  1
  H  97  1  0.78903300  0.14199200  0.01983300  1
  H  98  1  0.79651600  0.21141200  0.01713600  1
  H  99  1  0.88441100  0.27130400  0.05077300  1
  H  100  1  0.90136300  0.34040000  0.04643400  1
  H  101  1  0.16530600  0.32891500  0.95037500  1
  H  102  1  0.14628300  0.26045500  0.95423400  1
  H  103  1  0.78788100  0.97953300  0.16328000  1
  H  104  1  0.79470500  0.98185000  0.23271200  1
  H  105  1  0.14538400  0.04386200  0.28167200  1
  H  106  1  0.16358200  0.04782700  0.35010900  1
  H  107  1  0.89725300  0.95228800  0.36206900  1
  H  108  1  0.88106300  0.94785900  0.29297600  1
  H  109  1  0.21920700  0.00185200  0.22817000  1
  H  110  1  0.21133100  0.00014200  0.15899100  1
  H  111  1  0.15227100  0.93565000  0.73803100  1
  H  112  1  0.15731000  0.92947300  0.66951900  1
  H  113  1  0.86964900  0.02747600  0.72797600  1
  H  114  1  0.87217700  0.02068400  0.65903400  1
  H  119  1  0.13339900  0.01764900  0.41278000  1
  H  120  1  0.05654200  0.58470000  0.05514200  1
  H  121  1  0.05750500  0.94402100  0.60672600  1
  H  122  1  0.13724400  0.39138200  0.98107400  1
  H  128  1  0.19367500  0.99290900  0.47458800  1
  H  130  1  0.76939900  0.98824000  0.54641600  1
  H  131  1  0.76595500  0.98614400  0.47678900  1
  H  133  1  0.32680200  0.00095800  0.53078300  1
  H  134  1  0.26200700  0.97207800  0.56886400  1
  H  135  1  0.24001100  0.02327600  0.56962200  1
  H  143  1  0.19651500  0.45321900  0.00556300  1
  H  145  1  0.77167100  0.52474900  0.01030700  1
  H  146  1  0.76874300  0.45510700  0.01223800  1
  H  148  1  0.32928200  0.50961100  0.99787400  1
  H  149  1  0.26365000  0.54746100  0.02669200  1
  H  150  1  0.24233300  0.54850900  0.97546800  1
  N  4  1  0.99440600  0.94505200  0.05441000  1
  N  8  1  0.99583300  0.94352600  0.96571200  1
  N  14  1  0.99511800  0.03228000  0.96594700  1
  N  20  1  0.99401700  0.03380800  0.05463700  1
  N  136  1  0.97137200  0.98895300  0.42989300  1
  N  137  1  0.97916500  0.99414200  0.59121200  1
  N  151  1  0.97439200  0.40836800  0.00939300  1
  N  152  1  0.98117500  0.56970900  0.00461100  1
