# generated using pymatgen
data_V4H23C45NO20
_symmetry_space_group_name_H-M   'P 1'
_cell_length_a   6.95017000
_cell_length_b   13.66252000
_cell_length_c   20.44992000
_cell_angle_alpha   102.35641000
_cell_angle_beta   90.09213000
_cell_angle_gamma   90.65772000
_symmetry_Int_Tables_number   1
_chemical_formula_structural   V4H23C45NO20
_chemical_formula_sum   'V4 H23 C45 N1 O20'
_cell_volume   1896.73583802
_cell_formula_units_Z   1
loop_
 _symmetry_equiv_pos_site_id
 _symmetry_equiv_pos_as_xyz
  1  'x, y, z'
loop_
 _atom_site_type_symbol
 _atom_site_label
 _atom_site_symmetry_multiplicity
 _atom_site_fract_x
 _atom_site_fract_y
 _atom_site_fract_z
 _atom_site_occupancy
  V  V0  1  0.06468000  0.51180000  0.50222000  1
  V  V1  1  0.56401000  0.48820000  0.49778000  1
  V  V2  1  0.64817000  0.98820000  0.99778000  1
  V  V3  1  0.14881000  0.01193000  0.00218000  1
  H  H4  1  0.84145000  0.16284000  0.51614000  1
  H  H5  1  0.85223000  0.98286000  0.68620000  1
  H  H6  1  0.84654000  0.03220000  0.58134000  1
  H  H7  1  0.85683000  0.39087000  0.69426000  1
  H  H8  1  0.86889000  0.33033000  0.97938000  1
  H  H9  1  0.85839000  0.42655000  0.79705000  1
  H  H10  1  0.86427000  0.46351000  0.91649000  1
  H  H11  1  0.14197000  0.31835000  0.30702000  1
  H  H12  1  0.70352000  0.28692000  0.29950000  1
  H  H13  1  0.15654000  0.20204000  0.19760000  1
  H  H14  1  0.71480000  0.20172000  0.19859000  1
  H  H15  1  0.07614000  0.77208000  0.81776000  1
  H  H16  1  0.49873000  0.81613000  0.79158000  1
  H  H17  1  0.06416000  0.67944000  0.70069000  1
  H  H18  1  0.50508000  0.70096000  0.70105000  1
  H  H19  1  0.38259000  0.83737000  0.48008000  1
  H  H20  1  0.40268000  0.01303000  0.30521000  1
  H  H21  1  0.40052000  0.96569000  0.41292000  1
  H  H22  1  0.33434000  0.60637000  0.30374000  1
  H  H23  1  0.33171000  0.66653000  0.01706000  1
  H  H24  1  0.32340000  0.56863000  0.19995000  1
  H  H25  1  0.31199000  0.53237000  0.07974000  1
  H  H26  1  0.38998000  0.97099000  0.18461000  1
  C  C27  1  0.34918000  0.61457000  0.61392000  1
  C  C28  1  0.34668000  0.63733000  0.43479000  1
  C  C29  1  0.83963000  0.38406000  0.38654000  1
  C  C30  1  0.84271000  0.36214000  0.56436000  1
  C  C31  1  0.84889000  0.11009000  0.60753000  1
  C  C32  1  0.84954000  0.28445000  0.60292000  1
  C  C33  1  0.86540000  0.31034000  0.92514000  1
  C  C34  1  0.86306000  0.38598000  0.88977000  1
  C  C35  1  0.85983000  0.36300000  0.82029000  1
  C  C36  1  0.85849000  0.26232000  0.78365000  1
  C  C37  1  0.85962000  0.18333000  0.81996000  1
  C  C38  1  0.85581000  0.23819000  0.71204000  1
  C  C39  1  0.85331000  0.13628000  0.67778000  1
  C  C40  1  0.85434000  0.06052000  0.71332000  1
  C  C41  1  0.85729000  0.08196000  0.78287000  1
  C  C42  1  0.85488000  0.31173000  0.67274000  1
  C  C43  1  0.84625000  0.18394000  0.57030000  1
  C  C44  1  0.86362000  0.20989000  0.89164000  1
  C  C45  1  0.00504000  0.28922000  0.28505000  1
  C  C46  1  0.84195000  0.31558000  0.31977000  1
  C  C47  1  0.01374000  0.22103000  0.21747000  1
  C  C48  1  0.85884000  0.18338000  0.18031000  1
  C  C49  1  0.20876000  0.76867000  0.78960000  1
  C  C50  1  0.36376000  0.82024000  0.81834000  1
  C  C51  1  0.20505000  0.70627000  0.72016000  1
  C  C52  1  0.36197000  0.67919000  0.68190000  1
  C  C53  1  0.38609000  0.88767000  0.38764000  1
  C  C54  1  0.35720000  0.71402000  0.39472000  1
  C  C55  1  0.33741000  0.68558000  0.07127000  1
  C  C56  1  0.32619000  0.60952000  0.10663000  1
  C  C57  1  0.33302000  0.63180000  0.17636000  1
  C  C58  1  0.35151000  0.73205000  0.21291000  1
  C  C59  1  0.36292000  0.80981000  0.17620000  1
  C  C60  1  0.35907000  0.75772000  0.28450000  1
  C  C61  1  0.37789000  0.86023000  0.31745000  1
  C  C62  1  0.38849000  0.93480000  0.28033000  1
  C  C63  1  0.38113000  0.91021000  0.21091000  1
  C  C64  1  0.34876000  0.68544000  0.32481000  1
  C  C65  1  0.37592000  0.81496000  0.42599000  1
  C  C66  1  0.35573000  0.78545000  0.10523000  1
  C  C67  1  0.36636000  0.86280000  0.06535000  1
  C  C68  1  0.36426000  0.88415000  0.88655000  1
  C  C69  1  0.87015000  0.13616000  0.93395000  1
  C  C70  1  0.87267000  0.11574000  0.11350000  1
  C  C71  1  0.85593000  0.99522000  0.81234000  1
  N  N72  1  0.85441000  0.92456000  0.83486000  1
  O  O73  1  0.50686000  0.59939000  0.44924000  1
  O  O74  1  0.18022000  0.59460000  0.58678000  1
  O  O75  1  0.00450000  0.40061000  0.55076000  1
  O  O76  1  0.17749000  0.61129000  0.45197000  1
  O  O77  1  0.00175000  0.41742000  0.41499000  1
  O  O78  1  0.50961000  0.58258000  0.58501000  1
  O  O79  1  0.33742000  0.43637000  0.48802000  1
  O  O80  1  0.67171000  0.40540000  0.41322000  1
  O  O81  1  0.67444000  0.38871000  0.54803000  1
  O  O82  1  0.84114000  0.56363000  0.51198000  1
  O  O83  1  0.20323000  0.91731000  0.91502000  1
  O  O84  1  0.53550000  0.88869000  0.04804000  1
  O  O85  1  0.71108000  0.08261000  0.08500000  1
  O  O86  1  0.53263000  0.90537000  0.91323000  1
  O  O87  1  0.70819000  0.09941000  0.94923000  1
  O  O88  1  0.20612000  0.90051000  0.05079000  1
  O  O89  1  0.37536000  0.06357000  0.01199000  1
  O  O90  1  0.03824000  0.11139000  0.95194000  1
  O  O91  1  0.04112000  0.09471000  0.08675000  1
  O  O92  1  0.87175000  0.93643000  0.98801000  1
