# generated using pymatgen
data_ZnH16C22(NO2)2
_symmetry_space_group_name_H-M   'P 1'
_cell_length_a   4.58003261
_cell_length_b   19.08502809
_cell_length_c   19.08511838
_cell_angle_alpha   89.17499211
_cell_angle_beta   83.10837738
_cell_angle_gamma   83.10855564
_symmetry_Int_Tables_number   1
_chemical_formula_structural   ZnH16C22(NO2)2
_chemical_formula_sum   'Zn4 H64 C88 N8 O16'
_cell_volume   1644.21259038
_cell_formula_units_Z   4
loop_
 _symmetry_equiv_pos_site_id
 _symmetry_equiv_pos_as_xyz
  1  'x, y, z'
loop_
 _atom_site_type_symbol
 _atom_site_label
 _atom_site_symmetry_multiplicity
 _atom_site_fract_x
 _atom_site_fract_y
 _atom_site_fract_z
 _atom_site_occupancy
  C  C1  1  0.09628220  0.63735482  0.85218547  1.0
  C  C2  1  0.40346989  0.66678596  0.92226904  1.0
  C  C3  1  0.58980000  0.67000873  0.97445716  1.0
  C  C4  1  0.75365285  0.72720011  0.97676426  1.0
  C  C5  1  0.96309475  0.72955879  0.02495092  1.0
  C  C6  1  0.13418745  0.78435131  0.02406871  1.0
  C  C7  1  0.09833186  0.83968865  0.97445696  1.0
  C  C8  1  0.88462849  0.84095344  0.92883396  1.0
  C  C9  1  0.71156961  0.78508700  0.92668054  1.0
  C  C10  1  0.51386141  0.78199094  0.87534624  1.0
  C  C11  1  0.37813898  0.72117418  0.86972929  1.0
  C  C12  1  0.13999331  0.72296271  0.75360448  1.0
  C  C13  1  0.91756355  0.78391970  0.62801389  1.0
  C  C14  1  0.08262889  0.66895872  0.70247753  1.0
  C  C15  1  0.98261399  0.70177421  0.63111255  1.0
  C  C16  1  0.90430548  0.82685932  0.68523899  1.0
  C  C17  1  0.02979644  0.80057830  0.74979747  1.0
  C  C18  1  0.90858540  0.82129487  0.55647185  1.0
  C  C19  1  0.83055645  0.62521837  0.70470671  1.0
  C  C20  1  0.75175531  0.64997253  0.64185438  1.0
  C  C21  1  0.41209565  0.78944912  0.64095658  1.0
  C  C22  1  0.35129475  0.77189193  0.72229777  1.0
  C  C45  1  0.58582421  0.36264449  0.14781445  1.0
  C  C46  1  0.99252659  0.33321267  0.07773095  1.0
  C  C47  1  0.23426399  0.32998978  0.02554274  1.0
  C  C48  1  0.45761801  0.27279886  0.02323600  1.0
  C  C49  1  0.71760306  0.27043997  0.97504959  1.0
  C  C50  1  0.94261008  0.21564813  0.97593210  1.0
  C  C51  1  0.91247947  0.16031148  0.02554511  1.0
  C  C52  1  0.65441930  0.15904750  0.07116848  1.0
  C  C53  1  0.42333612  0.21491291  0.07332126  1.0
  C  C54  1  0.17119886  0.21800929  0.12465557  1.0
  C  C55  1  0.96904185  0.27882600  0.13027227  1.0
  C  C56  1  0.61655939  0.27703811  0.24639637  1.0
  C  C57  1  0.32948813  0.21608169  0.37198664  1.0
  C  C58  1  0.45406181  0.33104263  0.29752230  1.0
  C  C59  1  0.31549866  0.29822817  0.36888813  1.0
  C  C60  1  0.41640111  0.17314211  0.31476151  1.0
  C  C61  1  0.58017306  0.19942255  0.25020435  1.0
  C  C62  1  0.28634699  0.17871263  0.44353725  1.0
  C  C63  1  0.16047851  0.37478310  0.29529286  1.0
  C  C64  1  0.04357791  0.35002881  0.35814655  1.0
  C  C65  1  0.84249579  0.21055293  0.35904609  1.0
  C  C66  1  0.84548388  0.22810934  0.27770356  1.0
  C  C89  1  0.26635873  0.14781469  0.63735418  1.0
  C  C90  1  0.92973694  0.07773242  0.66678624  1.0
  C  C91  1  0.74018685  0.02554481  0.67000874  1.0
  C  C92  1  0.51914169  0.02323732  0.72720056  1.0
  C  C93  1  0.30734320  0.97505070  0.72955901  1.0
  C  C94  1  0.08145654  0.97593226  0.78435145  1.0
  C  C95  1  0.06197549  0.02554435  0.83968827  1.0
  C  C96  1  0.27441092  0.07116784  0.84095323  1.0
  C  C97  1  0.50334283  0.07332177  0.78508668  1.0
  C  C98  1  0.70414738  0.12465556  0.78199116  1.0
  C  C99  1  0.90068662  0.13027233  0.72117399  1.0
  C  C100  1  0.13705046  0.24639594  0.72296266  1.0
  C  C101  1  0.29852509  0.37198763  0.78391739  1.0
  C  C102  1  0.24842013  0.29752181  0.66895770  1.0
  C  C103  1  0.31561770  0.36888819  0.70177195  1.0
  C  C104  1  0.26884567  0.31476238  0.82685588  1.0
  C  C105  1  0.16962853  0.25020394  0.80057846  1.0
  C  C106  1  0.27009798  0.44354257  0.82128311  1.0
  C  C107  1  0.54423537  0.29529147  0.62521924  1.0
  C  C108  1  0.59828111  0.35814464  0.64997141  1.0
  C  C109  1  0.79846229  0.35904569  0.78944556  1.0
  C  C110  1  0.87681735  0.27770278  0.77189131  1.0
  C  C133  1  0.05152767  0.85218523  0.36264429  1.0
  C  C134  1  0.67425848  0.92226716  0.33321295  1.0
  C  C135  1  0.43574189  0.97445558  0.32999031  1.0
  C  C136  1  0.26958310  0.97676265  0.27279864  1.0
  C  C137  1  0.01195709  0.02494937  0.27044014  1.0
  C  C138  1  0.84174499  0.02406753  0.21564783  1.0
  C  C139  1  0.92721385  0.97445541  0.16031099  1.0
  C  C140  1  0.18653954  0.92883183  0.15904606  1.0
  C  C141  1  0.36175523  0.92667841  0.21491243  1.0
  C  C142  1  0.61079681  0.87534425  0.21800801  1.0
  C  C143  1  0.75213503  0.86972725  0.27882461  1.0
  C  C144  1  0.10640710  0.75360309  0.27703662  1.0
  C  C145  1  0.45442942  0.62801150  0.21608256  1.0
  C  C146  1  0.21489564  0.70247851  0.33104150  1.0
  C  C147  1  0.38627311  0.63111119  0.29822846  1.0
  C  C148  1  0.41046410  0.68523616  0.17314359  1.0
  C  C149  1  0.22041255  0.74979523  0.19942091  1.0
  C  C150  1  0.53492259  0.55645524  0.17871788  1.0
  C  C151  1  0.46474016  0.70470868  0.37478096  1.0
  C  C152  1  0.60639365  0.64185436  0.35002878  1.0
  C  C153  1  0.94695341  0.64095322  0.21055430  1.0
  C  C154  1  0.92641252  0.72229639  0.22810800  1.0
  H  H1  1  0.10567055  0.51981959  0.08267202  1.0
  H  H2  1  0.96012301  0.60567053  0.82651908  1.0
  H  H3  1  0.60986400  0.62787984  0.01327408  1.0
  H  H4  1  0.99308371  0.68562453  0.06136320  1.0
  H  H5  1  0.30808245  0.78362221  0.05817190  1.0
  H  H6  1  0.24143617  0.88150355  0.97221283  1.0
  H  H7  1  0.85750065  0.88511473  0.89239449  1.0
  H  H8  1  0.48067501  0.82680184  0.84034117  1.0
  H  H9  1  0.30327764  0.63562362  0.69223967  1.0
  H  H10  1  0.14454730  0.68632718  0.58552092  1.0
  H  H11  1  0.85502522  0.88343047  0.67835355  1.0
  H  H12  1  0.98191823  0.83003361  0.79855142  1.0
  H  H13  1  0.77388972  0.58010956  0.73689215  1.0
  H  H14  1  0.62054261  0.63190539  0.60357036  1.0
  H  H15  1  0.39849373  0.84742317  0.63401210  1.0
  H  H16  1  0.53558178  0.77902250  0.75239946  1.0
  H  H33  1  0.70816273  0.48017938  0.91732861  1.0
  H  H34  1  0.39231031  0.39432853  0.17348108  1.0
  H  H35  1  0.25101491  0.37211846  0.98672485  1.0
  H  H36  1  0.74006966  0.31437384  0.93863621  1.0
  H  H37  1  0.14987609  0.21637716  0.94182813  1.0
  H  H38  1  0.09515808  0.11849675  0.02778896  1.0
  H  H39  1  0.63501476  0.11488616  0.10760857  1.0
  H  H40  1  0.14782012  0.17319935  0.15966117  1.0
  H  H41  1  0.63113776  0.36437825  0.30776051  1.0
  H  H42  1  0.41638937  0.31367433  0.41447939  1.0
  H  H43  1  0.41680355  0.11657117  0.32164875  1.0
  H  H44  1  0.61050646  0.16996756  0.20145073  1.0
  H  H45  1  0.09088869  0.41989119  0.26310745  1.0
  H  H46  1  0.85601551  0.36809631  0.39643006  1.0
  H  H47  1  0.87992453  0.15257739  0.36598853  1.0
  H  H48  1  0.06700505  0.22097947  0.24760172  1.0
  H  H65  1  0.37447939  0.91732867  0.51982242  1.0
  H  H66  1  0.43420593  0.17348161  0.60567107  1.0
  H  H67  1  0.76224792  0.98672721  0.62788053  1.0
  H  H68  1  0.32128742  0.93863752  0.68562470  1.0
  H  H69  1  0.90829176  0.94182833  0.78362261  1.0
  H  H70  1  0.87705577  0.02778812  0.88150332  1.0
  H  H71  1  0.25738067  0.10760758  0.88511451  1.0
  H  H72  1  0.69252364  0.15966076  0.82680250  1.0
  H  H73  1  0.06110627  0.30775894  0.63562209  1.0
  H  H74  1  0.16913776  0.41447833  0.68632402  1.0
  H  H75  1  0.26155397  0.32164986  0.88342780  1.0
  H  H76  1  0.18805562  0.20145031  0.83003251  1.0
  H  H77  1  0.64600921  0.26310591  0.58011091  1.0
  H  H78  1  0.74756114  0.39642870  0.63190307  1.0
  H  H79  1  0.75408820  0.36599012  0.84742176  1.0
  H  H80  1  0.68540359  0.24760088  0.77902235  1.0
  H  H97  1  0.81163519  0.08267120  0.48017477  1.0
  H  H98  1  0.21335570  0.82651840  0.39432810  1.0
  H  H99  1  0.37686019  0.01327265  0.37211818  1.0
  H  H100  1  0.94555379  0.06136255  0.31437433  1.0
  H  H101  1  0.63374816  0.05817172  0.21637666  1.0
  H  H102  1  0.78635462  0.97221189  0.11849569  1.0
  H  H103  1  0.25010888  0.89239230  0.11488465  1.0
  H  H104  1  0.67899098  0.84033948  0.17319683  1.0
  H  H105  1  0.00448107  0.69224012  0.36437692  1.0
  H  H106  1  0.26993695  0.58552092  0.31367620  1.0
  H  H107  1  0.46663464  0.67834810  0.11657120  1.0
  H  H108  1  0.21954185  0.79854832  0.16996618  1.0
  H  H109  1  0.48921672  0.73689460  0.41988925  1.0
  H  H110  1  0.77588533  0.60357103  0.36809818  1.0
  H  H111  1  0.96750270  0.63400809  0.15257759  1.0
  H  H112  1  0.71202724  0.75239833  0.22097580  1.0
  N  N1  1  0.22199817  0.61689909  0.90987189  1.0
  N  N2  1  0.18778990  0.69854408  0.82472602  1.0
  N  N5  1  0.74876717  0.38309974  0.09012807  1.0
  N  N6  1  0.71105987  0.30145602  0.17527476  1.0
  N  N9  1  0.16109641  0.09012910  0.61689865  1.0
  N  N10  1  0.11366919  0.17527419  0.69854476  1.0
  N  N13  1  0.86812557  0.90987148  0.38309996  1.0
  N  N14  1  0.98748900  0.82472511  0.30145331  1.0
  O  O1  1  0.21192494  0.48643112  0.04716385  1.0
  O  O2  1  0.76817497  0.88557619  0.56042348  1.0
  O  O3  1  0.47124649  0.75025006  0.58810796  1.0
  O  O4  1  0.04202335  0.79234221  0.50269765  1.0
  O  O9  1  0.74552135  0.51356764  0.95283691  1.0
  O  O10  1  0.21417592  0.11442348  0.43957336  1.0
  O  O11  1  0.80959355  0.24975054  0.41189195  1.0
  O  O12  1  0.33701270  0.20765647  0.49729458  1.0
  O  O17  1  0.30162596  0.95283584  0.48643134  1.0
  O  O18  1  0.34624683  0.43957627  0.88557404  1.0
  O  O19  1  0.77850768  0.41189053  0.75024955  1.0
  O  O20  1  0.16567457  0.49729125  0.79234342  1.0
  O  O25  1  0.74089258  0.04716482  0.51356519  1.0
  O  O26  1  0.67139753  0.56042175  0.11442641  1.0
  O  O27  1  0.94064937  0.58810873  0.24975113  1.0
  O  O28  1  0.45531040  0.50270801  0.20765757  1.0
  Zn  Zn1  1  0.19210079  0.51969811  0.94948144  1.0
  Zn  Zn3  1  0.66127864  0.48030162  0.05051853  1.0
  Zn  Zn5  1  0.28819100  0.05051860  0.51969621  1.0
  Zn  Zn7  1  0.85840438  0.94948143  0.48030121  1.0
