# generated using pymatgen
data_MnH4C8O5
_symmetry_space_group_name_H-M   'P 1'
_cell_length_a   18.16510000
_cell_length_b   18.25070000
_cell_length_c   18.85180000
_cell_angle_alpha   90.00000000
_cell_angle_beta   90.00000000
_cell_angle_gamma   90.00000000
_symmetry_Int_Tables_number   1
_chemical_formula_structural   MnH4C8O5
_chemical_formula_sum   'Mn16 H64 C128 O80'
_cell_volume   6249.85789867
_cell_formula_units_Z   16
loop_
 _symmetry_equiv_pos_site_id
 _symmetry_equiv_pos_as_xyz
  1  'x, y, z'
loop_
 _atom_site_type_symbol
 _atom_site_label
 _atom_site_symmetry_multiplicity
 _atom_site_fract_x
 _atom_site_fract_y
 _atom_site_fract_z
 _atom_site_occupancy
  Mn  Mn1  1  0.30666000  0.77629000  0.91062000  1.0
  Mn  Mn2  1  0.50860000  0.77947000  0.90583000  1.0
  Mn  Mn3  1  0.69334000  0.72371000  0.41062000  1.0
  Mn  Mn4  1  0.49140000  0.72053000  0.40583000  1.0
  Mn  Mn5  1  0.80666000  0.22371000  0.58938000  1.0
  Mn  Mn6  1  0.00860000  0.22053000  0.59417000  1.0
  Mn  Mn7  1  0.19334000  0.27629000  0.08938000  1.0
  Mn  Mn8  1  0.99140000  0.27947000  0.09417000  1.0
  Mn  Mn9  1  0.69334000  0.22371000  0.08938000  1.0
  Mn  Mn10  1  0.49140000  0.22053000  0.09417000  1.0
  Mn  Mn11  1  0.30666000  0.27629000  0.58938000  1.0
  Mn  Mn12  1  0.50860000  0.27947000  0.59417000  1.0
  Mn  Mn13  1  0.19334000  0.77629000  0.41062000  1.0
  Mn  Mn14  1  0.99140000  0.77947000  0.40583000  1.0
  Mn  Mn15  1  0.80666000  0.72371000  0.91062000  1.0
  Mn  Mn16  1  0.00860000  0.72053000  0.90583000  1.0
  H  H1  1  0.75240000  0.68440000  0.74340000  1.0
  H  H2  1  0.28630000  0.62420000  0.81990000  1.0
  H  H3  1  0.54350000  0.80690000  0.75640000  1.0
  H  H4  1  0.50310000  0.80700000  0.63980000  1.0
  H  H5  1  0.68280000  0.69420000  0.58270000  1.0
  H  H6  1  0.52050000  0.57600000  0.78380000  1.0
  H  H7  1  0.51650000  0.46830000  0.72040000  1.0
  H  H8  1  0.29650000  0.46830000  0.73190000  1.0
  H  H9  1  0.24760000  0.81560000  0.24340000  1.0
  H  H10  1  0.71370000  0.87580000  0.31990000  1.0
  H  H11  1  0.45650000  0.69310000  0.25640000  1.0
  H  H12  1  0.49690000  0.69300000  0.13980000  1.0
  H  H13  1  0.31720000  0.80580000  0.08270000  1.0
  H  H14  1  0.47950000  0.92400000  0.28380000  1.0
  H  H15  1  0.48350000  0.03170000  0.22040000  1.0
  H  H16  1  0.70350000  0.03170000  0.23190000  1.0
  H  H17  1  0.25240000  0.31560000  0.75660000  1.0
  H  H18  1  0.78630000  0.37580000  0.68010000  1.0
  H  H19  1  0.04350000  0.19310000  0.74360000  1.0
  H  H20  1  0.00310000  0.19300000  0.86020000  1.0
  H  H21  1  0.18280000  0.30580000  0.91730000  1.0
  H  H22  1  0.02050000  0.42400000  0.71620000  1.0
  H  H23  1  0.01650000  0.53170000  0.77960000  1.0
  H  H24  1  0.79650000  0.53170000  0.76810000  1.0
  H  H25  1  0.74760000  0.18440000  0.25660000  1.0
  H  H26  1  0.21370000  0.12420000  0.18010000  1.0
  H  H27  1  0.95650000  0.30690000  0.24360000  1.0
  H  H28  1  0.99690000  0.30700000  0.36020000  1.0
  H  H29  1  0.81720000  0.19420000  0.41730000  1.0
  H  H30  1  0.97950000  0.07600000  0.21620000  1.0
  H  H31  1  0.98350000  0.96830000  0.27960000  1.0
  H  H32  1  0.20350000  0.96830000  0.26810000  1.0
  H  H33  1  0.24760000  0.31560000  0.25660000  1.0
  H  H34  1  0.71370000  0.37580000  0.18010000  1.0
  H  H35  1  0.45650000  0.19310000  0.24360000  1.0
  H  H36  1  0.49690000  0.19300000  0.36020000  1.0
  H  H37  1  0.31720000  0.30580000  0.41730000  1.0
  H  H38  1  0.47950000  0.42400000  0.21620000  1.0
  H  H39  1  0.48350000  0.53170000  0.27960000  1.0
  H  H40  1  0.70350000  0.53170000  0.26810000  1.0
  H  H41  1  0.75240000  0.18440000  0.75660000  1.0
  H  H42  1  0.28630000  0.12420000  0.68010000  1.0
  H  H43  1  0.54350000  0.30690000  0.74360000  1.0
  H  H44  1  0.50310000  0.30700000  0.86020000  1.0
  H  H45  1  0.68280000  0.19420000  0.91730000  1.0
  H  H46  1  0.52050000  0.07600000  0.71620000  1.0
  H  H47  1  0.51650000  0.96830000  0.77960000  1.0
  H  H48  1  0.29650000  0.96830000  0.76810000  1.0
  H  H49  1  0.74760000  0.68440000  0.24340000  1.0
  H  H50  1  0.21370000  0.62420000  0.31990000  1.0
  H  H51  1  0.95650000  0.80690000  0.25640000  1.0
  H  H52  1  0.99690000  0.80700000  0.13980000  1.0
  H  H53  1  0.81720000  0.69420000  0.08270000  1.0
  H  H54  1  0.97950000  0.57600000  0.28380000  1.0
  H  H55  1  0.98350000  0.46830000  0.22040000  1.0
  H  H56  1  0.20350000  0.46830000  0.23190000  1.0
  H  H57  1  0.25240000  0.81560000  0.74340000  1.0
  H  H58  1  0.78630000  0.87580000  0.81990000  1.0
  H  H59  1  0.04350000  0.69310000  0.75640000  1.0
  H  H60  1  0.00310000  0.69300000  0.63980000  1.0
  H  H61  1  0.18280000  0.80580000  0.58270000  1.0
  H  H62  1  0.02050000  0.92400000  0.78380000  1.0
  H  H63  1  0.01650000  0.03170000  0.72040000  1.0
  H  H64  1  0.79650000  0.03170000  0.73190000  1.0
  C  C1  1  0.65846000  0.74618000  0.81726000  1.0
  C  C2  1  0.63574000  0.74864000  0.74097000  1.0
  C  C3  1  0.57127000  0.78330000  0.72184000  1.0
  C  C4  1  0.54695000  0.78370000  0.65172000  1.0
  C  C5  1  0.58826000  0.74930000  0.60006000  1.0
  C  C6  1  0.65446000  0.71634000  0.61779000  1.0
  C  C7  1  0.67883000  0.71618000  0.68781000  1.0
  C  C8  1  0.55991000  0.74458000  0.52598000  1.0
  C  C9  1  0.41439000  0.65882000  0.83734000  1.0
  C  C10  1  0.41072000  0.58780000  0.79635000  1.0
  C  C11  1  0.47530000  0.55460000  0.77340000  1.0
  C  C12  1  0.47294000  0.49010000  0.73540000  1.0
  C  C13  1  0.40561000  0.45762000  0.71922000  1.0
  C  C14  1  0.34160000  0.48998000  0.74214000  1.0
  C  C15  1  0.34369000  0.55490000  0.78052000  1.0
  C  C16  1  0.40398000  0.38855000  0.67518000  1.0
  C  C17  1  0.34154000  0.75382000  0.31726000  1.0
  C  C18  1  0.36426000  0.75136000  0.24097000  1.0
  C  C19  1  0.42873000  0.71670000  0.22184000  1.0
  C  C20  1  0.45305000  0.71630000  0.15172000  1.0
  C  C21  1  0.41174000  0.75070000  0.10006000  1.0
  C  C22  1  0.34554000  0.78366000  0.11779000  1.0
  C  C23  1  0.32117000  0.78382000  0.18781000  1.0
  C  C24  1  0.44009000  0.75542000  0.02598000  1.0
  C  C25  1  0.58561000  0.84118000  0.33734000  1.0
  C  C26  1  0.58928000  0.91220000  0.29635000  1.0
  C  C27  1  0.52470000  0.94540000  0.27340000  1.0
  C  C28  1  0.52706000  0.00990000  0.23540000  1.0
  C  C29  1  0.59439000  0.04238000  0.21922000  1.0
  C  C30  1  0.65840000  0.01002000  0.24214000  1.0
  C  C31  1  0.65631000  0.94510000  0.28052000  1.0
  C  C32  1  0.59602000  0.11145000  0.17518000  1.0
  C  C33  1  0.15846000  0.25382000  0.68274000  1.0
  C  C34  1  0.13574000  0.25136000  0.75903000  1.0
  C  C35  1  0.07127000  0.21670000  0.77816000  1.0
  C  C36  1  0.04695000  0.21630000  0.84828000  1.0
  C  C37  1  0.08826000  0.25070000  0.89994000  1.0
  C  C38  1  0.15446000  0.28366000  0.88221000  1.0
  C  C39  1  0.17883000  0.28382000  0.81219000  1.0
  C  C40  1  0.05991000  0.25542000  0.97402000  1.0
  C  C41  1  0.91439000  0.34118000  0.66266000  1.0
  C  C42  1  0.91072000  0.41220000  0.70365000  1.0
  C  C43  1  0.97530000  0.44540000  0.72660000  1.0
  C  C44  1  0.97294000  0.50990000  0.76460000  1.0
  C  C45  1  0.90561000  0.54238000  0.78078000  1.0
  C  C46  1  0.84160000  0.51002000  0.75786000  1.0
  C  C47  1  0.84369000  0.44510000  0.71948000  1.0
  C  C48  1  0.90398000  0.61145000  0.82482000  1.0
  C  C49  1  0.84154000  0.24618000  0.18274000  1.0
  C  C50  1  0.86426000  0.24864000  0.25903000  1.0
  C  C51  1  0.92873000  0.28330000  0.27816000  1.0
  C  C52  1  0.95305000  0.28370000  0.34828000  1.0
  C  C53  1  0.91174000  0.24930000  0.39994000  1.0
  C  C54  1  0.84554000  0.21634000  0.38221000  1.0
  C  C55  1  0.82117000  0.21618000  0.31219000  1.0
  C  C56  1  0.94009000  0.24458000  0.47402000  1.0
  C  C57  1  0.08561000  0.15882000  0.16266000  1.0
  C  C58  1  0.08928000  0.08780000  0.20365000  1.0
  C  C59  1  0.02470000  0.05460000  0.22660000  1.0
  C  C60  1  0.02706000  0.99010000  0.26460000  1.0
  C  C61  1  0.09439000  0.95762000  0.28078000  1.0
  C  C62  1  0.15840000  0.98998000  0.25786000  1.0
  C  C63  1  0.15631000  0.05490000  0.21948000  1.0
  C  C64  1  0.09602000  0.88855000  0.32482000  1.0
  C  C65  1  0.34154000  0.25382000  0.18274000  1.0
  C  C66  1  0.36426000  0.25136000  0.25903000  1.0
  C  C67  1  0.42873000  0.21670000  0.27816000  1.0
  C  C68  1  0.45305000  0.21630000  0.34828000  1.0
  C  C69  1  0.41174000  0.25070000  0.39994000  1.0
  C  C70  1  0.34554000  0.28366000  0.38221000  1.0
  C  C71  1  0.32117000  0.28382000  0.31219000  1.0
  C  C72  1  0.44009000  0.25542000  0.47402000  1.0
  C  C73  1  0.58561000  0.34118000  0.16266000  1.0
  C  C74  1  0.58928000  0.41220000  0.20365000  1.0
  C  C75  1  0.52470000  0.44540000  0.22660000  1.0
  C  C76  1  0.52706000  0.50990000  0.26460000  1.0
  C  C77  1  0.59439000  0.54238000  0.28078000  1.0
  C  C78  1  0.65840000  0.51002000  0.25786000  1.0
  C  C79  1  0.65631000  0.44510000  0.21948000  1.0
  C  C80  1  0.59602000  0.61145000  0.32482000  1.0
  C  C81  1  0.65846000  0.24618000  0.68274000  1.0
  C  C82  1  0.63574000  0.24864000  0.75903000  1.0
  C  C83  1  0.57127000  0.28330000  0.77816000  1.0
  C  C84  1  0.54695000  0.28370000  0.84828000  1.0
  C  C85  1  0.58826000  0.24930000  0.89994000  1.0
  C  C86  1  0.65446000  0.21634000  0.88221000  1.0
  C  C87  1  0.67883000  0.21618000  0.81219000  1.0
  C  C88  1  0.55991000  0.24458000  0.97402000  1.0
  C  C89  1  0.41439000  0.15882000  0.66266000  1.0
  C  C90  1  0.41072000  0.08780000  0.70365000  1.0
  C  C91  1  0.47530000  0.05460000  0.72660000  1.0
  C  C92  1  0.47294000  0.99010000  0.76460000  1.0
  C  C93  1  0.40561000  0.95762000  0.78078000  1.0
  C  C94  1  0.34160000  0.98998000  0.75786000  1.0
  C  C95  1  0.34369000  0.05490000  0.71948000  1.0
  C  C96  1  0.40398000  0.88855000  0.82482000  1.0
  C  C97  1  0.84154000  0.74618000  0.31726000  1.0
  C  C98  1  0.86426000  0.74864000  0.24097000  1.0
  C  C99  1  0.92873000  0.78330000  0.22184000  1.0
  C  C100  1  0.95305000  0.78370000  0.15172000  1.0
  C  C101  1  0.91174000  0.74930000  0.10006000  1.0
  C  C102  1  0.84554000  0.71634000  0.11779000  1.0
  C  C103  1  0.82117000  0.71618000  0.18781000  1.0
  C  C104  1  0.94009000  0.74458000  0.02598000  1.0
  C  C105  1  0.08561000  0.65882000  0.33734000  1.0
  C  C106  1  0.08928000  0.58780000  0.29635000  1.0
  C  C107  1  0.02470000  0.55460000  0.27340000  1.0
  C  C108  1  0.02706000  0.49010000  0.23540000  1.0
  C  C109  1  0.09439000  0.45762000  0.21922000  1.0
  C  C110  1  0.15840000  0.48998000  0.24214000  1.0
  C  C111  1  0.15631000  0.55490000  0.28052000  1.0
  C  C112  1  0.09602000  0.38855000  0.17518000  1.0
  C  C113  1  0.15846000  0.75382000  0.81726000  1.0
  C  C114  1  0.13574000  0.75136000  0.74097000  1.0
  C  C115  1  0.07127000  0.71670000  0.72184000  1.0
  C  C116  1  0.04695000  0.71630000  0.65172000  1.0
  C  C117  1  0.08826000  0.75070000  0.60006000  1.0
  C  C118  1  0.15446000  0.78366000  0.61779000  1.0
  C  C119  1  0.17883000  0.78382000  0.68781000  1.0
  C  C120  1  0.05991000  0.75542000  0.52598000  1.0
  C  C121  1  0.91439000  0.84118000  0.83734000  1.0
  C  C122  1  0.91072000  0.91220000  0.79635000  1.0
  C  C123  1  0.97530000  0.94540000  0.77340000  1.0
  C  C124  1  0.97294000  0.00990000  0.73540000  1.0
  C  C125  1  0.90561000  0.04238000  0.71922000  1.0
  C  C126  1  0.84160000  0.01002000  0.74214000  1.0
  C  C127  1  0.84369000  0.94510000  0.78052000  1.0
  C  C128  1  0.90398000  0.11145000  0.67518000  1.0
  O  O1  1  0.61601000  0.76551000  0.86509000  1.0
  O  O2  1  0.47623000  0.68227000  0.85421000  1.0
  O  O3  1  0.49722000  0.77042000  0.51212000  1.0
  O  O4  1  0.46458000  0.35853000  0.66259000  1.0
  O  O5  1  0.59640000  0.71185000  0.47891000  1.0
  O  O6  1  0.34296000  0.36717000  0.65352000  1.0
  O  O7  1  0.72264000  0.72356000  0.82898000  1.0
  O  O8  1  0.35416000  0.68879000  0.85187000  1.0
  O  O9  1  0.74411000  0.68380000  0.70065000  1.0
  O  O10  1  0.27870000  0.58530000  0.79960000  1.0
  O  O11  1  0.38399000  0.73449000  0.36509000  1.0
  O  O12  1  0.52377000  0.81773000  0.35421000  1.0
  O  O13  1  0.50278000  0.72958000  0.01212000  1.0
  O  O14  1  0.53542000  0.14147000  0.16259000  1.0
  O  O15  1  0.40360000  0.78815000  0.97891000  1.0
  O  O16  1  0.65704000  0.13283000  0.15352000  1.0
  O  O17  1  0.27736000  0.77644000  0.32898000  1.0
  O  O18  1  0.64584000  0.81121000  0.35187000  1.0
  O  O19  1  0.25589000  0.81620000  0.20065000  1.0
  O  O20  1  0.72130000  0.91470000  0.29960000  1.0
  O  O21  1  0.11601000  0.23449000  0.63491000  1.0
  O  O22  1  0.97623000  0.31773000  0.64579000  1.0
  O  O23  1  0.99722000  0.22958000  0.98788000  1.0
  O  O24  1  0.96458000  0.64147000  0.83741000  1.0
  O  O25  1  0.09640000  0.28815000  0.02109000  1.0
  O  O26  1  0.84296000  0.63283000  0.84648000  1.0
  O  O27  1  0.22264000  0.27644000  0.67102000  1.0
  O  O28  1  0.85416000  0.31121000  0.64813000  1.0
  O  O29  1  0.24411000  0.31620000  0.79935000  1.0
  O  O30  1  0.77870000  0.41470000  0.70040000  1.0
  O  O31  1  0.88399000  0.26551000  0.13491000  1.0
  O  O32  1  0.02377000  0.18227000  0.14579000  1.0
  O  O33  1  0.00278000  0.27042000  0.48788000  1.0
  O  O34  1  0.03542000  0.85853000  0.33741000  1.0
  O  O35  1  0.90360000  0.21185000  0.52109000  1.0
  O  O36  1  0.15704000  0.86717000  0.34648000  1.0
  O  O37  1  0.77736000  0.22356000  0.17102000  1.0
  O  O38  1  0.14584000  0.18879000  0.14813000  1.0
  O  O39  1  0.75589000  0.18380000  0.29935000  1.0
  O  O40  1  0.22130000  0.08530000  0.20040000  1.0
  O  O41  1  0.38399000  0.23449000  0.13491000  1.0
  O  O42  1  0.52377000  0.31773000  0.14579000  1.0
  O  O43  1  0.50278000  0.22958000  0.48788000  1.0
  O  O44  1  0.53542000  0.64147000  0.33741000  1.0
  O  O45  1  0.40360000  0.28815000  0.52109000  1.0
  O  O46  1  0.65704000  0.63283000  0.34648000  1.0
  O  O47  1  0.27736000  0.27644000  0.17102000  1.0
  O  O48  1  0.64584000  0.31121000  0.14813000  1.0
  O  O49  1  0.25589000  0.31620000  0.29935000  1.0
  O  O50  1  0.72130000  0.41470000  0.20040000  1.0
  O  O51  1  0.61601000  0.26551000  0.63491000  1.0
  O  O52  1  0.47623000  0.18227000  0.64579000  1.0
  O  O53  1  0.49722000  0.27042000  0.98788000  1.0
  O  O54  1  0.46458000  0.85853000  0.83741000  1.0
  O  O55  1  0.59640000  0.21185000  0.02109000  1.0
  O  O56  1  0.34296000  0.86717000  0.84648000  1.0
  O  O57  1  0.72264000  0.22356000  0.67102000  1.0
  O  O58  1  0.35416000  0.18879000  0.64813000  1.0
  O  O59  1  0.74411000  0.18380000  0.79935000  1.0
  O  O60  1  0.27870000  0.08530000  0.70040000  1.0
  O  O61  1  0.88399000  0.76551000  0.36509000  1.0
  O  O62  1  0.02377000  0.68227000  0.35421000  1.0
  O  O63  1  0.00278000  0.77042000  0.01212000  1.0
  O  O64  1  0.03542000  0.35853000  0.16259000  1.0
  O  O65  1  0.90360000  0.71185000  0.97891000  1.0
  O  O66  1  0.15704000  0.36717000  0.15352000  1.0
  O  O67  1  0.77736000  0.72356000  0.32898000  1.0
  O  O68  1  0.14584000  0.68879000  0.35187000  1.0
  O  O69  1  0.75589000  0.68380000  0.20065000  1.0
  O  O70  1  0.22130000  0.58530000  0.29960000  1.0
  O  O71  1  0.11601000  0.73449000  0.86509000  1.0
  O  O72  1  0.97623000  0.81773000  0.85421000  1.0
  O  O73  1  0.99722000  0.72958000  0.51212000  1.0
  O  O74  1  0.96458000  0.14147000  0.66259000  1.0
  O  O75  1  0.09640000  0.78815000  0.47891000  1.0
  O  O76  1  0.84296000  0.13283000  0.65352000  1.0
  O  O77  1  0.22264000  0.77644000  0.82898000  1.0
  O  O78  1  0.85416000  0.81121000  0.85187000  1.0
  O  O79  1  0.24411000  0.81620000  0.70065000  1.0
  O  O80  1  0.77870000  0.91470000  0.79960000  1.0
