# generated using pymatgen
data_H28C39
_symmetry_space_group_name_H-M   'P 1'
_cell_length_a   23.80002500
_cell_length_b   23.80005000
_cell_length_c   38.86560000
_cell_angle_alpha   90.00000000
_cell_angle_beta   90.00000000
_cell_angle_gamma   120.00010424
_symmetry_Int_Tables_number   1
_chemical_formula_structural   H28C39
_chemical_formula_sum   'H112 C156'
_cell_volume   19065.61570064
_cell_formula_units_Z   4
loop_
 _symmetry_equiv_pos_site_id
 _symmetry_equiv_pos_as_xyz
  1  'x, y, z'
loop_
 _atom_site_type_symbol
 _atom_site_label
 _atom_site_symmetry_multiplicity
 _atom_site_fract_x
 _atom_site_fract_y
 _atom_site_fract_z
 _atom_site_occupancy
  C  1  1  0.98193950  0.49533250  0.94989200  1
  C  2  1  0.92873100  0.47391500  0.97300500  1
  C  3  1  0.94118850  0.48642850  0.00852300  1
  C  5  1  0.97164350  0.48447450  0.91216000  1
  C  8  1  0.92779200  0.45452700  0.49884700  1
  C  9  1  0.94079300  0.46693400  0.46321400  1
  C  11  1  0.98176900  0.47660500  0.52115700  1
  C  27  1  0.86285300  0.44006300  0.96209200  1
  C  30  1  0.84435600  0.37750100  0.53972400  1
  C  31  1  0.86274450  0.42220550  0.51219500  1
  C  39  1  0.83211450  0.37374750  0.95332700  1
  C  40  1  0.82626700  0.47177400  0.96068400  1
  C  41  1  0.81432050  0.43394150  0.49870500  1
  C  49  1  0.76585000  0.33973900  0.94458400  1
  C  50  1  0.72650550  0.36916650  0.94581800  1
  C  51  1  0.76008300  0.43728600  0.95180100  1
  C  52  1  0.65415800  0.33138300  0.93655400  1
  C  53  1  0.65846200  0.33494900  0.89721300  1
  C  54  1  0.66457500  0.38928100  0.87875900  1
  C  55  1  0.66846650  0.39266550  0.84262500  1
  C  56  1  0.67295200  0.34487200  0.82316200  1
  C  57  1  0.67149250  0.29272650  0.84139400  1
  C  58  1  0.66461950  0.28810050  0.87740600  1
  C  59  1  0.61640050  0.26149350  0.94985400  1
  C  60  1  0.61484650  0.35965950  0.95271200  1
  C  61  1  0.56182800  0.35918100  0.93556900  1
  C  62  1  0.52856500  0.38857900  0.94981600  1
  C  63  1  0.54580300  0.41839000  0.98245500  1
  C  64  1  0.59304600  0.41263300  0.00162800  1
  C  65  1  0.62555300  0.38238700  0.98727700  1
  C  66  1  0.63559150  0.23926450  0.97904300  1
  C  67  1  0.60132850  0.17393750  0.98962900  1
  C  68  1  0.54350700  0.12812400  0.97292800  1
  C  69  1  0.51997900  0.15152600  0.94642200  1
  C  70  1  0.55587000  0.21611700  0.93495700  1
  C  85  1  0.12391800  0.55554600  0.46206900  1
  C  86  1  0.15467500  0.62187200  0.45332600  1
  C  87  1  0.22093350  0.65586550  0.44457000  1
  C  88  1  0.26029000  0.62644900  0.44582800  1
  C  89  1  0.22667400  0.55830900  0.45175400  1
  C  90  1  0.16048800  0.52382300  0.46063600  1
  C  91  1  0.33262800  0.66421400  0.43655300  1
  C  92  1  0.32834750  0.66065550  0.39721200  1
  C  93  1  0.32220400  0.60631600  0.37875100  1
  C  94  1  0.31829200  0.60291800  0.34261900  1
  C  95  1  0.31379100  0.65070500  0.32315900  1
  C  96  1  0.31521450  0.70282850  0.34139400  1
  C  97  1  0.32210650  0.70745850  0.37740500  1
  C  98  1  0.37038400  0.73410300  0.44984500  1
  C  99  1  0.37190850  0.63589950  0.45270300  1
  C  100  1  0.42496650  0.63642950  0.43557500  1
  C  101  1  0.45826150  0.60706650  0.44982700  1
  C  102  1  0.44099550  0.57721450  0.48245400  1
  C  103  1  0.39368650  0.58288550  0.50161000  1
  C  104  1  0.36120050  0.61316150  0.48726600  1
  C  105  1  0.35123350  0.75632150  0.47905600  1
  C  106  1  0.38550000  0.82164400  0.48964600  1
  C  107  1  0.44330950  0.86746450  0.47294000  1
  C  108  1  0.46683000  0.84406200  0.44643000  1
  C  109  1  0.43092600  0.77947800  0.43495700  1
  C  126  1  0.42368400  0.55587000  0.03481700  1
  C  127  1  0.45651000  0.62441500  0.03638600  1
  C  128  1  0.42383950  0.65777250  0.04548400  1
  C  129  1  0.35613400  0.62484200  0.05235100  1
  C  130  1  0.32570150  0.55612650  0.05464900  1
  C  131  1  0.35795550  0.52234750  0.04530900  1
  C  132  1  0.31853450  0.66007050  0.06062900  1
  C  133  1  0.31590250  0.65564350  0.09999500  1
  C  134  1  0.25980250  0.61160150  0.11876500  1
  C  135  1  0.25892450  0.60985950  0.15495900  1
  C  136  1  0.31520450  0.64936750  0.17474800  1
  C  137  1  0.37258600  0.69005800  0.15603200  1
  C  138  1  0.37281100  0.69311300  0.11987100  1
  C  139  1  0.35072600  0.73009600  0.04746000  1
  C  140  1  0.25198700  0.63045600  0.04302200  1
  C  141  1  0.20488150  0.64651450  0.05424500  1
  C  142  1  0.14243900  0.61811600  0.03972800  1
  C  143  1  0.12404050  0.57340750  0.01220300  1
  C  144  1  0.17244950  0.56164350  0.99871500  1
  C  145  1  0.23496650  0.59053050  0.01325800  1
  C  146  1  0.37626500  0.74611200  0.01362000  1
  C  147  1  0.40726850  0.81025250  0.00123400  1
  C  148  1  0.40970950  0.86202050  0.02061600  1
  C  149  1  0.37812250  0.84460050  0.05306200  1
  C  150  1  0.35001250  0.78101350  0.06611400  1
  C  167  1  0.56311650  0.43973350  0.53480400  1
  C  168  1  0.53029750  0.37118650  0.53636600  1
  C  169  1  0.56296900  0.33783000  0.54546700  1
  C  170  1  0.63066150  0.37076650  0.55236500  1
  C  171  1  0.66110150  0.43948450  0.55464400  1
  C  172  1  0.62885950  0.47325850  0.54527600  1
  C  173  1  0.66825500  0.33552700  0.56063200  1
  C  174  1  0.67086500  0.33995100  0.59999600  1
  C  175  1  0.72697500  0.38395600  0.61877300  1
  C  176  1  0.72784650  0.38567950  0.65496700  1
  C  177  1  0.67155750  0.34618250  0.67474800  1
  C  178  1  0.61417400  0.30550700  0.65603000  1
  C  179  1  0.61395950  0.30245450  0.61986900  1
  C  180  1  0.63608900  0.26551000  0.54744300  1
  C  181  1  0.73480500  0.36515400  0.54302200  1
  C  182  1  0.78191600  0.34910100  0.55424600  1
  C  183  1  0.75180700  0.40505000  0.51325000  1
  C  184  1  0.61055100  0.24949200  0.51360500  1
  C  185  1  0.57945450  0.18532850  0.50125000  1
  C  186  1  0.57704450  0.13356950  0.52062700  1
  C  187  1  0.60864500  0.15100100  0.55307000  1
  C  188  1  0.63676200  0.21459100  0.56611700  1
  C  203  1  0.67257950  0.34718050  0.71192200  1
  C  204  1  0.71596100  0.40331600  0.73082300  1
  C  205  1  0.72034700  0.40420000  0.76723600  1
  C  206  1  0.67655000  0.34776900  0.78628100  1
  C  207  1  0.63243200  0.29187100  0.76755600  1
  C  209  1  0.63138000  0.29123100  0.73142600  1
  C  212  1  0.77398200  0.46422900  0.78297300  1
  C  215  1  0.31416650  0.64837150  0.21192200  1
  C  216  1  0.27077400  0.59224400  0.23082300  1
  C  217  1  0.26636350  0.59137150  0.26723300  1
  C  218  1  0.31015650  0.64780350  0.28627800  1
  C  219  1  0.35429450  0.70369050  0.26755500  1
  C  221  1  0.35536950  0.70432050  0.23142300  1
  C  224  1  0.21277650  0.53131650  0.28297700  1
  C  228  1  0.05899200  0.54109200  0.99885700  1
  C  229  1  0.04598200  0.52868300  0.96322300  1
  C  231  1  0.00501850  0.51901650  0.02117200  1
  C  234  1  0.44202000  0.92841400  0.00807800  1
  C  235  1  0.45399400  0.94376900  0.97256200  1
  C  236  1  0.48837950  0.00824450  0.95983900  1
  C  237  1  0.50906250  0.06117250  0.98327900  1
  C  238  1  0.49678600  0.04645500  0.01871000  1
  C  240  1  0.46541250  0.98216750  0.03073800  1
  C  243  1  0.50495350  0.01773650  0.92247900  1
  C  247  1  0.45559500  0.52227900  0.02228100  1
  C  248  1  0.49706250  0.54571350  0.99326500  1
  C  249  1  0.52823200  0.51322700  0.97954900  1
  C  250  1  0.51705800  0.45436200  0.99521500  1
  C  251  1  0.47647500  0.43111400  0.02447800  1
  C  253  1  0.44607350  0.46428050  0.03763700  1
  C  256  1  0.57321400  0.54272900  0.94983100  1
  C  260  1  0.00483300  0.50028600  0.44987800  1
  C  261  1  0.05804700  0.52170200  0.47298900  1
  C  262  1  0.04559800  0.50919400  0.50850800  1
  C  264  1  0.01511800  0.51113700  0.41214500  1
  C  267  1  0.54473350  0.06717550  0.50809400  1
  C  268  1  0.53277100  0.05181600  0.47257700  1
  C  269  1  0.49840900  0.98734000  0.45985400  1
  C  270  1  0.47776950  0.93441650  0.48329300  1
  C  271  1  0.49002350  0.94913550  0.51872300  1
  C  273  1  0.52137950  0.01342050  0.53075200  1
  C  276  1  0.48183400  0.97784700  0.42249400  1
  C  280  1  0.53121000  0.47332700  0.52227100  1
  C  281  1  0.48974850  0.44989950  0.49325300  1
  C  282  1  0.45857950  0.48238950  0.47953900  1
  C  283  1  0.46974500  0.54124700  0.49521100  1
  C  284  1  0.51034350  0.56450150  0.52446900  1
  C  286  1  0.54073050  0.53131950  0.53762900  1
  C  289  1  0.41360300  0.45290000  0.44981900  1
  H  4  1  0.90365300  0.47093700  0.02569000  1
  H  6  1  0.94405250  0.50655750  0.90259700  1
  H  7  1  0.94470800  0.43257700  0.90672300  1
  H  10  1  0.90265200  0.45038500  0.44643500  1
  H  12  1  0.97531150  0.47044350  0.54719800  1
  H  13  1  0.96964850  0.49029950  0.39779300  1
  H  28  1  0.85756200  0.34953100  0.95363600  1
  H  29  1  0.84761900  0.52030000  0.96603300  1
  H  32  1  0.87643900  0.36499700  0.54962400  1
  H  42  1  0.82453050  0.46536750  0.47861300  1
  H  43  1  0.81944800  0.47864500  0.76947400  1
  H  71  1  0.49255900  0.38935600  0.93577700  1
  H  72  1  0.54774650  0.33890050  0.91172000  1
  H  73  1  0.60575600  0.43241700  0.02572600  1
  H  74  1  0.66007550  0.38017050  0.00192400  1
  H  75  1  0.67586250  0.27032350  0.99279600  1
  H  76  1  0.61951850  0.15999950  0.00966300  1
  H  77  1  0.47616800  0.12168300  0.93510600  1
  H  78  1  0.53728200  0.22967900  0.91500000  1
  H  79  1  0.66451400  0.24962100  0.88913400  1
  H  80  1  0.67577250  0.25751450  0.82853500  1
  H  81  1  0.66882500  0.43112400  0.83063400  1
  H  82  1  0.66454050  0.42679550  0.89152700  1
  H  83  1  0.73623300  0.46290900  0.95033000  1
  H  84  1  0.74596050  0.29190950  0.93815200  1
  H  110  1  0.49427650  0.60630450  0.43579100  1
  H  111  1  0.43906700  0.65673100  0.41173100  1
  H  112  1  0.38103650  0.56317550  0.52572700  1
  H  113  1  0.32669800  0.61539600  0.50192200  1
  H  114  1  0.31096350  0.72525650  0.49281100  1
  H  115  1  0.36732350  0.83557550  0.50969200  1
  H  116  1  0.51063700  0.87390400  0.43511200  1
  H  117  1  0.44950350  0.76591850  0.41499400  1
  H  118  1  0.32220100  0.74593100  0.38913300  1
  H  119  1  0.31090000  0.73802500  0.32853700  1
  H  120  1  0.31793450  0.56446150  0.33062900  1
  H  121  1  0.32225800  0.56880800  0.39151800  1
  H  122  1  0.25051650  0.53267950  0.45028200  1
  H  123  1  0.24084550  0.70371850  0.43818700  1
  H  124  1  0.12923750  0.64610050  0.45365000  1
  H  125  1  0.13912600  0.47528800  0.46596400  1
  H  151  1  0.11036250  0.63063150  0.04962700  1
  H  152  1  0.21488600  0.67768700  0.07441200  1
  H  153  1  0.16224400  0.53024200  0.97861300  1
  H  154  1  0.26783650  0.58087050  0.00183400  1
  H  155  1  0.37508650  0.71103950  0.99792800  1
  H  156  1  0.42907850  0.81816250  0.97773800  1
  H  157  1  0.37412850  0.87793950  0.06781500  1
  H  158  1  0.32783100  0.77219500  0.08958200  1
  H  159  1  0.41566800  0.72401400  0.10795600  1
  H  160  1  0.41565250  0.71789950  0.16849000  1
  H  161  1  0.21563200  0.57953500  0.16661500  1
  H  162  1  0.21802300  0.57991800  0.10632000  1
  H  163  1  0.27789100  0.52945400  0.06148000  1
  H  164  1  0.45066800  0.70719900  0.04658800  1
  H  165  1  0.50495650  0.65106850  0.03080300  1
  H  166  1  0.33191150  0.47273550  0.04491600  1
  H  189  1  0.77191950  0.31793050  0.57441200  1
  H  190  1  0.71894200  0.41472900  0.50183700  1
  H  191  1  0.61164400  0.28454100  0.49792800  1
  H  192  1  0.55763500  0.17740600  0.47775600  1
  H  193  1  0.61263250  0.11766150  0.56782600  1
  H  194  1  0.65894500  0.22341500  0.58958500  1
  H  195  1  0.57110350  0.27156050  0.60795100  1
  H  196  1  0.57110950  0.27765050  0.66848500  1
  H  197  1  0.77114250  0.41598750  0.66662500  1
  H  198  1  0.76876550  0.41563450  0.60633300  1
  H  199  1  0.70890750  0.46615650  0.56148600  1
  H  200  1  0.53614100  0.28840200  0.54657000  1
  H  201  1  0.48185300  0.34453400  0.53078000  1
  H  202  1  0.65487700  0.52287000  0.54491300  1
  H  208  1  0.74607100  0.44512400  0.71781200  1
  H  210  1  0.59997450  0.25035750  0.78014000  1
  H  211  1  0.60000600  0.24848900  0.71957400  1
  H  213  1  0.78249450  0.45827150  0.80989500  1
  H  214  1  0.76304100  0.50349500  0.78093800  1
  H  220  1  0.24068850  0.55042350  0.21781200  1
  H  222  1  0.38675450  0.74520450  0.28013900  1
  H  223  1  0.38674200  0.74706400  0.21957400  1
  H  225  1  0.16730200  0.51684000  0.26947400  1
  H  226  1  0.20425050  0.53727650  0.30989600  1
  H  227  1  0.22378250  0.49209250  0.28095200  1
  H  230  1  0.08412000  0.54522600  0.94644200  1
  H  232  1  0.01148350  0.52518050  0.04721100  1
  H  233  1  0.01711200  0.50532300  0.89780300  1
  H  239  1  0.43689500  0.90700500  0.95499600  1
  H  241  1  0.51131350  0.08289250  0.03647900  1
  H  242  1  0.46102650  0.97569550  0.05677200  1
  H  244  1  0.49796300  0.97356100  0.91002700  1
  H  245  1  0.55579700  0.05457800  0.91894600  1
  H  246  1  0.47437800  0.03267400  0.90908300  1
  H  252  1  0.50376950  0.58693950  0.98129400  1
  H  254  1  0.46790750  0.38906050  0.03625500  1
  H  255  1  0.41727950  0.44583450  0.05893300  1
  H  257  1  0.58047900  0.59032200  0.94279700  1
  H  258  1  0.55400450  0.51155450  0.92729300  1
  H  259  1  0.62064200  0.54887900  0.95616500  1
  H  263  1  0.08313900  0.52468400  0.52567000  1
  H  265  1  0.04270000  0.48904700  0.40258200  1
  H  266  1  0.04206450  0.56303650  0.40670900  1
  H  272  1  0.54984800  0.08858200  0.45501100  1
  H  274  1  0.47550500  0.91269700  0.53649200  1
  H  275  1  0.52574700  0.01989200  0.55678800  1
  H  277  1  0.48881850  0.02201950  0.41004100  1
  H  278  1  0.43099050  0.94100250  0.41896400  1
  H  279  1  0.51241000  0.96291000  0.40909900  1
  H  285  1  0.48304400  0.40867900  0.48127900  1
  H  287  1  0.51886850  0.60652650  0.53626300  1
  H  288  1  0.56950100  0.54975200  0.55893600  1
  H  290  1  0.40635000  0.40531300  0.44277700  1
  H  291  1  0.43280650  0.48408650  0.42728500  1
  H  292  1  0.36616750  0.44673350  0.45615600  1
