# generated using pymatgen
data_H31C48(NO)8
_symmetry_space_group_name_H-M   'P 1'
_cell_length_a   9.04855000
_cell_length_b   71.08750000
_cell_length_c   71.08750000
_cell_angle_alpha   60.00000000
_cell_angle_beta   89.99840000
_cell_angle_gamma   89.99680000
_symmetry_Int_Tables_number   1
_chemical_formula_structural   H31C48(NO)8
_chemical_formula_sum   'H186 C288 N48 O48'
_cell_volume   39600.08371917
_cell_formula_units_Z   6
loop_
 _symmetry_equiv_pos_site_id
 _symmetry_equiv_pos_as_xyz
  1  'x, y, z'
loop_
 _atom_site_type_symbol
 _atom_site_label
 _atom_site_symmetry_multiplicity
 _atom_site_fract_x
 _atom_site_fract_y
 _atom_site_fract_z
 _atom_site_occupancy
  C  1  1  0.05222600  0.01559400  0.47643500  1
  C  2  1  0.05395000  0.03800300  0.46473850  1
  C  3  1  0.04173800  0.04566350  0.47934950  1
  C  5  1  0.03820200  0.00906350  0.49844450  1
  C  6  1  0.03223400  0.98714100  0.51566500  1
  C  7  1  0.02864200  0.98059900  0.53808700  1
  C  9  1  0.03290600  0.98158000  0.56906200  1
  C  10  1  0.02609000  0.95982500  0.57442700  1
  C  11  1  0.02191000  0.95923100  0.55534100  1
  C  12  1  0.04036600  0.98933500  0.58396300  1
  C  13  1  0.04241000  0.01161450  0.57808850  1
  C  15  1  0.03564800  0.04820400  0.55899800  1
  C  16  1  0.05043400  0.04170000  0.58099200  1
  C  17  1  0.05408200  0.01929900  0.59268600  1
  C  18  1  0.02769000  0.07011650  0.54178750  1
  C  19  1  0.02381000  0.07664850  0.51937000  1
  C  21  1  0.02896200  0.07567350  0.48839250  1
  C  22  1  0.02021000  0.09741500  0.48303600  1
  C  23  1  0.01542200  0.09800150  0.50212350  1
  C  24  1  0.03761400  0.06793650  0.47348350  1
  C  25  1  0.04425800  0.08378700  0.45100900  1
  C  26  1  0.91392800  0.09396600  0.43948900  1
  C  27  1  0.92127400  0.11043700  0.41759100  1
  C  28  1  0.05857800  0.11692800  0.40663800  1
  C  29  1  0.18849000  0.10637200  0.41815700  1
  C  30  1  0.18165600  0.09012250  0.44017100  1
  C  31  1  0.06505600  0.13376100  0.38456450  1
  C  32  1  0.13632600  0.13045550  0.36872250  1
  C  33  1  0.13348600  0.14664800  0.34665350  1
  C  34  1  0.06124200  0.16658400  0.34008100  1
  C  35  1  0.99451200  0.17026550  0.35584850  1
  C  36  1  0.99548800  0.15397600  0.37784350  1
  C  37  1  0.03123800  0.08685700  0.54725000  1
  C  38  1  0.90410200  0.09195050  0.55538350  1
  C  39  1  0.90738800  0.10896450  0.56010150  1
  C  40  1  0.03697400  0.12143400  0.55633200  1
  C  41  1  0.16424200  0.11625150  0.54831950  1
  C  42  1  0.16184600  0.09899950  0.54401050  1
  C  43  1  0.04097400  0.13896150  0.56039650  1
  C  44  1  0.04300200  0.13507050  0.58191650  1
  C  45  1  0.06611800  0.15230600  0.58596100  1
  C  46  1  0.08393200  0.17381200  0.56865500  1
  C  47  1  0.07811800  0.17767650  0.54712050  1
  C  48  1  0.05789400  0.16044350  0.54302300  1
  C  49  1  0.04844600  0.97351200  0.60643400  1
  C  50  1  0.18632400  0.96753900  0.61716800  1
  C  51  1  0.19446400  0.95149800  0.63924600  1
  C  52  1  0.06543000  0.94079700  0.65094700  1
  C  53  1  0.92767400  0.94688250  0.64007750  1
  C  54  1  0.91900000  0.96314900  0.61811000  1
  C  55  1  0.07315800  0.92429400  0.67314700  1
  C  56  1  0.00495800  0.90390150  0.68033350  1
  C  57  1  0.00510200  0.88795200  0.70245300  1
  C  58  1  0.07143400  0.89217200  0.71788400  1
  C  59  1  0.14235000  0.91228700  0.71085300  1
  C  60  1  0.14418600  0.92813000  0.68866000  1
  C  61  1  0.03736200  0.97039700  0.51021900  1
  C  62  1  0.16919400  0.95854300  0.51330700  1
  C  63  1  0.91027000  0.96487350  0.50245450  1
  C  64  1  0.91473600  0.94769000  0.49799200  1
  C  65  1  0.04555000  0.93549400  0.50164300  1
  C  66  1  0.17284200  0.94113250  0.50924450  1
  C  67  1  0.05039000  0.91767900  0.49803200  1
  C  68  1  0.06767400  0.89637500  0.51571800  1
  C  69  1  0.08847400  0.87884200  0.51209700  1
  C  70  1  0.09473000  0.88223000  0.49073700  1
  C  71  1  0.07672000  0.90356800  0.47312000  1
  C  72  1  0.05264600  0.92109700  0.47668600  1
  C  123  1  0.71849840  0.47444550  0.59770250  1
  C  124  1  0.72026640  0.46274800  0.58699100  1
  C  125  1  0.70815440  0.47735750  0.56471900  1
  C  127  1  0.70453440  0.49645550  0.58222200  1
  C  128  1  0.69860640  0.51367850  0.58692150  1
  C  129  1  0.69510240  0.53610050  0.57104050  1
  C  131  1  0.69966640  0.56707450  0.53908350  1
  C  132  1  0.69304640  0.57244150  0.55547350  1
  C  133  1  0.68876440  0.55335700  0.57515400  1
  C  134  1  0.70709440  0.58197300  0.51642750  1
  C  135  1  0.70879440  0.57610150  0.50001950  1
  C  137  1  0.70199840  0.55700850  0.48252050  1
  C  138  1  0.71637640  0.57900850  0.46702600  1
  C  139  1  0.72005640  0.59070350  0.47773250  1
  C  140  1  0.69426240  0.53979450  0.47782150  1
  C  141  1  0.69064840  0.51737550  0.49370800  1
  C  143  1  0.69575440  0.48639950  0.52566300  1
  C  144  1  0.68711040  0.48104000  0.50928100  1
  C  145  1  0.68239440  0.50012600  0.48960500  1
  C  146  1  0.70418640  0.47149200  0.54831150  1
  C  147  1  0.71086240  0.44901750  0.55493650  1
  C  148  1  0.58054200  0.43749550  0.55628250  1
  C  149  1  0.58792600  0.41560050  0.56169900  1
  C  150  1  0.72523440  0.40464850  0.56616050  1
  C  151  1  0.85513840  0.41617100  0.56519100  1
  C  152  1  0.84827440  0.43817900  0.55944600  1
  C  153  1  0.73175040  0.38257650  0.57139800  1
  C  154  1  0.80297440  0.36673300  0.59054800  1
  C  155  1  0.80017840  0.34466450  0.59642250  1
  C  156  1  0.72793640  0.33809500  0.58305600  1
  C  157  1  0.66135040  0.35386400  0.56359600  1
  C  158  1  0.66219040  0.37585600  0.55790300  1
  C  159  1  0.69786040  0.54525300  0.45562000  1
  C  160  1  0.57072800  0.55337400  0.44239200  1
  C  161  1  0.57405400  0.55808700  0.42066150  1
  C  162  1  0.70371040  0.55433150  0.41196150  1
  C  163  1  0.83097040  0.54632400  0.42516150  1
  C  164  1  0.82852640  0.54202600  0.44671850  1
  C  165  1  0.70776640  0.55839900  0.39036800  1
  C  166  1  0.70925840  0.57991850  0.37273850  1
  C  167  1  0.73266640  0.58396850  0.35146000  1
  C  168  1  0.75061440  0.56667100  0.34724950  1
  C  169  1  0.74521040  0.54513650  0.36492300  1
  C  170  1  0.72510040  0.54103300  0.38625800  1
  C  171  1  0.71519440  0.60444450  0.50977650  1
  C  172  1  0.85306240  0.61518000  0.50499000  1
  C  173  1  0.86122840  0.63725750  0.49895650  1
  C  174  1  0.73223440  0.64895700  0.49797600  1
  C  175  1  0.59446600  0.63808950  0.50277350  1
  C  176  1  0.58577000  0.61612200  0.50847800  1
  C  177  1  0.73999440  0.67115700  0.49228200  1
  C  178  1  0.67185040  0.67834250  0.50549450  1
  C  179  1  0.67197040  0.70046350  0.49931950  1
  C  180  1  0.73837040  0.71589300  0.47967400  1
  C  181  1  0.80933040  0.70886050  0.46659350  1
  C  182  1  0.81095440  0.68667050  0.47292850  1
  C  183  1  0.70386640  0.50823300  0.60911000  1
  C  184  1  0.83583040  0.51129050  0.61787000  1
  C  185  1  0.57679400  0.50049050  0.62240750  1
  C  186  1  0.58138200  0.49603650  0.64404950  1
  C  187  1  0.71233040  0.49965800  0.65258800  1
  C  188  1  0.83959040  0.50723950  0.63933900  1
  C  189  1  0.71733840  0.49604700  0.67401300  1
  C  190  1  0.73452240  0.51373500  0.67762950  1
  C  191  1  0.75544240  0.51011500  0.69878000  1
  C  192  1  0.76184240  0.48875500  0.71675000  1
  C  193  1  0.74390640  0.47113450  0.71303350  1
  C  194  1  0.71989040  0.47469900  0.69193900  1
  C  245  1  0.38491200  0.59571000  0.01758800  1
  C  246  1  0.38673600  0.58499600  0.03999750  1
  C  247  1  0.37473600  0.56272250  0.04765700  1
  C  249  1  0.37100800  0.58023200  0.01105500  1
  C  250  1  0.36501000  0.58493350  0.98913250  1
  C  251  1  0.36136200  0.56905650  0.98258600  1
  C  253  1  0.36579600  0.53710250  0.98356150  1
  C  254  1  0.35922000  0.55349700  0.96180650  1
  C  255  1  0.35481000  0.57317400  0.96121650  1
  C  256  1  0.37351600  0.51444900  0.99131400  1
  C  257  1  0.37564200  0.49804200  0.01359300  1
  C  259  1  0.36895400  0.48053500  0.05018400  1
  C  260  1  0.38360000  0.46504800  0.04367500  1
  C  261  1  0.38721000  0.47575900  0.02127300  1
  C  262  1  0.36119600  0.47582900  0.07209900  1
  C  263  1  0.35750800  0.49171200  0.07863500  1
  C  265  1  0.36259800  0.52366250  0.07766450  1
  C  266  1  0.35390200  0.50727650  0.09940550  1
  C  267  1  0.34918600  0.48760250  0.09999050  1
  C  268  1  0.37094800  0.54631050  0.06992850  1
  C  269  1  0.37764400  0.55293150  0.08578050  1
  C  270  1  0.24733400  0.55427550  0.09596150  1
  C  271  1  0.25472400  0.55968600  0.11244400  1
  C  272  1  0.39204200  0.56414850  0.11893050  1
  C  273  1  0.52194200  0.56317500  0.10837800  1
  C  274  1  0.51506000  0.55743500  0.09211000  1
  C  275  1  0.39857200  0.56938250  0.13576800  1
  C  276  1  0.46988600  0.58852550  0.13246550  1
  C  277  1  0.46688400  0.59441500  0.14864800  1
  C  278  1  0.39465000  0.58105200  0.16858400  1
  C  279  1  0.32803000  0.56159350  0.17227300  1
  C  280  1  0.32898200  0.55589250  0.15598000  1
  C  281  1  0.36466600  0.45362550  0.08883600  1
  C  282  1  0.23747600  0.44041000  0.09392900  1
  C  283  1  0.24071200  0.41867450  0.11093550  1
  C  284  1  0.37026000  0.40996400  0.12341300  1
  C  285  1  0.49758400  0.42314750  0.11823350  1
  C  286  1  0.49526200  0.44470750  0.10098050  1
  C  287  1  0.37419600  0.38837050  0.14094200  1
  C  288  1  0.37597200  0.37073900  0.13705550  1
  C  289  1  0.39914800  0.34946200  0.15429400  1
  C  290  1  0.41704400  0.34526600  0.17579800  1
  C  291  1  0.41120600  0.36293750  0.17966050  1
  C  292  1  0.39115600  0.38427000  0.16242050  1
  C  293  1  0.38168400  0.50780400  0.97548800  1
  C  294  1  0.51959600  0.50302850  0.96953650  1
  C  295  1  0.52783200  0.49700350  0.95348700  1
  C  296  1  0.39886200  0.49601100  0.94277000  1
  C  297  1  0.26106800  0.50079900  0.94884250  1
  C  298  1  0.25230400  0.50650550  0.96510350  1
  C  299  1  0.40670600  0.49031800  0.92626600  1
  C  300  1  0.33856000  0.50352500  0.90586700  1
  C  301  1  0.33879600  0.49735500  0.88991800  1
  C  302  1  0.40508400  0.47769700  0.89414600  1
  C  303  1  0.47597800  0.46461550  0.91426450  1
  C  304  1  0.47767000  0.47096200  0.93011000  1
  C  305  1  0.37038000  0.60712250  0.97239150  1
  C  306  1  0.50237200  0.61586550  0.96057800  1
  C  307  1  0.24337800  0.62043350  0.96683250  1
  C  308  1  0.24808200  0.64207900  0.94965000  1
  C  309  1  0.37903200  0.65059650  0.93748650  1
  C  310  1  0.50623800  0.63733550  0.94315950  1
  C  311  1  0.38411800  0.67201800  0.91966600  1
  C  312  1  0.40120400  0.67562800  0.89836250  1
  C  313  1  0.42225600  0.69677600  0.88083100  1
  C  314  1  0.42853200  0.71474900  0.88421600  1
  C  315  1  0.41066400  0.71103900  0.90555200  1
  C  316  1  0.38669200  0.68994600  0.92308500  1
  C  367  1  0.41617800  0.28544350  0.21413350  1
  C  368  1  0.37419600  0.27298500  0.23613450  1
  C  369  1  0.45398400  0.25419250  0.25083250  1
  C  370  1  0.57847000  0.24777550  0.24323250  1
  C  371  1  0.61930800  0.25970600  0.22100900  1
  C  372  1  0.53630000  0.27826300  0.20669200  1
  C  374  1  0.67032000  0.23052100  0.25822300  1
  C  375  1  0.65620600  0.20944900  0.26092500  1
  C  376  1  0.74891800  0.19260450  0.27597900  1
  C  377  1  0.85476800  0.19619450  0.28845150  1
  C  378  1  0.86801800  0.21740300  0.28525950  1
  C  379  1  0.77766000  0.23462950  0.27027650  1
  C  395  1  0.94132000  0.17734650  0.30505850  1
  C  398  1  0.34594400  0.30675050  0.19929650  1
  C  401  1  0.08289400  0.21214150  0.59015050  1
  C  402  1  0.04084200  0.23413900  0.58061400  1
  C  403  1  0.12064600  0.24884350  0.58469550  1
  C  404  1  0.24514000  0.24125100  0.59871250  1
  C  405  1  0.28597400  0.21902750  0.60901250  1
  C  406  1  0.20305600  0.20471050  0.60476300  1
  C  408  1  0.33694600  0.25624550  0.60097500  1
  C  409  1  0.32279800  0.25895000  0.61934300  1
  C  410  1  0.41547800  0.27400800  0.62113100  1
  C  411  1  0.52136200  0.28647500  0.60507100  1
  C  412  1  0.53464600  0.28328100  0.58705700  1
  C  413  1  0.44429400  0.26829850  0.58481250  1
  C  429  1  0.60791840  0.30308000  0.60731300  1
  C  432  1  0.01272600  0.19730200  0.58368000  1
  C  435  1  0.74954240  0.58817650  0.28742400  1
  C  436  1  0.70749040  0.57863950  0.27496350  1
  C  437  1  0.78728240  0.58272750  0.25617300  1
  C  438  1  0.91173440  0.59674850  0.24974700  1
  C  439  1  0.95251640  0.60705600  0.26166600  1
  C  440  1  0.86950640  0.60282450  0.28022000  1
  C  442  1  0.00359200  0.59900700  0.23249400  1
  C  443  1  0.98943838  0.61736850  0.21141700  1
  C  444  1  0.08215800  0.61915100  0.19457700  1
  C  445  1  0.18802000  0.60308650  0.19817450  1
  C  446  1  0.20133600  0.58508250  0.21938900  1
  C  447  1  0.11095800  0.58284550  0.23661050  1
  C  463  1  0.27453000  0.60531400  0.17932900  1
  C  466  1  0.67939840  0.58169350  0.30873850  1
  C  469  1  0.42875200  0.77436400  0.84493200  1
  C  470  1  0.38657000  0.78654200  0.82291450  1
  C  471  1  0.46632800  0.80523100  0.80799500  1
  C  472  1  0.59092600  0.81184350  0.81538800  1
  C  473  1  0.63196000  0.80020350  0.83761400  1
  C  474  1  0.54900800  0.78174100  0.85214900  1
  C  476  1  0.68244400  0.82902600  0.80021300  1
  C  477  1  0.66825400  0.85020600  0.79723500  1
  C  478  1  0.76069800  0.86697200  0.78201600  1
  C  479  1  0.86638200  0.86319800  0.76965000  1
  C  480  1  0.87966400  0.84189050  0.77310950  1
  C  481  1  0.78955600  0.82474000  0.78825900  1
  C  497  1  0.95258600  0.88196100  0.75285600  1
  C  500  1  0.35816800  0.75317800  0.86005200  1
  C  503  1  0.09544600  0.84293800  0.47041300  1
  C  504  1  0.05337400  0.82091750  0.48026350  1
  C  505  1  0.13315400  0.80600050  0.47649250  1
  C  506  1  0.25779400  0.81339400  0.46249550  1
  C  507  1  0.29882800  0.83562100  0.45191300  1
  C  508  1  0.21578600  0.85015700  0.45583000  1
  C  510  1  0.34936000  0.79822250  0.46048800  1
  C  511  1  0.33523200  0.79524950  0.44228150  1
  C  512  1  0.42767800  0.78002850  0.44073750  1
  C  513  1  0.53330800  0.76765700  0.45688300  1
  C  514  1  0.54657000  0.77111550  0.47473150  1
  C  515  1  0.45644600  0.78626600  0.47673050  1
  C  531  1  0.61962040  0.75087350  0.45490850  1
  C  534  1  0.02475600  0.85806500  0.47646200  1
  C  537  1  0.76216840  0.46843100  0.77636600  1
  C  538  1  0.71997840  0.47827200  0.78854200  1
  C  539  1  0.79975840  0.47451100  0.80722700  1
  C  540  1  0.92442040  0.46051800  0.81383600  1
  C  541  1  0.96550838  0.44993350  0.80219450  1
  C  542  1  0.88257040  0.45386000  0.78373000  1
  C  544  1  0.01593800  0.45851300  0.83101700  1
  C  545  1  0.00180000  0.44030850  0.85219550  1
  C  546  1  0.09421400  0.43876500  0.86896350  1
  C  547  1  0.19986800  0.45490700  0.86518900  1
  C  548  1  0.21312800  0.47275700  0.84388100  1
  C  549  1  0.12300600  0.47475700  0.82673050  1
  C  565  1  0.28620000  0.45293050  0.88394500  1
  C  568  1  0.69156640  0.47448400  0.75518350  1
  H  73  1  0.08673400  0.90659500  0.45751700  1
  H  74  1  0.04561800  0.93648100  0.46359800  1
  H  75  1  0.10573800  0.86368900  0.52514300  1
  H  76  1  0.06921600  0.89354500  0.53132650  1
  H  77  1  0.26917800  0.93260850  0.51188650  1
  H  78  1  0.26249000  0.96221250  0.51897650  1
  H  79  1  0.82093800  0.94377300  0.49265150  1
  H  80  1  0.81337200  0.97315900  0.50024100  1
  H  81  1  0.06025800  0.00587550  0.46968450  1
  H  82  1  0.06244600  0.04700450  0.44820650  1
  H  83  1  0.01762200  0.02810650  0.51244250  1
  H  84  1  0.01634200  0.02912150  0.54502500  1
  H  85  1  0.01673800  0.94531500  0.55449200  1
  H  86  1  0.02418600  0.94641800  0.58960100  1
  H  87  1  0.28164200  0.97475200  0.60896000  1
  H  88  1  0.29597200  0.94729700  0.64655500  1
  H  89  1  0.81795200  0.96719100  0.61063900  1
  H  90  1  0.83193200  0.93968200  0.64814400  1
  H  91  1  0.06351800  0.01031850  0.60920750  1
  H  92  1  0.05778400  0.05142850  0.58773850  1
  H  93  1  0.01743400  0.11082100  0.46786450  1
  H  94  1  0.00895800  0.11190750  0.50297550  1
  H  95  1  0.80813800  0.08342500  0.55775400  1
  H  96  1  0.81367600  0.11252250  0.56577600  1
  H  97  1  0.25525200  0.09561400  0.53812300  1
  H  98  1  0.25984400  0.12494450  0.54562850  1
  H  99  1  0.05971800  0.16361950  0.52729850  1
  H  100  1  0.09500600  0.19297300  0.53428900  1
  H  101  1  0.07573000  0.14894350  0.60167850  1
  H  102  1  0.03583400  0.11956050  0.59478800  1
  H  103  1  0.27759800  0.08307750  0.44827700  1
  H  104  1  0.28969000  0.11088400  0.41079200  1
  H  105  1  0.94371200  0.15695600  0.38889400  1
  H  106  1  0.94043000  0.18455550  0.35128700  1
  H  107  1  0.18088000  0.14368500  0.33533000  1
  H  108  1  0.18540600  0.11588650  0.37298950  1
  H  109  1  0.82497400  0.11755400  0.40965800  1
  H  110  1  0.81323400  0.08969200  0.44704900  1
  H  111  1  0.95339400  0.90053950  0.66953150  1
  H  112  1  0.95193000  0.87352900  0.70735150  1
  H  113  1  0.19207000  0.94285000  0.68406100  1
  H  114  1  0.18944600  0.91563900  0.72192700  1
  H  119  1  0.16501200  0.20382600  0.55956450  1
  H  120  1  0.15764600  0.87188600  0.74738450  1
  H  121  1  0.17679800  0.85213200  0.50044000  1
  H  122  1  0.14589800  0.18744150  0.31064350  1
  H  195  1  0.75380640  0.45553250  0.72561250  1
  H  196  1  0.71260640  0.46161350  0.68964250  1
  H  197  1  0.77245040  0.52316650  0.70088750  1
  H  198  1  0.73585040  0.52934400  0.66485200  1
  H  199  1  0.93600440  0.50987000  0.64521300  1
  H  200  1  0.92906440  0.51696350  0.60851850  1
  H  201  1  0.48764200  0.49069500  0.65332100  1
  H  202  1  0.47983000  0.49829000  0.61634350  1
  H  203  1  0.72649840  0.46769500  0.61417200  1
  H  204  1  0.72877440  0.44621550  0.59452350  1
  H  205  1  0.68409440  0.51045200  0.54917900  1
  H  206  1  0.68374240  0.54302300  0.51559100  1
  H  207  1  0.68358640  0.55250900  0.58991900  1
  H  208  1  0.69129040  0.58761750  0.55370550  1
  H  209  1  0.94835840  0.60697100  0.50597900  1
  H  210  1  0.96274438  0.64456550  0.49583850  1
  H  211  1  0.48472600  0.60864750  0.51192850  1
  H  212  1  0.49876200  0.64615350  0.50192950  1
  H  213  1  0.72936240  0.60722600  0.47019050  1
  H  214  1  0.72355040  0.58575750  0.45054950  1
  H  215  1  0.68433840  0.46586750  0.51104750  1
  H  216  1  0.67588240  0.50097700  0.47484800  1
  H  217  1  0.47473400  0.55574650  0.44854150  1
  H  218  1  0.48038200  0.56377050  0.41142250  1
  H  219  1  0.92192240  0.53614050  0.45599350  1
  H  220  1  0.92661040  0.54364500  0.41916000  1
  H  221  1  0.72699240  0.52530600  0.39880500  1
  H  222  1  0.76218640  0.53230850  0.36245600  1
  H  223  1  0.74205440  0.59969100  0.33910700  1
  H  224  1  0.70223040  0.59278850  0.37538150  1
  H  225  1  0.94421240  0.44628750  0.55838000  1
  H  226  1  0.95633640  0.40880150  0.56806000  1
  H  227  1  0.61039240  0.38690700  0.54387400  1
  H  228  1  0.60706640  0.34929950  0.55388600  1
  H  229  1  0.84753440  0.33333333  0.61071667  1
  H  230  1  0.85211040  0.37099800  0.60084600  1
  H  231  1  0.49163400  0.40766750  0.56251100  1
  H  232  1  0.47985000  0.44505900  0.55298000  1
  H  233  1  0.62033840  0.66754000  0.51966250  1
  H  234  1  0.61890240  0.70536150  0.50885450  1
  H  235  1  0.85886240  0.68207400  0.46280650  1
  H  236  1  0.85629840  0.71993650  0.45215650  1
  H  241  1  0.83199840  0.55762250  0.32631300  1
  H  242  1  0.82462640  0.74538850  0.47047150  1
  H  243  1  0.84350240  0.49848600  0.73714850  1
  H  244  1  0.81254640  0.30865150  0.59164650  1
  H  317  1  0.42054400  0.72362150  0.90857150  1
  H  318  1  0.37943200  0.68765250  0.93846650  1
  H  319  1  0.43907800  0.69888750  0.86566650  1
  H  320  1  0.40254400  0.66284700  0.89553700  1
  H  321  1  0.60267200  0.64319750  0.93465650  1
  H  322  1  0.59558000  0.60650700  0.96426200  1
  H  323  1  0.15432400  0.65134950  0.94569550  1
  H  324  1  0.14635600  0.61437500  0.97508400  1
  H  325  1  0.39285800  0.61218050  0.00787050  1
  H  326  1  0.39529000  0.59252350  0.04900000  1
  H  327  1  0.35107600  0.54718000  0.03009900  1
  H  328  1  0.34975800  0.51359250  0.03110800  1
  H  329  1  0.35006800  0.58794250  0.94729900  1
  H  330  1  0.35764800  0.55173300  0.94839600  1
  H  331  1  0.61486200  0.50401750  0.97676100  1
  H  332  1  0.62937000  0.49388250  0.94930450  1
  H  333  1  0.15123000  0.50994350  0.96913150  1
  H  334  1  0.16537600  0.49995100  0.94162150  1
  H  335  1  0.39658600  0.46821950  0.01229050  1
  H  336  1  0.39099200  0.44857250  0.05340050  1
  H  337  1  0.35108800  0.50904050  0.11281250  1
  H  338  1  0.34267200  0.47284400  0.11389500  1
  H  339  1  0.14152600  0.44657400  0.08540050  1
  H  340  1  0.14694400  0.40945400  0.11449800  1
  H  341  1  0.58871200  0.45397200  0.09759750  1
  H  342  1  0.59317000  0.41713600  0.12692750  1
  H  343  1  0.39311200  0.39682300  0.16558900  1
  H  344  1  0.42834600  0.36048300  0.19494700  1
  H  345  1  0.40876400  0.33710450  0.15093400  1
  H  346  1  0.36890200  0.37338050  0.12154350  1
  H  347  1  0.61098400  0.55637650  0.08506050  1
  H  348  1  0.62313800  0.56605250  0.11286850  1
  H  349  1  0.27719600  0.54186200  0.15896000  1
  H  350  1  0.27384600  0.55187650  0.18655500  1
  H  351  1  0.51417400  0.60870850  0.14567950  1
  H  352  1  0.51877800  0.59884400  0.11788700  1
  H  353  1  0.15843600  0.56050400  0.11956200  1
  H  354  1  0.14664000  0.55097750  0.09169850  1
  H  355  1  0.28694200  0.51768550  0.90250350  1
  H  356  1  0.28550800  0.50686750  0.87550050  1
  H  357  1  0.52556600  0.46084200  0.94483100  1
  H  358  1  0.52298200  0.45018050  0.91762600  1
  H  363  1  0.49824400  0.32435050  0.20580550  1
  H  364  1  0.49126400  0.46847000  0.87386700  1
  H  365  1  0.51025800  0.73515200  0.85409500  1
  H  366  1  0.47916200  0.58965050  0.18943450  1
  H  373  1  0.56899000  0.28726650  0.19081950  1
  H  380  1  0.73668200  0.17733750  0.27811650  1
  H  381  1  0.94330000  0.22058150  0.29402350  1
  H  382  1  0.28794800  0.27802350  0.24183600  1
  H  396  1  0.00384200  0.17017150  0.29702450  1
  H  397  1  0.86058400  0.16524050  0.31581250  1
  H  399  1  0.25398800  0.31017200  0.20714450  1
  H  400  1  0.30144200  0.30610900  0.18533400  1
  H  407  1  0.23573400  0.18883450  0.61164850  1
  H  414  1  0.40326600  0.27614150  0.63426250  1
  H  415  1  0.60993840  0.29204250  0.57511650  1
  H  416  1  0.95467200  0.23984350  0.56986100  1
  H  430  1  0.67040240  0.29504550  0.62252650  1
  H  431  1  0.52718600  0.31384000  0.60865900  1
  H  433  1  0.92074400  0.20514400  0.57241500  1
  H  434  1  0.96827600  0.18333350  0.59828450  1
  H  441  1  0.90233040  0.60968050  0.28923000  1
  H  448  1  0.06985600  0.63226950  0.17930450  1
  H  449  1  0.27658800  0.57313450  0.22257150  1
  H  450  1  0.62139840  0.56787400  0.28002100  1
  H  464  1  0.33698400  0.62053000  0.17213600  1
  H  465  1  0.19377600  0.60664550  0.16723350  1
  H  467  1  0.58755000  0.57040700  0.31217300  1
  H  468  1  0.63478240  0.59629000  0.30810400  1
  H  475  1  0.58177600  0.77295250  0.86803700  1
  H  482  1  0.74837400  0.88231500  0.77967600  1
  H  483  1  0.95476400  0.83858100  0.76442050  1
  H  484  1  0.30022800  0.78135900  0.81737000  1
  H  498  1  0.01499400  0.88934500  0.76069600  1
  H  499  1  0.87164200  0.89396300  0.74201200  1
  H  501  1  0.26628800  0.74956950  0.85233850  1
  H  502  1  0.31348800  0.75416300  0.87381900  1
  H  509  1  0.24852200  0.86604600  0.44872900  1
  H  516  1  0.41543400  0.77769800  0.42772700  1
  H  517  1  0.62167440  0.76242900  0.48673000  1
  H  518  1  0.96690600  0.81537850  0.49097000  1
  H  532  1  0.68210640  0.75872600  0.43968900  1
  H  533  1  0.53874600  0.74003500  0.45372900  1
  H  535  1  0.93284800  0.85035200  0.48777850  1
  H  536  1  0.98008400  0.87182700  0.46170200  1
  H  543  1  0.91532640  0.44674850  0.77495300  1
  H  550  1  0.08201200  0.42575100  0.88430300  1
  H  551  1  0.28823200  0.48475450  0.84056850  1
  H  552  1  0.63356640  0.48899000  0.78336300  1
  H  566  1  0.34861800  0.43770600  0.89131700  1
  H  567  1  0.20533600  0.45176550  0.89595900  1
  H  569  1  0.59960640  0.48579200  0.75157900  1
  H  570  1  0.64700040  0.45972400  0.75617300  1
  N  4  1  0.03236600  0.02768650  0.49927700  1
  N  8  1  0.03446600  0.99337000  0.54714100  1
  N  14  1  0.03138200  0.02957150  0.55817050  1
  N  20  1  0.03121600  0.06388900  0.51031500  1
  N  115  1  0.04459000  0.18265850  0.31806350  1
  N  116  1  0.05597000  0.87642100  0.74003500  1
  N  117  1  0.13748600  0.86543100  0.48658800  1
  N  118  1  0.12589400  0.19033350  0.57325700  1
  N  126  1  0.69876640  0.49728650  0.56276750  1
  N  130  1  0.70095840  0.54515100  0.54921800  1
  N  136  1  0.69784240  0.55618350  0.50197950  1
  N  142  1  0.69787440  0.50832200  0.51552400  1
  N  237  1  0.71124840  0.31607700  0.58900200  1
  N  238  1  0.72293640  0.73804400  0.47327600  1
  N  239  1  0.80435840  0.48462550  0.73770100  1
  N  240  1  0.79265440  0.57130050  0.32612050  1
  N  248  1  0.36523200  0.56077550  0.02967750  1
  N  252  1  0.36722800  0.54723350  0.99535450  1
  N  258  1  0.36465400  0.49999750  0.03155450  1
  N  264  1  0.36473200  0.51352750  0.06587800  1
  N  359  1  0.37788400  0.58700200  0.18465200  1
  N  360  1  0.38959800  0.47128950  0.87840200  1
  N  361  1  0.47102600  0.73570300  0.86740000  1
  N  362  1  0.45908000  0.32414600  0.19231800  1
  N  383  1  0.79281200  0.25585350  0.26716950  1
  N  384  1  0.54865000  0.20558050  0.24877350  1
  N  385  1  0.41369200  0.24199900  0.27304300  1
  N  386  1  0.74529200  0.25337800  0.21367300  1
  N  417  1  0.45947800  0.26518800  0.56669850  1
  N  418  1  0.21525800  0.24679600  0.63536500  1
  N  419  1  0.08036200  0.27105500  0.57466900  1
  N  420  1  0.41193000  0.21169400  0.62268000  1
  N  451  1  0.12614000  0.56473550  0.25783950  1
  N  452  1  0.88183840  0.63338700  0.20754100  1
  N  453  1  0.74703440  0.57269600  0.24399100  1
  N  454  1  0.07849800  0.62071800  0.25533450  1
  N  485  1  0.80475200  0.80341650  0.79163100  1
  N  486  1  0.56089800  0.85425500  0.80928500  1
  N  487  1  0.42577200  0.81714400  0.78577900  1
  N  488  1  0.75805800  0.80671500  0.84474800  1
  N  519  1  0.47159800  0.78963700  0.49468250  1
  N  520  1  0.22792200  0.80730350  0.42617900  1
  N  521  1  0.09261800  0.78378300  0.48679200  1
  N  522  1  0.42498200  0.84275500  0.43827750  1
  N  553  1  0.13816600  0.49270900  0.80540800  1
  N  554  1  0.89452640  0.42420100  0.85624350  1
  N  555  1  0.75917840  0.48481600  0.81913700  1
  N  556  1  0.09166000  0.43629600  0.80870400  1
  O  387  1  0.91933000  0.26345300  0.26026100  1
  O  388  1  0.84257800  0.26794450  0.20643450  1
  O  389  1  0.41881200  0.25330750  0.28209150  1
  O  390  1  0.45545600  0.19172400  0.26096100  1
  O  391  1  0.76929400  0.25617050  0.28443150  1
  O  392  1  0.71206200  0.24901550  0.19911550  1
  O  393  1  0.28582400  0.23427950  0.27526450  1
  O  394  1  0.60716800  0.19914850  0.23695900  1
  O  421  1  0.58600200  0.25827900  0.56601050  1
  O  422  1  0.50927000  0.20445900  0.61535600  1
  O  423  1  0.08546800  0.28009400  0.55431400  1
  O  424  1  0.12203800  0.25898250  0.63703250  1
  O  425  1  0.43597800  0.28244850  0.54911850  1
  O  426  1  0.37868600  0.19713550  0.64159950  1
  O  427  1  0.95248600  0.27328150  0.58016650  1
  O  428  1  0.27377400  0.23498500  0.65361000  1
  O  455  1  0.25265200  0.56405150  0.26543750  1
  O  456  1  0.17578400  0.61339550  0.26990050  1
  O  457  1  0.75221640  0.55234150  0.25530850  1
  O  458  1  0.78865440  0.63504400  0.19368950  1
  O  459  1  0.10266000  0.54715100  0.25816600  1
  O  460  1  0.04526600  0.63964100  0.25096200  1
  O  461  1  0.61914640  0.57818400  0.23627300  1
  O  462  1  0.94032240  0.65163750  0.20109850  1
  O  489  1  0.93139800  0.79588200  0.79854750  1
  O  490  1  0.85536400  0.79215150  0.85215600  1
  O  491  1  0.43062200  0.80558150  0.77700550  1
  O  492  1  0.46748000  0.86801700  0.79702300  1
  O  493  1  0.78093400  0.80285700  0.77450300  1
  O  494  1  0.72504400  0.81137100  0.85910650  1
  O  495  1  0.29794000  0.82489800  0.78347500  1
  O  496  1  0.61960400  0.86091200  0.82090000  1
  O  523  1  0.59823440  0.79655000  0.49530700  1
  O  524  1  0.52221200  0.85016500  0.44544000  1
  O  525  1  0.09742600  0.77500950  0.50712800  1
  O  526  1  0.13450200  0.79504600  0.42467100  1
  O  527  1  0.44774600  0.77250800  0.51237000  1
  O  528  1  0.39202600  0.85711200  0.41926000  1
  O  529  1  0.96480800  0.78148050  0.48133600  1
  O  530  1  0.28667000  0.81891850  0.40790900  1
  O  557  1  0.26480600  0.49333200  0.79787100  1
  O  558  1  0.18894800  0.44346200  0.79413700  1
  O  559  1  0.76394840  0.50515250  0.80756950  1
  O  560  1  0.80108640  0.42268950  0.87000800  1
  O  561  1  0.11430600  0.51039500  0.80485000  1
  O  562  1  0.05872000  0.41728150  0.81335600  1
  O  563  1  0.63136840  0.47935900  0.82689700  1
  O  564  1  0.95332040  0.40593350  0.86289850  1
