# generated using pymatgen
data_H28C43N5
_symmetry_space_group_name_H-M   'P 1'
_cell_length_a   9.90313333
_cell_length_b   29.98250000
_cell_length_c   29.98260000
_cell_angle_alpha   89.92850000
_cell_angle_beta   90.00000000
_cell_angle_gamma   90.00000000
_symmetry_Int_Tables_number   1
_chemical_formula_structural   H28C43N5
_chemical_formula_sum   'H56 C86 N10'
_cell_volume   8902.44750310
_cell_formula_units_Z   2
loop_
 _symmetry_equiv_pos_site_id
 _symmetry_equiv_pos_as_xyz
  1  'x, y, z'
loop_
 _atom_site_type_symbol
 _atom_site_label
 _atom_site_symmetry_multiplicity
 _atom_site_fract_x
 _atom_site_fract_y
 _atom_site_fract_z
 _atom_site_occupancy
  C  1  1  0.97815200  0.91209000  0.11230200  1
  C  2  1  0.97694000  0.87951700  0.07980400  1
  C  3  1  0.97803900  0.90033500  0.03807700  1
  C  5  1  0.97745500  0.95379200  0.09141100  1
  C  6  1  0.97747900  0.99559200  0.11409600  1
  C  7  1  0.97887700  0.03782300  0.09235700  1
  C  9  1  0.98246200  0.09074400  0.03919700  1
  C  10  1  0.97990900  0.11194000  0.08063500  1
  C  11  1  0.97670700  0.07943400  0.11328100  1
  C  12  1  0.98545400  0.11228300  0.99691600  1
  C  13  1  0.98629100  0.08959000  0.95517900  1
  C  15  1  0.98625400  0.03618600  0.90195100  1
  C  16  1  0.98739200  0.07782300  0.88095400  1
  C  17  1  0.98698200  0.11042900  0.91344900  1
  C  18  1  0.98673600  0.99437700  0.87941600  1
  C  19  1  0.98526000  0.95216200  0.90106600  1
  C  21  1  0.98113100  0.89916700  0.95407100  1
  C  22  1  0.98533300  0.87810200  0.91254900  1
  C  23  1  0.98691800  0.91066300  0.87997000  1
  C  24  1  0.97881900  0.87755500  0.99633800  1
  C  25  1  0.97867600  0.82975000  0.99669100  1
  C  26  1  0.86150700  0.80553700  0.98487900  1
  C  27  1  0.86253600  0.75854500  0.98407700  1
  C  28  1  0.97978700  0.73426300  0.99593600  1
  C  29  1  0.09642400  0.75865900  0.00821000  1
  C  30  1  0.09643000  0.80564900  0.00809800  1
  C  31  1  0.98080700  0.68660200  0.99546500  1
  C  32  1  0.02531900  0.66204500  0.03299100  1
  C  33  1  0.02766200  0.61507800  0.03246300  1
  C  34  1  0.98914000  0.59071000  0.99405100  1
  C  35  1  0.94315800  0.61543100  0.95672000  1
  C  36  1  0.93818500  0.66241900  0.95749300  1
  C  37  1  0.98869500  0.99465000  0.83171200  1
  C  38  1  0.86789300  0.99947400  0.80714900  1
  C  39  1  0.86978100  0.99921700  0.76016200  1
  C  40  1  0.99197200  0.99388000  0.73608800  1
  C  41  1  0.11251000  0.98899600  0.76114500  1
  C  42  1  0.11115700  0.98946900  0.80813600  1
  C  43  1  0.99343600  0.99346300  0.68820100  1
  C  44  1  0.91500800  0.02411200  0.66316900  1
  C  45  1  0.91593700  0.02376800  0.61618800  1
  C  46  1  0.99507900  0.99261500  0.59249300  1
  C  47  1  0.07474800  0.96220500  0.61706200  1
  C  48  1  0.07363900  0.96261600  0.66407500  1
  C  49  1  0.98773600  0.16000800  0.99636600  1
  C  50  1  0.11035500  0.18337500  0.99055900  1
  C  51  1  0.11238400  0.23036300  0.98956000  1
  C  52  1  0.99239000  0.25565700  0.99459400  1
  C  53  1  0.87000400  0.23181000  0.00051900  1
  C  54  1  0.86742900  0.18482600  0.00124100  1
  C  55  1  0.99461400  0.30354900  0.99384900  1
  C  56  1  0.91758600  0.32883700  0.02461500  1
  C  57  1  0.91930200  0.37581100  0.02399600  1
  C  58  1  0.99773400  0.39926500  0.99240400  1
  C  59  1  0.07607100  0.37445000  0.96188000  1
  C  60  1  0.07426300  0.32743300  0.96259300  1
  C  61  1  0.97738500  0.99525200  0.16192100  1
  C  62  1  0.09507500  0.00656800  0.18608700  1
  C  63  1  0.85999800  0.98356000  0.18611600  1
  C  64  1  0.86076500  0.98278000  0.23311700  1
  C  65  1  0.97787800  0.99465500  0.25744000  1
  C  66  1  0.09480300  0.00673200  0.23307400  1
  C  67  1  0.97839300  0.99456700  0.30511100  1
  C  68  1  0.02258500  0.03230700  0.32931200  1
  C  69  1  0.02455400  0.03216300  0.37628600  1
  C  70  1  0.98594800  0.99393900  0.40103000  1
  C  71  1  0.94022300  0.95640100  0.37665600  1
  C  72  1  0.93560900  0.95679000  0.32965500  1
  C  115  1  0.99986833  0.44676300  0.99215100  1
  C  116  1  0.11247400  0.47119400  0.00772100  1
  C  117  1  0.11100100  0.51871100  0.00795900  1
  C  118  1  0.99588700  0.54282200  0.99302900  1
  C  119  1  0.88465600  0.51773400  0.97709400  1
  C  120  1  0.88656300  0.47076300  0.97660600  1
  C  122  1  0.33510100  0.51841500  0.03815700  1
  C  123  1  0.33588900  0.47148000  0.03876900  1
  C  129  1  0.56336400  0.44643200  0.02499500  1
  C  134  1  0.99656000  0.99262100  0.54499600  1
  C  135  1  0.10908100  0.00823600  0.52047200  1
  C  136  1  0.10754200  0.00836600  0.47295500  1
  C  137  1  0.99252400  0.99326400  0.44893200  1
  C  138  1  0.88131400  0.97740200  0.47412000  1
  C  139  1  0.88323300  0.97705400  0.52109100  1
  C  141  1  0.33141500  0.03876700  0.47309300  1
  C  142  1  0.33223400  0.03951100  0.52002300  1
  C  148  1  0.56028800  0.02643300  0.54504700  1
  H  73  1  0.91240400  0.92784400  0.39297200  1
  H  74  1  0.90459000  0.92858500  0.31341100  1
  H  75  1  0.05398700  0.06065000  0.39232300  1
  H  76  1  0.05160000  0.06067300  0.31287000  1
  H  77  1  0.18206000  0.01495000  0.24941400  1
  H  78  1  0.18185800  0.01502300  0.16956400  1
  H  79  1  0.77372900  0.97438300  0.24950700  1
  H  80  1  0.77309300  0.97530100  0.16959000  1
  H  81  1  0.97905000  0.90563600  0.14577300  1
  H  82  1  0.97638300  0.84605500  0.08630600  1
  H  83  1  0.97709600  0.96737800  0.02434500  1
  H  84  1  0.98568600  0.02258100  0.96900800  1
  H  85  1  0.97318400  0.08575500  0.14674200  1
  H  86  1  0.97945500  0.14547600  0.08670000  1
  H  87  1  0.19920600  0.16628500  0.98704500  1
  H  88  1  0.20358700  0.24599800  0.98598800  1
  H  89  1  0.77694100  0.16880700  0.00524000  1
  H  90  1  0.78034400  0.24850300  0.00347600  1
  H  91  1  0.98706300  0.14391200  0.90701100  1
  H  92  1  0.98833500  0.08412000  0.84744600  1
  H  93  1  0.98760100  0.84460900  0.90632800  1
  H  94  1  0.99002800  0.90449800  0.84646700  1
  H  95  1  0.77751300  0.00297300  0.82334600  1
  H  96  1  0.77978000  0.00204200  0.74363900  1
  H  97  1  0.20029600  0.98595500  0.82507100  1
  H  98  1  0.20354900  0.98578900  0.74533900  1
  H  99  1  0.13054900  0.93938800  0.68058400  1
  H  100  1  0.13326600  0.93920700  0.60086100  1
  H  101  1  0.86058100  0.04716200  0.59939300  1
  H  102  1  0.85819900  0.04781900  0.67896800  1
  H  103  1  0.18315100  0.82221500  0.01649200  1
  H  104  1  0.18383500  0.74234700  0.01634500  1
  H  105  1  0.90694200  0.67893400  0.92943100  1
  H  106  1  0.91532200  0.59939200  0.92804900  1
  H  107  1  0.05729100  0.59876500  0.06080900  1
  H  108  1  0.05426000  0.67821400  0.06148400  1
  H  109  1  0.77576000  0.74213200  0.97546900  1
  H  110  1  0.77470100  0.82203600  0.97640400  1
  H  111  1  0.86133000  0.31322100  0.04862500  1
  H  112  1  0.86498500  0.39278400  0.04748900  1
  H  113  1  0.13022700  0.31073600  0.93929300  1
  H  114  1  0.13414400  0.39047300  0.93859500  1
  H  125  1  0.41568300  0.53640200  0.04947100  1
  H  126  1  0.80401500  0.45408000  0.96464500  1
  H  127  1  0.79897600  0.53354700  0.96636400  1
  H  130  1  0.41935700  0.41520400  0.06255600  1
  H  131  1  0.60041100  0.48009600  0.01841600  1
  H  132  1  0.53664300  0.43053700  0.99340100  1
  H  133  1  0.64503500  0.42751100  0.04035500  1
  H  144  1  0.41179300  0.05018400  0.45503900  1
  H  145  1  0.80076100  0.96508500  0.53783900  1
  H  146  1  0.79566300  0.96659100  0.45837100  1
  H  149  1  0.41532000  0.06358500  0.57618900  1
  H  150  1  0.59731000  0.01985900  0.51139900  1
  H  151  1  0.53457900  0.99481100  0.56114500  1
  H  152  1  0.64164200  0.04211900  0.56381200  1
  N  4  1  0.97766600  0.94474800  0.04702000  1
  N  8  1  0.98177100  0.04645500  0.04804100  1
  N  14  1  0.98563600  0.04519800  0.94631700  1
  N  20  1  0.98168500  0.94346500  0.94535300  1
  N  121  1  0.22396400  0.53986400  0.02286400  1
  N  124  1  0.22416800  0.45002800  0.02354300  1
  N  128  1  0.44724800  0.44755300  0.05595500  1
  N  140  1  0.22038000  0.02332500  0.45173000  1
  N  143  1  0.22065300  0.02422500  0.54155100  1
  N  147  1  0.44325900  0.05702100  0.54385500  1
