# generated using pymatgen
data_Cu5H20C28(N2O)4
_symmetry_space_group_name_H-M   'P 1'
_cell_length_a   13.10510000
_cell_length_b   19.86511000
_cell_length_c   20.77506000
_cell_angle_alpha   89.98973000
_cell_angle_beta   103.22183000
_cell_angle_gamma   89.95648000
_symmetry_Int_Tables_number   1
_chemical_formula_structural   Cu5H20C28(N2O)4
_chemical_formula_sum   'Cu20 H80 C112 N32 O16'
_cell_volume   5265.08948880
_cell_formula_units_Z   4
loop_
 _symmetry_equiv_pos_site_id
 _symmetry_equiv_pos_as_xyz
  1  'x, y, z'
loop_
 _atom_site_type_symbol
 _atom_site_label
 _atom_site_symmetry_multiplicity
 _atom_site_fract_x
 _atom_site_fract_y
 _atom_site_fract_z
 _atom_site_occupancy
  Cu  Cu0  1  0.93926000  0.41920000  0.38387000  1
  Cu  Cu1  1  0.88420000  0.36984000  0.26712000  1
  Cu  Cu2  1  0.99639000  0.26988000  0.32191000  1
  Cu  Cu3  1  0.09698000  0.33896000  0.41879000  1
  Cu  Cu4  1  0.42465000  0.22102000  0.20047000  1
  Cu  Cu5  1  0.56289000  0.92063000  0.11707000  1
  Cu  Cu6  1  0.61653000  0.86950000  0.23253000  1
  Cu  Cu7  1  0.50710000  0.76747000  0.17991000  1
  Cu  Cu8  1  0.40806000  0.83935000  0.08386000  1
  Cu  Cu9  1  0.07615000  0.72030000  0.29821000  1
  Cu  Cu10  1  0.06073000  0.58081000  0.61613000  1
  Cu  Cu11  1  0.11579000  0.63016000  0.73288000  1
  Cu  Cu12  1  0.00360000  0.73013000  0.67809000  1
  Cu  Cu13  1  0.90301000  0.66104000  0.58121000  1
  Cu  Cu14  1  0.57535000  0.77898000  0.79953000  1
  Cu  Cu15  1  0.43711000  0.07938000  0.88293000  1
  Cu  Cu16  1  0.38346000  0.13051000  0.76747000  1
  Cu  Cu17  1  0.49290000  0.23253000  0.82009000  1
  Cu  Cu18  1  0.59194000  0.16065000  0.91614000  1
  Cu  Cu19  1  0.92384000  0.27971000  0.70179000  1
  H  H20  1  0.76982000  0.14985000  0.50169000  1
  H  H21  1  0.72424000  0.12022000  0.38102000  1
  H  H22  1  0.58501000  0.27913000  0.44432000  1
  H  H23  1  0.71261000  0.34258000  0.53272000  1
  H  H24  1  0.33568000  0.52497000  0.29732000  1
  H  H25  1  0.40514000  0.40845000  0.32914000  1
  H  H26  1  0.23075000  0.44462000  0.15279000  1
  H  H27  1  0.08371000  0.52642000  0.15219000  1
  H  H28  1  0.88834000  0.46690000  0.50149000  1
  H  H29  1  0.86207000  0.41335000  0.56450000  1
  H  H30  1  0.96067000  0.39127000  0.52245000  1
  H  H31  1  0.84091000  0.11491000  0.27730000  1
  H  H32  1  0.73364000  0.17230000  0.26520000  1
  H  H33  1  0.85973000  0.20099000  0.25884000  1
  H  H34  1  0.33697000  0.28517000  0.34864000  1
  H  H35  1  0.38337000  0.31524000  0.43088000  1
  H  H36  1  0.25402000  0.28181000  0.40574000  1
  H  H37  1  0.83508000  0.48241000  0.18020000  1
  H  H38  1  0.91135000  0.51639000  0.25501000  1
  H  H39  1  0.92032000  0.55264000  0.17818000  1
  H  H40  1  0.73176000  0.64876000  0.99839000  1
  H  H41  1  0.77959000  0.61907000  0.11896000  1
  H  H42  1  0.91394000  0.77906000  0.05390000  1
  H  H43  1  0.78507000  0.84254000  0.96596000  1
  H  H44  1  0.16417000  0.02513000  0.20252000  1
  H  H45  1  0.09728000  0.90816000  0.17099000  1
  H  H46  1  0.26979000  0.94328000  0.34702000  1
  H  H47  1  0.41590000  0.02554000  0.34788000  1
  H  H48  1  0.61028000  0.96715000  0.99830000  1
  H  H49  1  0.63567000  0.91356000  0.93494000  1
  H  H50  1  0.53811000  0.89128000  0.97782000  1
  H  H51  1  0.66359000  0.61279000  0.22398000  1
  H  H52  1  0.77059000  0.67007000  0.23573000  1
  H  H53  1  0.64474000  0.69887000  0.24240000  1
  H  H54  1  0.16726000  0.78555000  0.15207000  1
  H  H55  1  0.12039000  0.81552000  0.06989000  1
  H  H56  1  0.24988000  0.78222000  0.09487000  1
  H  H57  1  0.66496000  0.98279000  0.31994000  1
  H  H58  1  0.58866000  0.01684000  0.24513000  1
  H  H59  1  0.57875000  0.05257000  0.32196000  1
  H  H60  1  0.23017000  0.85015000  0.49831000  1
  H  H61  1  0.27576000  0.87979000  0.61898000  1
  H  H62  1  0.41498000  0.72087000  0.55568000  1
  H  H63  1  0.28738000  0.65742000  0.46728000  1
  H  H64  1  0.66431000  0.47504000  0.70268000  1
  H  H65  1  0.59485000  0.59155000  0.67086000  1
  H  H66  1  0.76924000  0.55539000  0.84721000  1
  H  H67  1  0.91629000  0.47359000  0.84781000  1
  H  H68  1  0.11165000  0.53310000  0.49851000  1
  H  H69  1  0.13792000  0.58665000  0.43550000  1
  H  H70  1  0.03932000  0.60873000  0.47754000  1
  H  H71  1  0.15908000  0.88510000  0.72270000  1
  H  H72  1  0.26635000  0.82771000  0.73480000  1
  H  H73  1  0.14026000  0.79902000  0.74116000  1
  H  H74  1  0.66302000  0.71483000  0.65136000  1
  H  H75  1  0.61663000  0.68477000  0.56912000  1
  H  H76  1  0.74598000  0.71820000  0.59426000  1
  H  H77  1  0.16492000  0.51759000  0.81980000  1
  H  H78  1  0.08865000  0.48362000  0.74499000  1
  H  H79  1  0.07968000  0.44737000  0.82182000  1
  H  H80  1  0.26823000  0.35124000  0.00161000  1
  H  H81  1  0.22041000  0.38094000  0.88104000  1
  H  H82  1  0.08606000  0.22094000  0.94610000  1
  H  H83  1  0.21492000  0.15746000  0.03404000  1
  H  H84  1  0.83582000  0.97487000  0.79748000  1
  H  H85  1  0.90272000  0.09184000  0.82901000  1
  H  H86  1  0.73020000  0.05672000  0.65298000  1
  H  H87  1  0.58409000  0.97447000  0.65212000  1
  H  H88  1  0.38971000  0.03285000  0.00170000  1
  H  H89  1  0.36433000  0.08644000  0.06506000  1
  H  H90  1  0.46188000  0.10872000  0.02217000  1
  H  H91  1  0.33641000  0.38722000  0.77602000  1
  H  H92  1  0.22940000  0.32994000  0.76427000  1
  H  H93  1  0.35526000  0.30113000  0.75760000  1
  H  H94  1  0.83273000  0.21445000  0.84793000  1
  H  H95  1  0.87960000  0.18449000  0.93011000  1
  H  H96  1  0.75012000  0.21779000  0.90513000  1
  H  H97  1  0.33504000  0.01721000  0.68006000  1
  H  H98  1  0.41134000  0.98316000  0.75487000  1
  H  H99  1  0.42124000  0.94743000  0.67804000  1
  C  C100  1  0.75045000  0.34395000  0.35261000  1
  C  C101  1  0.66451000  0.30765000  0.36789000  1
  C  C102  1  0.65011000  0.30706000  0.43303000  1
  C  C103  1  0.72036000  0.34230000  0.48175000  1
  C  C104  1  0.80394000  0.37662000  0.46576000  1
  C  C105  1  0.59929000  0.27166000  0.31641000  1
  C  C106  1  0.88250000  0.41412000  0.51633000  1
  C  C107  1  0.95602000  0.24220000  0.44751000  1
  C  C108  1  0.89796000  0.21484000  0.49193000  1
  C  C109  1  0.81391000  0.17053000  0.46788000  1
  C  C110  1  0.78858000  0.15430000  0.40099000  1
  C  C111  1  0.84473000  0.18292000  0.35841000  1
  C  C112  1  0.42260000  0.26525000  0.05722000  1
  C  C113  1  0.81829000  0.16691000  0.28595000  1
  C  C114  1  0.13585000  0.46129000  0.36151000  1
  C  C115  1  0.19434000  0.50827000  0.33214000  1
  C  C116  1  0.29225000  0.48931000  0.32038000  1
  C  C117  1  0.33068000  0.42510000  0.33827000  1
  C  C118  1  0.27327000  0.38078000  0.36825000  1
  C  C119  1  0.34937000  0.07297000  0.18677000  1
  C  C120  1  0.31402000  0.31187000  0.38952000  1
  C  C121  1  0.07500000  0.34995000  0.23090000  1
  C  C122  1  0.16113000  0.36729000  0.20241000  1
  C  C123  1  0.16434000  0.43110000  0.17330000  1
  C  C124  1  0.08268000  0.47623000  0.17278000  1
  C  C125  1  0.99930000  0.45785000  0.20024000  1
  C  C126  1  0.24292000  0.32040000  0.20787000  1
  C  C127  1  0.91142000  0.50506000  0.20311000  1
  C  C128  1  0.74965000  0.84354000  0.14658000  1
  C  C129  1  0.83542000  0.80736000  0.13085000  1
  C  C130  1  0.84906000  0.80698000  0.06555000  1
  C  C131  1  0.77822000  0.84226000  0.01710000  1
  C  C132  1  0.69528000  0.87688000  0.03363000  1
  C  C133  1  0.90139000  0.77132000  0.18205000  1
  C  C134  1  0.61601000  0.91437000  0.98336000  1
  C  C135  1  0.54727000  0.74094000  0.05431000  1
  C  C136  1  0.60385000  0.71339000  0.00915000  1
  C  C137  1  0.68807000  0.66906000  0.03262000  1
  C  C138  1  0.71449000  0.65274000  0.09951000  1
  C  C139  1  0.65890000  0.68086000  0.14268000  1
  C  C140  1  0.07664000  0.76403000  0.44163000  1
  C  C141  1  0.68595000  0.66476000  0.21514000  1
  C  C142  1  0.36702000  0.96215000  0.14037000  1
  C  C143  1  0.30694000  0.00897000  0.16888000  1
  C  C144  1  0.20879000  0.98966000  0.18001000  1
  C  C145  1  0.17156000  0.92528000  0.16204000  1
  C  C146  1  0.23009000  0.88121000  0.13256000  1
  C  C147  1  0.15052000  0.57185000  0.31363000  1
  C  C148  1  0.18990000  0.81228000  0.11112000  1
  C  C149  1  0.42746000  0.84899000  0.26980000  1
  C  C150  1  0.34072000  0.86609000  0.29782000  1
  C  C151  1  0.33646000  0.92994000  0.32667000  1
  C  C152  1  0.41758000  0.97540000  0.32729000  1
  C  C153  1  0.50111000  0.95754000  0.29971000  1
  C  C154  1  0.25926000  0.81896000  0.29211000  1
  C  C155  1  0.58840000  0.00519000  0.29694000  1
  C  C156  1  0.24955000  0.65605000  0.64739000  1
  C  C157  1  0.33548000  0.69235000  0.63211000  1
  C  C158  1  0.34989000  0.69294000  0.56697000  1
  C  C159  1  0.27963000  0.65770000  0.51825000  1
  C  C160  1  0.19605000  0.62338000  0.53424000  1
  C  C161  1  0.40070000  0.72834000  0.68359000  1
  C  C162  1  0.11749000  0.58588000  0.48367000  1
  C  C163  1  0.04397000  0.75780000  0.55249000  1
  C  C164  1  0.10203000  0.78516000  0.50807000  1
  C  C165  1  0.18609000  0.82947000  0.53212000  1
  C  C166  1  0.21141000  0.84570000  0.59901000  1
  C  C167  1  0.15527000  0.81708000  0.64159000  1
  C  C168  1  0.57739000  0.73475000  0.94278000  1
  C  C169  1  0.18170000  0.83309000  0.71405000  1
  C  C170  1  0.86414000  0.53871000  0.63849000  1
  C  C171  1  0.80565000  0.49173000  0.66785000  1
  C  C172  1  0.70775000  0.51070000  0.67962000  1
  C  C173  1  0.66932000  0.57490000  0.66173000  1
  C  C174  1  0.72673000  0.61922000  0.63175000  1
  C  C175  1  0.65062000  0.92704000  0.81323000  1
  C  C176  1  0.68597000  0.68814000  0.61048000  1
  C  C177  1  0.92499000  0.65005000  0.76910000  1
  C  C178  1  0.83887000  0.63271000  0.79759000  1
  C  C179  1  0.83565000  0.56890000  0.82670000  1
  C  C180  1  0.91731000  0.52378000  0.82722000  1
  C  C181  1  0.00070000  0.54216000  0.79976000  1
  C  C182  1  0.75707000  0.67961000  0.79213000  1
  C  C183  1  0.08857000  0.49494000  0.79689000  1
  C  C184  1  0.25034000  0.15646000  0.85342000  1
  C  C185  1  0.16457000  0.19264000  0.86915000  1
  C  C186  1  0.15094000  0.19303000  0.93445000  1
  C  C187  1  0.22177000  0.15774000  0.98290000  1
  C  C188  1  0.30471000  0.12313000  0.96637000  1
  C  C189  1  0.09861000  0.22868000  0.81795000  1
  C  C190  1  0.38398000  0.08564000  0.01664000  1
  C  C191  1  0.45273000  0.25907000  0.94569000  1
  C  C192  1  0.39614000  0.28661000  0.99085000  1
  C  C193  1  0.31192000  0.33095000  0.96738000  1
  C  C194  1  0.28550000  0.34726000  0.90049000  1
  C  C195  1  0.34110000  0.31914000  0.85732000  1
  C  C196  1  0.92335000  0.23597000  0.55837000  1
  C  C197  1  0.31405000  0.33525000  0.78486000  1
  C  C198  1  0.63298000  0.03785000  0.85963000  1
  C  C199  1  0.69305000  0.99103000  0.83112000  1
  C  C200  1  0.79121000  0.01034000  0.81999000  1
  C  C201  1  0.82844000  0.07473000  0.83796000  1
  C  C202  1  0.76991000  0.11879000  0.86744000  1
  C  C203  1  0.84948000  0.42815000  0.68637000  1
  C  C204  1  0.81010000  0.18773000  0.88888000  1
  C  C205  1  0.57254000  0.15102000  0.73020000  1
  C  C206  1  0.65928000  0.13391000  0.70218000  1
  C  C207  1  0.66354000  0.07006000  0.67333000  1
  C  C208  1  0.58241000  0.02460000  0.67271000  1
  C  C209  1  0.49888000  0.04247000  0.70029000  1
  C  C210  1  0.74073000  0.18104000  0.70789000  1
  C  C211  1  0.41159000  0.99482000  0.70306000  1
  N  N212  1  0.54545000  0.24105000  0.27343000  1
  N  N213  1  0.81824000  0.37746000  0.40224000  1
  N  N214  1  0.44084000  0.24775000  0.11260000  1
  N  N215  1  0.92701000  0.22587000  0.38151000  1
  N  N216  1  0.38283000  0.12710000  0.20103000  1
  N  N217  1  0.17837000  0.39922000  0.38042000  1
  N  N218  1  0.31235000  0.28202000  0.21280000  1
  N  N219  1  0.99498000  0.39523000  0.22764000  1
  N  N220  1  0.95599000  0.74088000  0.22487000  1
  N  N221  1  0.68205000  0.87778000  0.09736000  1
  N  N222  1  0.05924000  0.74678000  0.38619000  1
  N  N223  1  0.57648000  0.72390000  0.12010000  1
  N  N224  1  0.11641000  0.62573000  0.29854000  1
  N  N225  1  0.32551000  0.89987000  0.12130000  1
  N  N226  1  0.19001000  0.78052000  0.28692000  1
  N  N227  1  0.50633000  0.89491000  0.27248000  1
  N  N228  1  0.45454000  0.75895000  0.72657000  1
  N  N229  1  0.18176000  0.62255000  0.59776000  1
  N  N230  1  0.55915000  0.75226000  0.88740000  1
  N  N231  1  0.07298000  0.77413000  0.61849000  1
  N  N232  1  0.61716000  0.87291000  0.79897000  1
  N  N233  1  0.82162000  0.60078000  0.61958000  1
  N  N234  1  0.68764000  0.71798000  0.78720000  1
  N  N235  1  0.00501000  0.60477000  0.77236000  1
  N  N236  1  0.04401000  0.25912000  0.77513000  1
  N  N237  1  0.31795000  0.12222000  0.90264000  1
  N  N238  1  0.94075000  0.25322000  0.61381000  1
  N  N239  1  0.42351000  0.27611000  0.87990000  1
  N  N240  1  0.88359000  0.37427000  0.70146000  1
  N  N241  1  0.67449000  0.10013000  0.87870000  1
  N  N242  1  0.80999000  0.21949000  0.71308000  1
  N  N243  1  0.49367000  0.10510000  0.72751000  1
  O  O244  1  0.76253000  0.34360000  0.29254000  1
  O  O245  1  0.03439000  0.28184000  0.47010000  1
  O  O246  1  0.04450000  0.47802000  0.37006000  1
  O  O247  1  0.07488000  0.29238000  0.25977000  1
  O  O248  1  0.73746000  0.84242000  0.20659000  1
  O  O249  1  0.46979000  0.78143000  0.03252000  1
  O  O250  1  0.45883000  0.97936000  0.13285000  1
  O  O251  1  0.42933000  0.79088000  0.24212000  1
  O  O252  1  0.23747000  0.65641000  0.70746000  1
  O  O253  1  0.96561000  0.71816000  0.52990000  1
  O  O254  1  0.95550000  0.52199000  0.62994000  1
  O  O255  1  0.92511000  0.70762000  0.74023000  1
  O  O256  1  0.26253000  0.15758000  0.79341000  1
  O  O257  1  0.53021000  0.21857000  0.96748000  1
  O  O258  1  0.54116000  0.02065000  0.86715000  1
  O  O259  1  0.57066000  0.20912000  0.75788000  1
