# generated using pymatgen
data_Ca3Si2H34(C7O2)8
_symmetry_space_group_name_H-M   'P 1'
_cell_length_a   13.66910000
_cell_length_b   14.56900000
_cell_length_c   23.68740000
_cell_angle_alpha   90.00000000
_cell_angle_beta   90.00000000
_cell_angle_gamma   114.93900000
_symmetry_Int_Tables_number   1
_chemical_formula_structural   Ca3Si2H34(C7O2)8
_chemical_formula_sum   'Ca6 Si4 H68 C112 O32'
_cell_volume   4277.38239315
_cell_formula_units_Z   2
loop_
 _symmetry_equiv_pos_site_id
 _symmetry_equiv_pos_as_xyz
  1  'x, y, z'
loop_
 _atom_site_type_symbol
 _atom_site_label
 _atom_site_symmetry_multiplicity
 _atom_site_fract_x
 _atom_site_fract_y
 _atom_site_fract_z
 _atom_site_occupancy
  Ca  Ca1  1  0.01577000  0.00132000  0.65686000  1.0
  Ca  Ca2  1  0.98423000  0.49868000  0.15686000  1.0
  Ca  Ca3  1  0.98423000  0.99868000  0.34314000  1.0
  Ca  Ca4  1  0.01577000  0.50132000  0.84314000  1.0
  Ca  Ca5  1  0.00000000  0.00000000  0.50000000  1.0
  Ca  Ca6  1  0.00000000  0.50000000  0.00000000  1.0
  Si  Si1  1  0.70684000  0.37959000  0.50911000  1.0
  Si  Si2  1  0.29316000  0.12041000  0.00911000  1.0
  Si  Si3  1  0.29316000  0.62041000  0.49089000  1.0
  Si  Si4  1  0.70684000  0.87959000  0.99089000  1.0
  H  H1  1  0.87400000  0.41740000  0.59970000  1.0
  H  H2  1  0.96760000  0.32760000  0.63460000  1.0
  H  H3  1  0.81910000  0.10630000  0.51970000  1.0
  H  H4  1  0.72610000  0.19600000  0.48510000  1.0
  H  H5  1  0.58910000  0.20750000  0.58360000  1.0
  H  H6  1  0.40990000  0.11400000  0.61030000  1.0
  H  H7  1  0.31930000  0.28710000  0.50770000  1.0
  H  H8  1  0.49940000  0.38850000  0.48760000  1.0
  H  H9  1  0.88790000  0.57130000  0.48020000  1.0
  H  H10  1  0.95980000  0.73670000  0.51310000  1.0
  H  H11  1  0.71820000  0.66040000  0.62690000  1.0
  H  H12  1  0.64590000  0.49430000  0.59340000  1.0
  H  H13  1  0.56420000  0.31990000  0.40580000  1.0
  H  H14  1  0.59530000  0.32690000  0.30840000  1.0
  H  H15  1  0.91670000  0.43700000  0.33720000  1.0
  H  H16  1  0.88530000  0.42610000  0.43390000  1.0
  H  H17  1  0.72900000  0.37700000  0.18240000  1.0
  H  H18  1  0.12600000  0.08260000  0.09970000  1.0
  H  H19  1  0.03240000  0.17240000  0.13460000  1.0
  H  H20  1  0.18090000  0.39370000  0.01970000  1.0
  H  H21  1  0.27390000  0.30400000  0.98510000  1.0
  H  H22  1  0.41090000  0.29250000  0.08360000  1.0
  H  H23  1  0.59010000  0.38600000  0.11030000  1.0
  H  H24  1  0.68070000  0.21290000  0.00770000  1.0
  H  H25  1  0.50060000  0.11150000  0.98760000  1.0
  H  H26  1  0.11210000  0.92870000  0.98020000  1.0
  H  H27  1  0.04020000  0.76330000  0.01310000  1.0
  H  H28  1  0.28180000  0.83960000  0.12690000  1.0
  H  H29  1  0.35410000  0.00570000  0.09340000  1.0
  H  H30  1  0.43580000  0.18010000  0.90580000  1.0
  H  H31  1  0.40470000  0.17310000  0.80840000  1.0
  H  H32  1  0.08330000  0.06300000  0.83720000  1.0
  H  H33  1  0.11470000  0.07390000  0.93390000  1.0
  H  H34  1  0.27100000  0.12300000  0.68240000  1.0
  H  H35  1  0.12600000  0.58260000  0.40030000  1.0
  H  H36  1  0.03240000  0.67240000  0.36540000  1.0
  H  H37  1  0.18090000  0.89370000  0.48030000  1.0
  H  H38  1  0.27390000  0.80400000  0.51490000  1.0
  H  H39  1  0.41090000  0.79250000  0.41640000  1.0
  H  H40  1  0.59010000  0.88600000  0.38970000  1.0
  H  H41  1  0.68070000  0.71290000  0.49230000  1.0
  H  H42  1  0.50060000  0.61150000  0.51240000  1.0
  H  H43  1  0.11210000  0.42870000  0.51980000  1.0
  H  H44  1  0.04020000  0.26330000  0.48690000  1.0
  H  H45  1  0.28180000  0.33960000  0.37310000  1.0
  H  H46  1  0.35410000  0.50570000  0.40660000  1.0
  H  H47  1  0.43580000  0.68010000  0.59420000  1.0
  H  H48  1  0.40470000  0.67310000  0.69160000  1.0
  H  H49  1  0.08330000  0.56300000  0.66280000  1.0
  H  H50  1  0.11470000  0.57390000  0.56610000  1.0
  H  H51  1  0.27100000  0.62300000  0.81760000  1.0
  H  H52  1  0.87400000  0.91740000  0.90030000  1.0
  H  H53  1  0.96760000  0.82760000  0.86540000  1.0
  H  H54  1  0.81910000  0.60630000  0.98030000  1.0
  H  H55  1  0.72610000  0.69600000  0.01490000  1.0
  H  H56  1  0.58910000  0.70750000  0.91640000  1.0
  H  H57  1  0.40990000  0.61400000  0.88970000  1.0
  H  H58  1  0.31930000  0.78710000  0.99230000  1.0
  H  H59  1  0.49940000  0.88850000  0.01240000  1.0
  H  H60  1  0.88790000  0.07130000  0.01980000  1.0
  H  H61  1  0.95980000  0.23670000  0.98690000  1.0
  H  H62  1  0.71820000  0.16040000  0.87310000  1.0
  H  H63  1  0.64590000  0.99430000  0.90660000  1.0
  H  H64  1  0.56420000  0.81990000  0.09420000  1.0
  H  H65  1  0.59530000  0.82690000  0.19160000  1.0
  H  H66  1  0.91670000  0.93700000  0.16280000  1.0
  H  H67  1  0.88530000  0.92610000  0.06610000  1.0
  H  H68  1  0.72900000  0.87700000  0.31760000  1.0
  C  C1  1  0.78938000  0.31632000  0.53890000  1.0
  C  C2  1  0.86220000  0.35405000  0.58338000  1.0
  C  C3  1  0.91800000  0.30055000  0.60433000  1.0
  C  C4  1  0.90125000  0.20763000  0.58109000  1.0
  C  C5  1  0.83000000  0.16930000  0.53626000  1.0
  C  C6  1  0.77488000  0.22299000  0.51569000  1.0
  C  C7  1  0.95848000  0.14699000  0.60336000  1.0
  C  C8  1  0.56374000  0.30735000  0.53164000  1.0
  C  C9  1  0.53458000  0.22471000  0.56864000  1.0
  C  C10  1  0.42751000  0.16756000  0.58380000  1.0
  C  C11  1  0.34662000  0.18880000  0.56021000  1.0
  C  C12  1  0.37420000  0.27147000  0.52376000  1.0
  C  C13  1  0.48148000  0.33065000  0.51101000  1.0
  C  C14  1  0.23049000  0.12182000  0.57081000  1.0
  C  C15  1  0.75982000  0.51416000  0.53358000  1.0
  C  C16  1  0.85299000  0.58866000  0.51026000  1.0
  C  C17  1  0.89603000  0.68752000  0.52981000  1.0
  C  C18  1  0.84677000  0.71492000  0.57340000  1.0
  C  C19  1  0.75311000  0.64238000  0.59706000  1.0
  C  C20  1  0.71026000  0.54314000  0.57707000  1.0
  C  C21  1  0.89550000  0.82153000  0.59516000  1.0
  C  C22  1  0.72130000  0.37556000  0.43041000  1.0
  C  C23  1  0.63611000  0.34430000  0.39211000  1.0
  C  C24  1  0.65431000  0.34815000  0.33399000  1.0
  C  C25  1  0.75899000  0.38317000  0.31374000  1.0
  C  C26  1  0.84501000  0.41295000  0.35112000  1.0
  C  C27  1  0.82617000  0.40764000  0.40858000  1.0
  C  C28  1  0.78519000  0.39190000  0.25247000  1.0
  C  C29  1  0.21062000  0.18368000  0.03890000  1.0
  C  C30  1  0.13780000  0.14595000  0.08338000  1.0
  C  C31  1  0.08200000  0.19945000  0.10433000  1.0
  C  C32  1  0.09875000  0.29237000  0.08109000  1.0
  C  C33  1  0.17000000  0.33070000  0.03626000  1.0
  C  C34  1  0.22512000  0.27701000  0.01569000  1.0
  C  C35  1  0.04152000  0.35301000  0.10336000  1.0
  C  C36  1  0.43626000  0.19265000  0.03164000  1.0
  C  C37  1  0.46542000  0.27529000  0.06864000  1.0
  C  C38  1  0.57249000  0.33244000  0.08380000  1.0
  C  C39  1  0.65338000  0.31120000  0.06021000  1.0
  C  C40  1  0.62580000  0.22853000  0.02376000  1.0
  C  C41  1  0.51852000  0.16935000  0.01101000  1.0
  C  C42  1  0.76951000  0.37818000  0.07081000  1.0
  C  C43  1  0.24018000  0.98584000  0.03358000  1.0
  C  C44  1  0.14701000  0.91134000  0.01026000  1.0
  C  C45  1  0.10397000  0.81248000  0.02981000  1.0
  C  C46  1  0.15323000  0.78508000  0.07340000  1.0
  C  C47  1  0.24689000  0.85762000  0.09706000  1.0
  C  C48  1  0.28974000  0.95686000  0.07707000  1.0
  C  C49  1  0.10450000  0.67847000  0.09516000  1.0
  C  C50  1  0.27870000  0.12444000  0.93041000  1.0
  C  C51  1  0.36389000  0.15570000  0.89211000  1.0
  C  C52  1  0.34569000  0.15185000  0.83399000  1.0
  C  C53  1  0.24101000  0.11683000  0.81374000  1.0
  C  C54  1  0.15499000  0.08705000  0.85112000  1.0
  C  C55  1  0.17383000  0.09236000  0.90858000  1.0
  C  C56  1  0.21481000  0.10810000  0.75247000  1.0
  C  C57  1  0.21062000  0.68368000  0.46110000  1.0
  C  C58  1  0.13780000  0.64595000  0.41662000  1.0
  C  C59  1  0.08200000  0.69945000  0.39567000  1.0
  C  C60  1  0.09875000  0.79237000  0.41891000  1.0
  C  C61  1  0.17000000  0.83070000  0.46374000  1.0
  C  C62  1  0.22512000  0.77701000  0.48431000  1.0
  C  C63  1  0.04152000  0.85301000  0.39664000  1.0
  C  C64  1  0.43626000  0.69265000  0.46836000  1.0
  C  C65  1  0.46542000  0.77529000  0.43136000  1.0
  C  C66  1  0.57249000  0.83244000  0.41620000  1.0
  C  C67  1  0.65338000  0.81120000  0.43979000  1.0
  C  C68  1  0.62580000  0.72853000  0.47624000  1.0
  C  C69  1  0.51852000  0.66935000  0.48899000  1.0
  C  C70  1  0.76951000  0.87818000  0.42919000  1.0
  C  C71  1  0.24018000  0.48584000  0.46642000  1.0
  C  C72  1  0.14701000  0.41134000  0.48974000  1.0
  C  C73  1  0.10397000  0.31248000  0.47019000  1.0
  C  C74  1  0.15323000  0.28508000  0.42660000  1.0
  C  C75  1  0.24689000  0.35762000  0.40294000  1.0
  C  C76  1  0.28974000  0.45686000  0.42293000  1.0
  C  C77  1  0.10450000  0.17847000  0.40484000  1.0
  C  C78  1  0.27870000  0.62444000  0.56959000  1.0
  C  C79  1  0.36389000  0.65570000  0.60789000  1.0
  C  C80  1  0.34569000  0.65185000  0.66601000  1.0
  C  C81  1  0.24101000  0.61683000  0.68626000  1.0
  C  C82  1  0.15499000  0.58705000  0.64888000  1.0
  C  C83  1  0.17383000  0.59236000  0.59142000  1.0
  C  C84  1  0.21481000  0.60810000  0.74753000  1.0
  C  C85  1  0.78938000  0.81632000  0.96110000  1.0
  C  C86  1  0.86220000  0.85405000  0.91662000  1.0
  C  C87  1  0.91800000  0.80055000  0.89567000  1.0
  C  C88  1  0.90125000  0.70763000  0.91891000  1.0
  C  C89  1  0.83000000  0.66930000  0.96374000  1.0
  C  C90  1  0.77488000  0.72299000  0.98431000  1.0
  C  C91  1  0.95848000  0.64699000  0.89664000  1.0
  C  C92  1  0.56374000  0.80735000  0.96836000  1.0
  C  C93  1  0.53458000  0.72471000  0.93136000  1.0
  C  C94  1  0.42751000  0.66756000  0.91620000  1.0
  C  C95  1  0.34662000  0.68880000  0.93979000  1.0
  C  C96  1  0.37420000  0.77147000  0.97624000  1.0
  C  C97  1  0.48148000  0.83065000  0.98899000  1.0
  C  C98  1  0.23049000  0.62182000  0.92919000  1.0
  C  C99  1  0.75982000  0.01416000  0.96642000  1.0
  C  C100  1  0.85299000  0.08866000  0.98974000  1.0
  C  C101  1  0.89603000  0.18752000  0.97019000  1.0
  C  C102  1  0.84677000  0.21492000  0.92660000  1.0
  C  C103  1  0.75311000  0.14238000  0.90294000  1.0
  C  C104  1  0.71026000  0.04314000  0.92293000  1.0
  C  C105  1  0.89550000  0.32153000  0.90484000  1.0
  C  C106  1  0.72130000  0.87556000  0.06959000  1.0
  C  C107  1  0.63611000  0.84430000  0.10789000  1.0
  C  C108  1  0.65431000  0.84815000  0.16601000  1.0
  C  C109  1  0.75899000  0.88317000  0.18626000  1.0
  C  C110  1  0.84501000  0.91295000  0.14888000  1.0
  C  C111  1  0.82617000  0.90764000  0.09142000  1.0
  C  C112  1  0.78519000  0.89190000  0.24753000  1.0
  O  O1  1  0.01316000  0.17290000  0.64744000  1.0
  O  O2  1  0.94679000  0.06745000  0.57669000  1.0
  O  O3  1  0.16900000  0.10199000  0.52915000  1.0
  O  O4  1  0.19985000  0.08789000  0.62017000  1.0
  O  O5  1  0.85183000  0.84496000  0.63586000  1.0
  O  O6  1  0.98213000  0.88459000  0.57228000  1.0
  O  O7  1  0.87741000  0.41743000  0.23617000  1.0
  O  O8  1  0.70335000  0.37141000  0.21792000  1.0
  O  O9  1  0.98684000  0.32710000  0.14744000  1.0
  O  O10  1  0.05321000  0.43255000  0.07669000  1.0
  O  O11  1  0.83100000  0.39801000  0.02915000  1.0
  O  O12  1  0.80015000  0.41211000  0.12017000  1.0
  O  O13  1  0.14817000  0.65504000  0.13586000  1.0
  O  O14  1  0.01787000  0.61541000  0.07228000  1.0
  O  O15  1  0.12259000  0.08257000  0.73617000  1.0
  O  O16  1  0.29665000  0.12859000  0.71792000  1.0
  O  O17  1  0.98684000  0.82710000  0.35256000  1.0
  O  O18  1  0.05321000  0.93255000  0.42331000  1.0
  O  O19  1  0.83100000  0.89801000  0.47085000  1.0
  O  O20  1  0.80015000  0.91211000  0.37983000  1.0
  O  O21  1  0.14817000  0.15504000  0.36414000  1.0
  O  O22  1  0.01787000  0.11541000  0.42772000  1.0
  O  O23  1  0.12259000  0.58257000  0.76383000  1.0
  O  O24  1  0.29665000  0.62859000  0.78208000  1.0
  O  O25  1  0.01316000  0.67290000  0.85256000  1.0
  O  O26  1  0.94679000  0.56745000  0.92331000  1.0
  O  O27  1  0.16900000  0.60199000  0.97085000  1.0
  O  O28  1  0.19985000  0.58789000  0.87983000  1.0
  O  O29  1  0.85183000  0.34496000  0.86414000  1.0
  O  O30  1  0.98213000  0.38459000  0.92772000  1.0
  O  O31  1  0.87741000  0.91743000  0.26383000  1.0
  O  O32  1  0.70335000  0.87141000  0.28208000  1.0
