# generated using pymatgen
data_SmH5C14(NO4)2
_symmetry_space_group_name_H-M   'P 1'
_cell_length_a   12.06480000
_cell_length_b   12.37870000
_cell_length_c   12.51480000
_cell_angle_alpha   90.00000000
_cell_angle_beta   90.00000000
_cell_angle_gamma   115.06900000
_symmetry_Int_Tables_number   1
_chemical_formula_structural   SmH5C14(NO4)2
_chemical_formula_sum   'Sm4 H20 C56 N8 O32'
_cell_volume   1692.97491139
_cell_formula_units_Z   4
loop_
 _symmetry_equiv_pos_site_id
 _symmetry_equiv_pos_as_xyz
  1  'x, y, z'
loop_
 _atom_site_type_symbol
 _atom_site_label
 _atom_site_symmetry_multiplicity
 _atom_site_fract_x
 _atom_site_fract_y
 _atom_site_fract_z
 _atom_site_occupancy
  Sm  Sm1  1  0.04033000  0.35483000  0.55075000  1.0
  Sm  Sm2  1  0.95967000  0.14517000  0.05075000  1.0
  Sm  Sm3  1  0.95967000  0.64517000  0.44925000  1.0
  Sm  Sm4  1  0.04033000  0.85483000  0.94925000  1.0
  H  H1  1  0.12960000  0.17220000  0.71760000  1.0
  H  H2  1  0.56630000  0.24880000  0.64560000  1.0
  H  H3  1  0.69950000  0.07490000  0.83850000  1.0
  H  H4  1  0.40450000  0.17230000  0.71770000  1.0
  H  H5  1  0.51210000  0.94780000  0.87010000  1.0
  H  H6  1  0.87040000  0.32780000  0.21760000  1.0
  H  H7  1  0.43370000  0.25120000  0.14560000  1.0
  H  H8  1  0.30050000  0.42510000  0.33850000  1.0
  H  H9  1  0.59550000  0.32770000  0.21770000  1.0
  H  H10  1  0.48790000  0.55220000  0.37010000  1.0
  H  H11  1  0.87040000  0.82780000  0.28240000  1.0
  H  H12  1  0.43370000  0.75120000  0.35440000  1.0
  H  H13  1  0.30050000  0.92510000  0.16150000  1.0
  H  H14  1  0.59550000  0.82770000  0.28230000  1.0
  H  H15  1  0.48790000  0.05220000  0.12990000  1.0
  H  H16  1  0.12960000  0.67220000  0.78240000  1.0
  H  H17  1  0.56630000  0.74880000  0.85440000  1.0
  H  H18  1  0.69950000  0.57490000  0.66150000  1.0
  H  H19  1  0.40450000  0.67230000  0.78230000  1.0
  H  H20  1  0.51210000  0.44780000  0.62990000  1.0
  C  C1  1  0.77580000  0.39370000  0.55230000  1.0
  C  C2  1  0.93510000  0.17990000  0.77280000  1.0
  C  C3  1  0.16450000  0.05920000  0.76890000  1.0
  C  C4  1  0.29160000  0.80070000  0.95540000  1.0
  C  C5  1  0.74690000  0.29480000  0.62940000  1.0
  C  C6  1  0.63010000  0.23220000  0.67020000  1.0
  C  C7  1  0.60780000  0.14540000  0.74690000  1.0
  C  C8  1  0.70870000  0.12920000  0.78410000  1.0
  C  C9  1  0.82150000  0.19390000  0.73970000  1.0
  C  C10  1  0.27190000  0.03350000  0.79220000  1.0
  C  C11  1  0.38860000  0.10450000  0.75850000  1.0
  C  C12  1  0.48220000  0.07330000  0.78610000  1.0
  C  C13  1  0.45190000  0.97170000  0.84930000  1.0
  C  C14  1  0.33230000  0.90710000  0.88070000  1.0
  C  C15  1  0.22420000  0.10630000  0.05230000  1.0
  C  C16  1  0.06490000  0.32010000  0.27280000  1.0
  C  C17  1  0.83550000  0.44080000  0.26890000  1.0
  C  C18  1  0.70840000  0.69930000  0.45540000  1.0
  C  C19  1  0.25310000  0.20520000  0.12940000  1.0
  C  C20  1  0.36990000  0.26780000  0.17020000  1.0
  C  C21  1  0.39220000  0.35460000  0.24690000  1.0
  C  C22  1  0.29130000  0.37080000  0.28410000  1.0
  C  C23  1  0.17850000  0.30610000  0.23970000  1.0
  C  C24  1  0.72810000  0.46650000  0.29220000  1.0
  C  C25  1  0.61140000  0.39550000  0.25850000  1.0
  C  C26  1  0.51780000  0.42670000  0.28610000  1.0
  C  C27  1  0.54810000  0.52830000  0.34930000  1.0
  C  C28  1  0.66770000  0.59290000  0.38070000  1.0
  C  C29  1  0.22420000  0.60630000  0.44770000  1.0
  C  C30  1  0.06490000  0.82010000  0.22720000  1.0
  C  C31  1  0.83550000  0.94080000  0.23110000  1.0
  C  C32  1  0.70840000  0.19930000  0.04460000  1.0
  C  C33  1  0.25310000  0.70520000  0.37060000  1.0
  C  C34  1  0.36990000  0.76780000  0.32980000  1.0
  C  C35  1  0.39220000  0.85460000  0.25310000  1.0
  C  C36  1  0.29130000  0.87080000  0.21590000  1.0
  C  C37  1  0.17850000  0.80610000  0.26030000  1.0
  C  C38  1  0.72810000  0.96650000  0.20780000  1.0
  C  C39  1  0.61140000  0.89550000  0.24150000  1.0
  C  C40  1  0.51780000  0.92670000  0.21390000  1.0
  C  C41  1  0.54810000  0.02830000  0.15070000  1.0
  C  C42  1  0.66770000  0.09290000  0.11930000  1.0
  C  C43  1  0.77580000  0.89370000  0.94770000  1.0
  C  C44  1  0.93510000  0.67990000  0.72720000  1.0
  C  C45  1  0.16450000  0.55920000  0.73110000  1.0
  C  C46  1  0.29160000  0.30070000  0.54460000  1.0
  C  C47  1  0.74690000  0.79480000  0.87060000  1.0
  C  C48  1  0.63010000  0.73220000  0.82980000  1.0
  C  C49  1  0.60780000  0.64540000  0.75310000  1.0
  C  C50  1  0.70870000  0.62920000  0.71590000  1.0
  C  C51  1  0.82150000  0.69390000  0.76030000  1.0
  C  C52  1  0.27190000  0.53350000  0.70780000  1.0
  C  C53  1  0.38860000  0.60450000  0.74150000  1.0
  C  C54  1  0.48220000  0.57330000  0.71390000  1.0
  C  C55  1  0.45190000  0.47170000  0.65070000  1.0
  C  C56  1  0.33230000  0.40710000  0.61930000  1.0
  N  N1  1  0.84120000  0.27280000  0.66020000  1.0
  N  N2  1  0.24280000  0.93690000  0.85180000  1.0
  N  N3  1  0.15880000  0.22720000  0.16020000  1.0
  N  N4  1  0.75720000  0.56310000  0.35180000  1.0
  N  N5  1  0.15880000  0.72720000  0.33980000  1.0
  N  N6  1  0.75720000  0.06310000  0.14820000  1.0
  N  N7  1  0.84120000  0.77280000  0.83980000  1.0
  N  N8  1  0.24280000  0.43690000  0.64820000  1.0
  O  O1  1  0.88130000  0.42920000  0.50470000  1.0
  O  O2  1  0.70530000  0.43890000  0.54050000  1.0
  O  O3  1  0.02110000  0.21950000  0.70400000  1.0
  O  O4  1  0.93870000  0.13570000  0.85980000  1.0
  O  O5  1  0.06090000  0.98450000  0.78520000  1.0
  O  O6  1  0.19250000  0.16490000  0.73180000  1.0
  O  O7  1  0.18140000  0.76310000  0.98770000  1.0
  O  O8  1  0.36630000  0.76140000  0.97780000  1.0
  O  O9  1  0.11870000  0.07080000  0.00470000  1.0
  O  O10  1  0.29470000  0.06110000  0.04050000  1.0
  O  O11  1  0.97890000  0.28050000  0.20400000  1.0
  O  O12  1  0.06130000  0.36430000  0.35980000  1.0
  O  O13  1  0.93910000  0.51550000  0.28520000  1.0
  O  O14  1  0.80750000  0.33510000  0.23180000  1.0
  O  O15  1  0.81860000  0.73690000  0.48770000  1.0
  O  O16  1  0.63370000  0.73860000  0.47780000  1.0
  O  O17  1  0.11870000  0.57080000  0.49530000  1.0
  O  O18  1  0.29470000  0.56110000  0.45950000  1.0
  O  O19  1  0.97890000  0.78050000  0.29600000  1.0
  O  O20  1  0.06130000  0.86430000  0.14020000  1.0
  O  O21  1  0.93910000  0.01550000  0.21480000  1.0
  O  O22  1  0.80750000  0.83510000  0.26820000  1.0
  O  O23  1  0.81860000  0.23690000  0.01230000  1.0
  O  O24  1  0.63370000  0.23860000  0.02220000  1.0
  O  O25  1  0.88130000  0.92920000  0.99530000  1.0
  O  O26  1  0.70530000  0.93890000  0.95950000  1.0
  O  O27  1  0.02110000  0.71950000  0.79600000  1.0
  O  O28  1  0.93870000  0.63570000  0.64020000  1.0
  O  O29  1  0.06090000  0.48450000  0.71480000  1.0
  O  O30  1  0.19250000  0.66490000  0.76820000  1.0
  O  O31  1  0.18140000  0.26310000  0.51230000  1.0
  O  O32  1  0.36630000  0.26140000  0.52220000  1.0
