# generated using pymatgen
data_H24C35N4
_symmetry_space_group_name_H-M   'P 1'
_cell_length_a   25.96222500
_cell_length_b   25.96225000
_cell_length_c   37.84152371
_cell_angle_alpha   90.03245874
_cell_angle_beta   89.96541949
_cell_angle_gamma   59.99990444
_symmetry_Int_Tables_number   1
_chemical_formula_structural   H24C35N4
_chemical_formula_sum   'H144 C210 N24'
_cell_volume   22089.34144093
_cell_formula_units_Z   6
loop_
 _symmetry_equiv_pos_site_id
 _symmetry_equiv_pos_as_xyz
  1  'x, y, z'
loop_
 _atom_site_type_symbol
 _atom_site_label
 _atom_site_symmetry_multiplicity
 _atom_site_fract_x
 _atom_site_fract_y
 _atom_site_fract_z
 _atom_site_occupancy
  C  1  1  0.75093600  0.96421800  0.92234500  1
  C  2  1  0.68947400  0.98428550  0.92409600  1
  C  3  1  0.65523400  0.99927650  0.89331100  1
  C  4  1  0.67978600  0.99744050  0.85943500  1
  C  5  1  0.74035000  0.98321700  0.85869900  1
  C  6  1  0.77565300  0.96638850  0.88957700  1
  C  7  1  0.64931200  0.99080100  0.82659700  1
  C  8  1  0.67907000  0.92284000  0.82525000  1
  C  9  1  0.73404500  0.88836150  0.80717800  1
  C  10  1  0.76797600  0.82636150  0.81065300  1
  C  11  1  0.74924300  0.79623900  0.83356700  1
  C  12  1  0.69511200  0.82897300  0.85198700  1
  C  13  1  0.66093800  0.89112250  0.84792300  1
  C  14  1  0.58138800  0.02476900  0.82937300  1
  C  15  1  0.65627100  0.01730550  0.79216800  1
  C  16  1  0.64676000  0.99589950  0.75968300  1
  C  17  1  0.63794500  0.02668500  0.72794600  1
  C  18  1  0.63547000  0.08226050  0.72714600  1
  C  19  1  0.64683700  0.10363550  0.75883500  1
  C  20  1  0.65697100  0.07168300  0.79074200  1
  C  21  1  0.55113200  0.08433350  0.84202100  1
  C  22  1  0.48898600  0.11996000  0.84066700  1
  C  23  1  0.45374500  0.09860500  0.82518800  1
  C  24  1  0.48310400  0.03964400  0.81209100  1
  C  25  1  0.54541000  0.00378400  0.81401900  1
  C  42  1  0.63071200  0.95600400  0.25573400  1
  C  43  1  0.65098100  0.99722700  0.25753400  1
  C  44  1  0.66622900  0.01636600  0.22678200  1
  C  45  1  0.66430200  0.99384350  0.19285300  1
  C  46  1  0.64998100  0.94755900  0.19210500  1
  C  47  1  0.63301900  0.92909500  0.22295500  1
  C  48  1  0.65773100  0.03100700  0.16007700  1
  C  49  1  0.58978900  0.06922150  0.15874200  1
  C  50  1  0.55531600  0.04881100  0.14061900  1
  C  51  1  0.49330200  0.07690500  0.14407100  1
  C  52  1  0.46311400  0.12571850  0.16704000  1
  C  53  1  0.49581800  0.14700750  0.18555400  1
  C  54  1  0.55798800  0.11898600  0.18150600  1
  C  55  1  0.69166200  0.06497950  0.16290200  1
  C  56  1  0.68431200  0.99757400  0.12563100  1
  C  57  1  0.66306400  0.02851350  0.09315800  1
  C  58  1  0.69380000  0.00648100  0.06137800  1
  C  59  1  0.74930200  0.95329800  0.06050600  1
  C  60  1  0.77065100  0.92061100  0.09218800  1
  C  61  1  0.73867600  0.94247500  0.12412200  1
  C  62  1  0.75123700  0.03565450  0.17546800  1
  C  63  1  0.78688400  0.06215600  0.17409300  1
  C  64  1  0.76553600  0.11877250  0.15867400  1
  C  65  1  0.70658400  0.14839600  0.14564000  1
  C  66  1  0.67072200  0.12195250  0.14758500  1
  C  83  1  0.62127700  0.08486100  0.58921500  1
  C  84  1  0.66248200  0.02336200  0.59097800  1
  C  85  1  0.68168200  0.98897150  0.56020200  1
  C  86  1  0.65933100  0.01344150  0.52627900  1
  C  87  1  0.61317600  0.07410600  0.52556500  1
  C  88  1  0.59454400  0.10951050  0.55643900  1
  C  89  1  0.69662200  0.98283250  0.49349700  1
  C  90  1  0.73479600  0.01261000  0.49216000  1
  C  91  1  0.71448000  0.06738800  0.47395200  1
  C  92  1  0.74252500  0.10135300  0.47736900  1
  C  93  1  0.79118000  0.08290200  0.50038600  1
  C  94  1  0.81236800  0.02901900  0.51898500  1
  C  95  1  0.78440000  0.99482000  0.51497400  1
  C  96  1  0.73061300  0.91493300  0.49632500  1
  C  97  1  0.66335800  0.98959950  0.45903500  1
  C  98  1  0.69452700  0.97967200  0.42659400  1
  C  99  1  0.67261800  0.97096200  0.39479600  1
  C  100  1  0.61930700  0.96890550  0.39388100  1
  C  101  1  0.58639800  0.98044750  0.42552900  1
  C  102  1  0.60817000  0.99053150  0.45748400  1
  C  103  1  0.70119300  0.88469100  0.50878200  1
  C  104  1  0.72776500  0.82253300  0.50746100  1
  C  105  1  0.78454700  0.78724300  0.49217800  1
  C  106  1  0.81426000  0.81655900  0.47923500  1
  C  107  1  0.78774500  0.87890133  0.48113800  1
  C  124  1  0.91625800  0.37454250  0.93063000  1
  C  125  1  0.97350000  0.36820050  0.93076200  1
  C  126  1  0.00633300  0.35595650  0.89952900  1
  C  127  1  0.98496700  0.34723150  0.86677700  1
  C  128  1  0.92928900  0.34905750  0.86767700  1
  C  129  1  0.89554100  0.36206000  0.89911400  1
  C  130  1  0.01238300  0.35424450  0.83270800  1
  C  131  1  0.97880200  0.42222650  0.83028100  1
  C  132  1  0.91983600  0.45278900  0.81674500  1
  C  133  1  0.88403800  0.51484400  0.81865900  1
  C  134  1  0.90456200  0.54975150  0.83551000  1
  C  135  1  0.96287400  0.52014000  0.84951700  1
  C  136  1  0.99893800  0.45788500  0.84704800  1
  C  137  1  0.08029700  0.32371350  0.83456100  1
  C  138  1  0.00598300  0.32482300  0.79932500  1
  C  139  1  0.00628500  0.34932300  0.76580100  1
  C  140  1  0.01844800  0.31652650  0.73454500  1
  C  141  1  0.03353600  0.25622150  0.73520300  1
  C  142  1  0.03045100  0.23154850  0.76783700  1
  C  143  1  0.01679300  0.26539950  0.79925200  1
  C  144  1  0.11376800  0.26759700  0.85154600  1
  C  145  1  0.17586000  0.23339150  0.84863100  1
  C  146  1  0.20707300  0.25327000  0.82750400  1
  C  147  1  0.17533900  0.30847950  0.81012600  1
  C  148  1  0.11306400  0.34277150  0.81352500  1
  C  165  1  0.04124400  0.38033550  0.26398200  1
  C  166  1  0.03503300  0.32935800  0.26407400  1
  C  167  1  0.02288500  0.30875650  0.23283100  1
  C  168  1  0.01412100  0.33890200  0.20010700  1
  C  169  1  0.01586800  0.39279350  0.20104300  1
  C  170  1  0.02875800  0.41356600  0.23249200  1
  C  171  1  0.02114600  0.30451700  0.16601000  1
  C  172  1  0.08912900  0.27010550  0.16352300  1
  C  173  1  0.11971900  0.29851800  0.15000900  1
  C  174  1  0.18177200  0.27225700  0.15189300  1
  C  175  1  0.21662400  0.21686800  0.16876100  1
  C  176  1  0.18699000  0.18813250  0.18271900  1
  C  177  1  0.12474800  0.21431000  0.18025600  1
  C  178  1  0.99061850  0.26712800  0.16787650  1
  C  179  1  0.99167000  0.34044650  0.13269400  1
  C  180  1  0.01623000  0.31557700  0.09915700  1
  C  181  1  0.98342000  0.33608950  0.06793700  1
  C  182  1  0.92304800  0.38113400  0.06866700  1
  C  183  1  0.89832000  0.40893150  0.10131100  1
  C  184  1  0.93220800  0.38895750  0.13268100  1
  C  185  1  0.93451800  0.28973200  0.18494400  1
  C  186  1  0.90032400  0.26183650  0.18205800  1
  C  187  1  0.92019500  0.21077850  0.16088000  1
  C  188  1  0.97538700  0.18734450  0.14341800  1
  C  189  1  0.00966800  0.21533650  0.14679000  1
  C  206  1  0.04600700  0.24947600  0.59715100  1
  C  207  1  0.99502400  0.30666450  0.59740200  1
  C  208  1  0.97446700  0.33968750  0.56627200  1
  C  209  1  0.00451100  0.31839150  0.53348800  1
  C  210  1  0.05840400  0.26273900  0.53423600  1
  C  211  1  0.07920000  0.22889750  0.56559800  1
  C  212  1  0.97021400  0.34588950  0.49942400  1
  C  213  1  0.93573200  0.31239600  0.49689000  1
  C  214  1  0.96407300  0.25345350  0.48325400  1
  C  215  1  0.93778000  0.21768450  0.48513300  1
  C  216  1  0.88241400  0.23819350  0.50209400  1
  C  217  1  0.85373800  0.29651550  0.51615200  1
  C  218  1  0.87995600  0.33254850  0.51371300  1
  C  219  1  0.93286100  0.41379950  0.50141400  1
  C  220  1  0.00617300  0.33952150  0.46609300  1
  C  221  1  0.98133600  0.33991350  0.43255900  1
  C  222  1  0.00188600  0.35230750  0.40136000  1
  C  223  1  0.04703200  0.36749150  0.40210000  1
  C  224  1  0.07482100  0.36429300  0.43473400  1
  C  225  1  0.05470400  0.35044150  0.46609100  1
  C  226  1  0.95550800  0.44720850  0.51850900  1
  C  227  1  0.92763800  0.50931000  0.51574300  1
  C  228  1  0.87668300  0.54056650  0.49455200  1
  C  229  1  0.85320000  0.50889800  0.47706500  1
  C  230  1  0.88109900  0.44662850  0.48037900  1
  C  247  1  0.86643600  0.61242650  0.83816400  1
  C  248  1  0.86502400  0.64699000  0.86743900  1
  C  249  1  0.82498000  0.70908350  0.86811400  1
  C  250  1  0.78659400  0.73462700  0.83865800  1
  C  254  1  0.82485700  0.74576650  0.89833100  1
  C  258  1  0.27927500  0.19237150  0.17148000  1
  C  259  1  0.31366900  0.15928800  0.20078100  1
  C  260  1  0.37575800  0.13723900  0.20151300  1
  C  261  1  0.40147200  0.15002500  0.17209000  1
  C  265  1  0.41226800  0.10070050  0.23174200  1
  C  269  1  0.85788300  0.20006450  0.50480200  1
  C  270  1  0.82480200  0.19871850  0.53413500  1
  C  271  1  0.80273100  0.15869500  0.53486700  1
  C  272  1  0.81540000  0.12032400  0.50537300  1
  C  276  1  0.76621300  0.15869550  0.56514600  1
  C  280  1  0.80951100  0.72447450  0.48985800  1
  C  281  1  0.84483900  0.68950800  0.46128100  1
  C  282  1  0.86733700  0.62735650  0.46076100  1
  C  283  1  0.85273600  0.60214900  0.48964900  1
  C  287  1  0.90571500  0.59031200  0.43117700  1
  C  291  1  0.80341900  0.14364050  0.15628700  1
  C  292  1  0.80320900  0.17870650  0.12764700  1
  C  293  1  0.84293200  0.20111800  0.12707100  1
  C  294  1  0.88267500  0.18669550  0.15596000  1
  C  298  1  0.84172400  0.23926150  0.09742600  1
  C  302  1  0.39099300  0.13648250  0.82282600  1
  C  303  1  0.35615700  0.13623450  0.79418300  1
  C  304  1  0.29402100  0.17594600  0.79363800  1
  C  305  1  0.26868400  0.21574350  0.82255000  1
  C  309  1  0.25710300  0.17469450  0.76399900  1
  C  313  1  0.78414500  0.94142300  0.95373000  1
  C  314  1  0.78571400  0.89149800  0.96986600  1
  C  315  1  0.78190200  0.88839050  0.00706000  1
  C  316  1  0.77925300  0.93563400  0.02744200  1
  C  320  1  0.77363900  0.84071900  0.02308200  1
  C  324  1  0.60793500  0.94549300  0.28713100  1
  C  325  1  0.55795800  0.99403900  0.30321100  1
  C  326  1  0.55492100  0.00115500  0.34040300  1
  C  327  1  0.60200500  0.95641650  0.36078500  1
  C  331  1  0.50745000  0.05734400  0.35637500  1
  C  335  1  0.61108400  0.11824400  0.62057200  1
  C  336  1  0.65956100  0.11985600  0.63647500  1
  C  337  1  0.66702400  0.11540950  0.67362500  1
  C  338  1  0.62277600  0.11239500  0.69416900  1
  C  342  1  0.72314100  0.10703050  0.68942500  1
  C  346  1  0.88411700  0.39117150  0.96280900  1
  C  347  1  0.87347200  0.44450750  0.97938700  1
  C  348  1  0.87831000  0.44704900  0.01653600  1
  C  349  1  0.89120900  0.39544800  0.03627100  1
  C  353  1  0.87697600  0.49966300  0.03308700  1
  C  357  1  0.05754700  0.39595800  0.29619500  1
  C  358  1  0.11085200  0.35340600  0.31285400  1
  C  359  1  0.11308000  0.34607800  0.35000600  1
  C  360  1  0.06141400  0.38497450  0.36969600  1
  C  364  1  0.16551200  0.29468100  0.36656500  1
  C  368  1  0.06153600  0.21718750  0.62923500  1
  C  369  1  0.01899200  0.20658600  0.64600700  1
  C  370  1  0.01188700  0.21151500  0.68317800  1
  C  371  1  0.05074400  0.22443250  0.70274700  1
  C  375  1  0.96073400  0.21019300  0.69993000  1
  H  26  1  0.63068100  0.00901100  0.70556600  1
  H  27  1  0.64282500  0.95866850  0.75893800  1
  H  28  1  0.64468200  0.14404750  0.75927200  1
  H  29  1  0.66076600  0.09070550  0.81349900  1
  H  30  1  0.57453100  0.10314450  0.85191100  1
  H  31  1  0.47005500  0.16282000  0.84964500  1
  H  32  1  0.45945300  0.02211700  0.80081900  1
  H  33  1  0.56446100  0.96253550  0.80275200  1
  H  34  1  0.62364800  0.91353400  0.86314800  1
  H  35  1  0.68120300  0.80812950  0.86928400  1
  H  36  1  0.80793100  0.80389250  0.79774000  1
  H  37  1  0.75177000  0.90842450  0.79222000  1
  H  38  1  0.76113800  0.97876600  0.83503100  1
  H  39  1  0.61322500  0.00583800  0.89593300  1
  H  40  1  0.67006200  0.98298750  0.94741900  1
  H  41  1  0.82013500  0.95189600  0.88758900  1
  H  67  1  0.67614200  0.03142450  0.03902200  1
  H  68  1  0.62586000  0.06970050  0.09243900  1
  H  69  1  0.81092800  0.88219300  0.09256100  1
  H  70  1  0.75762400  0.91956150  0.14684300  1
  H  71  1  0.77004600  0.99342750  0.18530900  1
  H  72  1  0.82973200  0.03821100  0.18303300  1
  H  73  1  0.68906500  0.18958550  0.13440400  1
  H  74  1  0.62948100  0.14416950  0.13636000  1
  H  75  1  0.58035900  0.13380900  0.19678500  1
  H  76  1  0.47493400  0.18172150  0.20289800  1
  H  77  1  0.47086100  0.05947900  0.13109300  1
  H  78  1  0.57540600  0.01106300  0.12560200  1
  H  79  1  0.64542200  0.93136550  0.16842000  1
  H  80  1  0.67269800  0.05186250  0.22944000  1
  H  81  1  0.64967100  0.01789600  0.28087800  1
  H  82  1  0.61835400  0.89925000  0.22091500  1
  H  108  1  0.69778600  0.96338400  0.37247400  1
  H  109  1  0.73578900  0.97551800  0.42591500  1
  H  110  1  0.54795700  0.97863200  0.42587800  1
  H  111  1  0.58510800  0.99462750  0.48018900  1
  H  112  1  0.65888400  0.90811600  0.51855200  1
  H  113  1  0.70376800  0.80362800  0.51634000  1
  H  114  1  0.85557300  0.79287000  0.46810400  1
  H  115  1  0.81006600  0.89788000  0.46999400  1
  H  116  1  0.79914100  0.95771350  0.53030600  1
  H  117  1  0.84697400  0.01530600  0.53635500  1
  H  118  1  0.72516100  0.14114300  0.46432500  1
  H  119  1  0.67683000  0.08494500  0.45889700  1
  H  120  1  0.59707300  0.09480350  0.50187200  1
  H  121  1  0.71714500  0.94699500  0.56285000  1
  H  122  1  0.68312700  0.00401750  0.61430400  1
  H  123  1  0.56491200  0.15406850  0.55440100  1
  H  149  1  0.01961600  0.33642400  0.71141700  1
  H  150  1  0.00217300  0.39043550  0.76373100  1
  H  151  1  0.04175200  0.18780400  0.76927400  1
  H  152  1  0.01991300  0.24439350  0.82263900  1
  H  153  1  0.09285200  0.24943400  0.86528600  1
  H  154  1  0.19764600  0.19264250  0.86066400  1
  H  155  1  0.19700400  0.32306150  0.79394700  1
  H  156  1  0.09142500  0.38096300  0.79904100  1
  H  157  1  0.03963550  0.43855800  0.85898550  1
  H  158  1  0.97976550  0.54355850  0.86182750  1
  H  159  1  0.84164300  0.53392550  0.80893200  1
  H  160  1  0.90142400  0.42967300  0.80588700  1
  H  161  1  0.91052500  0.34559100  0.84473200  1
  H  162  1  0.04450700  0.35815050  0.90068200  1
  H  163  1  0.99045400  0.37618700  0.95321500  1
  H  164  1  0.85432700  0.36602850  0.89835600  1
  H  190  1  0.00330500  0.31494350  0.04480100  1
  H  191  1  0.05737900  0.27862000  0.09704800  1
  H  192  1  0.85455300  0.44132600  0.10277200  1
  H  193  1  0.91118400  0.40683950  0.15608900  1
  H  194  1  0.91635900  0.32878850  0.19872800  1
  H  195  1  0.85958500  0.28077150  0.19415300  1
  H  196  1  0.98996600  0.15112000  0.12720300  1
  H  197  1  0.04785200  0.19881050  0.13225300  1
  H  198  1  0.10540000  0.19290350  0.19214500  1
  H  199  1  0.21037600  0.14783100  0.19501500  1
  H  200  1  0.20086300  0.29563500  0.14226100  1
  H  201  1  0.09661600  0.34006200  0.13919500  1
  H  202  1  0.01229800  0.41513000  0.17813100  1
  H  203  1  0.02511500  0.26837000  0.23397200  1
  H  204  1  0.04298000  0.30441100  0.28651200  1
  H  205  1  0.03249600  0.45094700  0.23177900  1
  H  231  1  0.98065800  0.35378800  0.37824300  1
  H  232  1  0.94424800  0.33596300  0.43046300  1
  H  233  1  0.10728800  0.37555900  0.43620000  1
  H  234  1  0.07264300  0.35336400  0.48950700  1
  H  235  1  0.99455100  0.42624350  0.53225900  1
  H  236  1  0.94668600  0.53103000  0.52778200  1
  H  237  1  0.81703300  0.53060050  0.46085800  1
  H  238  1  0.86455200  0.42503700  0.46581800  1
  H  239  1  0.85860200  0.37325400  0.52568900  1
  H  240  1  0.81345500  0.31341450  0.52852000  1
  H  241  1  0.96111100  0.17525850  0.47540300  1
  H  242  1  0.00560000  0.23502150  0.47236700  1
  H  243  1  0.08067300  0.24407350  0.51126300  1
  H  244  1  0.93411300  0.37787500  0.56751400  1
  H  245  1  0.97016800  0.32355950  0.61991100  1
  H  246  1  0.11648000  0.18771150  0.56475000  1
  H  252  1  0.89256400  0.62690500  0.88848200  1
  H  255  1  0.85799200  0.71931800  0.91828000  1
  H  256  1  0.78129600  0.76744200  0.91105600  1
  H  257  1  0.83451100  0.77979000  0.88892400  1
  H  263  1  0.29346700  0.15184700  0.22179200  1
  H  266  1  0.38570400  0.09403800  0.25165400  1
  H  267  1  0.43388000  0.12258750  0.24451400  1
  H  268  1  0.44633500  0.05701100  0.22233900  1
  H  274  1  0.81744100  0.22627600  0.55518900  1
  H  277  1  0.75957200  0.19189700  0.58507700  1
  H  278  1  0.78810300  0.11518400  0.57787600  1
  H  279  1  0.72251400  0.16833750  0.55580200  1
  H  285  1  0.85353500  0.70934100  0.44059000  1
  H  288  1  0.91299000  0.61663600  0.41140500  1
  H  289  1  0.88498200  0.56786200  0.41803200  1
  H  290  1  0.94905300  0.55689600  0.44134000  1
  H  296  1  0.77477300  0.18723600  0.10693700  1
  H  299  1  0.80817200  0.24642500  0.07765700  1
  H  300  1  0.88494600  0.21839500  0.08430000  1
  H  301  1  0.83181700  0.28266050  0.10752600  1
  H  307  1  0.37607700  0.10775050  0.77346100  1
  H  310  1  0.28350500  0.14111700  0.74420200  1
  H  311  1  0.23474800  0.21789950  0.75090400  1
  H  312  1  0.22361100  0.16479400  0.77409400  1
  H  318  1  0.78014100  0.86230350  0.95435000  1
  H  321  1  0.77591100  0.80867850  0.00354000  1
  H  322  1  0.73037300  0.86007400  0.03608600  1
  H  323  1  0.80848100  0.81638250  0.04254400  1
  H  329  1  0.52916900  0.02899000  0.28771000  1
  H  332  1  0.47554400  0.08712750  0.33682000  1
  H  333  1  0.52702900  0.08110000  0.36928700  1
  H  334  1  0.48289700  0.04718500  0.37590100  1
  H  340  1  0.69412100  0.11430500  0.62076500  1
  H  343  1  0.75260100  0.10963250  0.66979300  1
  H  344  1  0.74728800  0.06359000  0.70215700  1
  H  345  1  0.71285600  0.14161200  0.70907600  1
  H  351  1  0.87156800  0.47799700  0.96412100  1
  H  354  1  0.86707500  0.53501250  0.01405200  1
  H  355  1  0.91996500  0.48680450  0.04507300  1
  H  356  1  0.84268100  0.51789150  0.05348500  1
  H  362  1  0.14422200  0.32147600  0.29765400  1
  H  365  1  0.20093800  0.26911950  0.34755100  1
  H  366  1  0.15243700  0.26467200  0.37850700  1
  H  367  1  0.18374300  0.31064150  0.38700000  1
  H  373  1  0.98726700  0.20471650  0.63086500  1
  H  376  1  0.93510800  0.20032250  0.68099800  1
  H  377  1  0.93071600  0.25318150  0.71200900  1
  H  378  1  0.97695600  0.17588750  0.72028000  1
  N  251  1  0.79099000  0.69881200  0.81134200  1
  N  253  1  0.82796600  0.64164550  0.81134500  1
  N  262  1  0.36581200  0.18139250  0.14475000  1
  N  264  1  0.30864600  0.20157900  0.14469700  1
  N  273  1  0.84683800  0.12458800  0.47802700  1
  N  275  1  0.86707300  0.16152800  0.47798800  1
  N  284  1  0.81907000  0.63830550  0.51628400  1
  N  286  1  0.79852100  0.69556800  0.51614200  1
  N  295  1  0.87997100  0.15334350  0.18267900  1
  N  297  1  0.84320700  0.13285400  0.18258900  1
  N  306  1  0.30471200  0.21307750  0.84927100  1
  N  308  1  0.36196500  0.17630800  0.84915600  1
  N  317  1  0.78223000  0.97979200  0.00978400  1
  N  319  1  0.78385500  0.98301600  0.97547100  1
  N  328  1  0.64589600  0.90897400  0.34317800  1
  N  330  1  0.64920200  0.90402200  0.30886900  1
  N  339  1  0.57549600  0.11537300  0.67668800  1
  N  341  1  0.57015900  0.11741050  0.64240000  1
  N  350  1  0.89665600  0.34753200  0.01824600  1
  N  352  1  0.89397300  0.34508250  0.98393100  1
  N  361  1  0.01373600  0.42754750  0.35165000  1
  N  363  1  0.01150800  0.43245950  0.31733000  1
  N  372  1  0.09305400  0.22987300  0.68453400  1
  N  374  1  0.09790600  0.22714050  0.65020100  1
