# generated using pymatgen
data_H12(C4N)5
_symmetry_space_group_name_H-M   'P 1'
_cell_length_a   28.90720000
_cell_length_b   32.26053762
_cell_length_c   32.26060000
_cell_angle_alpha   120.00219189
_cell_angle_beta   90.51190000
_cell_angle_gamma   89.48809901
_symmetry_Int_Tables_number   1
_chemical_formula_structural   H12(C4N)5
_chemical_formula_sum   'H144 C240 N60'
_cell_volume   26052.41551233
_cell_formula_units_Z   12
loop_
 _symmetry_equiv_pos_site_id
 _symmetry_equiv_pos_as_xyz
  1  'x, y, z'
loop_
 _atom_site_type_symbol
 _atom_site_label
 _atom_site_symmetry_multiplicity
 _atom_site_fract_x
 _atom_site_fract_y
 _atom_site_fract_z
 _atom_site_occupancy
  H  7  1  0.91390500  0.55295300  0.49040600  1
  H  16  1  0.04664900  0.55376100  0.56310100  1
  H  17  1  0.10908400  0.62523000  0.45583500  1
  H  18  1  0.14365500  0.60511300  0.48252000  1
  H  19  1  0.85739700  0.46758200  0.58674200  1
  H  20  1  0.82848300  0.46434500  0.54104600  1
  H  21  1  0.98446400  0.56581000  0.61104100  1
  H  22  1  0.95910200  0.61346600  0.50220100  1
  H  33  1  0.55728000  0.96182300  0.42566400  1
  H  42  1  0.69730400  0.02593000  0.44572000  1
  H  43  1  0.74742200  0.84414600  0.38543500  1
  H  44  1  0.78377300  0.88895700  0.41131000  1
  H  45  1  0.50127000  0.14066000  0.47994300  1
  H  46  1  0.46704500  0.10002700  0.47962700  1
  H  47  1  0.64475100  0.06433400  0.42380700  1
  H  48  1  0.60722500  0.90996800  0.37205900  1
  H  59  1  0.24993900  0.46715600  0.04510500  1
  H  68  1  0.38806700  0.42021800  0.97305500  1
  H  69  1  0.44618700  0.53934900  0.15287300  1
  H  70  1  0.48036100  0.51996500  0.10632600  1
  H  71  1  0.18565000  0.34587600  0.86941100  1
  H  72  1  0.15312700  0.38639300  0.91244100  1
  H  73  1  0.33367700  0.36174800  0.93686900  1
  H  74  1  0.30334300  0.46696800  0.09379700  1
  H  85  1  0.41183800  0.42467600  0.46233700  1
  H  94  1  0.54715700  0.42618000  0.39456200  1
  H  95  1  0.61451500  0.37450600  0.51736100  1
  H  96  1  0.64761500  0.39131700  0.48735000  1
  H  97  1  0.34728600  0.48169900  0.34248500  1
  H  98  1  0.31710900  0.48592600  0.38745100  1
  H  99  1  0.48826600  0.41055000  0.34542100  1
  H  100  1  0.46315300  0.37564900  0.46508900  1
  H  111  1  0.05850500  0.04639300  0.58775600  1
  H  120  1  0.19873700  0.98076700  0.56342100  1
  H  121  1  0.24667300  0.16362100  0.63101500  1
  H  122  1  0.28312200  0.11896300  0.60293200  1
  H  123  1  0.00398600  0.86560600  0.52289900  1
  H  124  1  0.96925000  0.90772600  0.52605700  1
  H  125  1  0.14743300  0.93974300  0.58226300  1
  H  126  1  0.10890400  0.09595300  0.64359100  1
  H  137  1  0.75312600  0.55071900  0.96133700  1
  H  146  1  0.88213500  0.58499000  0.04217300  1
  H  147  1  0.96280600  0.54116900  0.87535200  1
  H  148  1  0.99168500  0.54353000  0.92065800  1
  H  149  1  0.67781900  0.65530500  0.13618200  1
  H  150  1  0.64824800  0.61616100  0.08924500  1
  H  151  1  0.82865800  0.65125900  0.08174600  1
  H  152  1  0.80928900  0.58050200  0.92651900  1
  H  167  1  0.27972200  0.52927100  0.47740400  1
  H  168  1  0.20680500  0.56417600  0.50519100  1
  H  173  1  0.12678600  0.42190400  0.59980500  1
  H  174  1  0.15039000  0.35142500  0.60349300  1
  H  175  1  0.22545500  0.31473300  0.57309100  1
  H  176  1  0.27789500  0.34915400  0.54041300  1
  H  178  1  0.33352400  0.43184900  0.48942400  1
  H  180  1  0.11987700  0.52650500  0.56270600  1
  H  191  1  0.92067100  0.95449600  0.49259100  1
  H  192  1  0.84862200  0.94900200  0.45637300  1
  H  197  1  0.78076800  0.19233600  0.57786100  1
  H  198  1  0.80716700  0.26875400  0.64287100  1
  H  199  1  0.88071400  0.27407700  0.68203000  1
  H  200  1  0.92894000  0.20340400  0.65565300  1
  H  202  1  0.97954200  0.06476300  0.58176100  1
  H  204  1  0.76869900  0.04884100  0.48193500  1
  H  215  1  0.61333500  0.53318500  0.04248700  1
  H  216  1  0.54179200  0.50247900  0.04678100  1
  H  221  1  0.47114500  0.39269000  0.80480400  1
  H  222  1  0.49702200  0.38413100  0.72954300  1
  H  223  1  0.57080700  0.41690600  0.72518100  1
  H  224  1  0.61986300  0.45739800  0.79562700  1
  H  226  1  0.67167700  0.51828800  0.93468000  1
  H  228  1  0.46026100  0.43352400  0.94714100  1
  H  239  1  0.78807500  0.43592400  0.45400300  1
  H  240  1  0.71230300  0.40650900  0.43250500  1
  H  245  1  0.61130800  0.58878600  0.40073100  1
  H  246  1  0.62953200  0.66877600  0.41669000  1
  H  247  1  0.70660200  0.70092100  0.44327500  1
  H  248  1  0.76646100  0.65260100  0.45197100  1
  H  250  1  0.83445500  0.54621600  0.46325300  1
  H  252  1  0.61643500  0.46237400  0.40179900  1
  H  263  1  0.41842500  0.05422500  0.51629100  1
  H  264  1  0.34684700  0.05944700  0.55232100  1
  H  269  1  0.28313300  0.81558600  0.43203000  1
  H  270  1  0.31151500  0.73882600  0.36916400  1
  H  271  1  0.38577400  0.73332400  0.33219400  1
  H  272  1  0.43234200  0.80441300  0.35803400  1
  H  274  1  0.47913300  0.94386100  0.42949600  1
  H  276  1  0.26978200  0.95888000  0.52784600  1
  H  287  1  0.10909700  0.47690900  0.96534100  1
  H  288  1  0.03673100  0.51011000  0.96539900  1
  H  293  1  0.97043800  0.59722300  0.20560900  1
  H  294  1  0.99884500  0.59797500  0.27700700  1
  H  295  1  0.07384800  0.56338300  0.27671000  1
  H  296  1  0.12133700  0.52869400  0.20536400  1
  H  298  1  0.17052800  0.48391900  0.06901300  1
  H  300  1  0.95610300  0.57053300  0.06706100  1
  H  311  1  0.02782300  0.72617400  0.54695600  1
  H  312  1  0.06495700  0.80196100  0.59028200  1
  H  317  1  0.18713800  0.80515000  0.40340700  1
  H  318  1  0.19770600  0.75627500  0.31756000  1
  H  319  1  0.15983200  0.67913800  0.27316600  1
  H  320  1  0.11138400  0.65046300  0.31446000  1
  H  322  1  0.01288100  0.66483900  0.42425300  1
  H  324  1  0.14049300  0.85747500  0.57567600  1
  H  335  1  0.69263600  0.83890300  0.27503600  1
  H  336  1  0.74084300  0.80261300  0.20611000  1
  H  341  1  0.81977800  0.59963600  0.21545500  1
  H  342  1  0.80770900  0.56025900  0.26184000  1
  H  343  1  0.75636700  0.59563000  0.33035100  1
  H  344  1  0.71711400  0.67087100  0.35287300  1
  H  346  1  0.65030700  0.77871400  0.33103200  1
  H  348  1  0.80599000  0.73077500  0.15716900  1
  H  359  1  0.36590600  0.43931100  0.16346900  1
  H  360  1  0.40199900  0.39809500  0.19930900  1
  H  365  1  0.52161200  0.58908800  0.38985700  1
  H  366  1  0.53310100  0.67448700  0.42382700  1
  H  367  1  0.49837100  0.71608100  0.38593400  1
  H  368  1  0.45185800  0.67252200  0.31396400  1
  H  370  1  0.35132700  0.56156100  0.22116100  1
  H  372  1  0.47430700  0.41138700  0.26882200  1
  H  383  1  0.52509600  0.27026500  0.43774800  1
  H  384  1  0.55804500  0.19190500  0.40067100  1
  H  389  1  0.69285200  0.20883900  0.59203400  1
  H  390  1  0.71249700  0.26673300  0.67431500  1
  H  391  1  0.68211700  0.34783800  0.71098200  1
  H  392  1  0.63190900  0.37137300  0.66554300  1
  H  394  1  0.52066400  0.34605600  0.55966200  1
  H  396  1  0.63437900  0.13908500  0.41806400  1
  H  407  1  0.19813900  0.16930800  0.74594200  1
  H  408  1  0.24988700  0.20592500  0.81258300  1
  H  413  1  0.32885400  0.39993900  0.78963900  1
  H  414  1  0.31477400  0.43651200  0.74071600  1
  H  415  1  0.26007500  0.40093000  0.67459700  1
  H  416  1  0.21930400  0.32827000  0.65689600  1
  H  418  1  0.15080600  0.22867300  0.69219500  1
  H  420  1  0.31797400  0.27831400  0.85709000  1
  H  431  1  0.85407600  0.60004500  0.82098500  1
  H  432  1  0.86406500  0.60891100  0.75308800  1
  H  437  1  0.94985900  0.37907500  0.58773400  1
  H  438  1  0.97046800  0.30420300  0.58405500  1
  H  439  1  0.96287400  0.29588500  0.65439400  1
  H  440  1  0.93380800  0.36206600  0.72866900  1
  H  442  1  0.87103100  0.49208300  0.82695700  1
  H  444  1  0.86746900  0.56513700  0.66443500  1
  C  1  1  0.95714100  0.56209200  0.54792900  1
  C  2  1  0.91640800  0.54821000  0.51932000  1
  C  3  1  0.88158200  0.52078400  0.52447600  1
  C  4  1  0.88533200  0.50796000  0.56049500  1
  C  5  1  0.92235600  0.52764200  0.59395100  1
  C  6  1  0.95817200  0.55254100  0.58641000  1
  C  9  1  0.99581900  0.58186900  0.53653600  1
  C  10  1  0.99137300  0.60528700  0.50941700  1
  C  11  1  0.02972500  0.61857600  0.49195100  1
  C  12  1  0.07522500  0.60651500  0.49962100  1
  C  13  1  0.08073300  0.58376600  0.52750500  1
  C  14  1  0.04160200  0.57343100  0.54667200  1
  C  27  1  0.60776200  0.00658400  0.42120200  1
  C  28  1  0.56260800  0.99413900  0.42803900  1
  C  29  1  0.52592300  0.02762500  0.44611900  1
  C  30  1  0.53275900  0.07514600  0.45565500  1
  C  31  1  0.57675000  0.08755100  0.44584000  1
  C  32  1  0.61347000  0.05395300  0.42994000  1
  C  35  1  0.64570600  0.97391200  0.40977700  1
  C  36  1  0.63911200  0.92371100  0.38594200  1
  C  37  1  0.67487800  0.89105800  0.37951600  1
  C  38  1  0.71961400  0.90834400  0.39881900  1
  C  39  1  0.72759500  0.95858000  0.42194800  1
  C  40  1  0.69132900  0.99007900  0.42585400  1
  C  53  1  0.29923700  0.41760700  0.99714600  1
  C  54  1  0.25423200  0.43725700  0.01248200  1
  C  55  1  0.21563700  0.42265600  0.98140200  1
  C  56  1  0.22039800  0.38532800  0.93324700  1
  C  57  1  0.26413000  0.36227000  0.91815800  1
  C  58  1  0.30273400  0.37895000  0.94937000  1
  C  61  1  0.33872400  0.43825200  0.02764700  1
  C  62  1  0.33436200  0.46563100  0.07814100  1
  C  63  1  0.37121900  0.49151300  0.10881500  1
  C  64  1  0.41514900  0.49138700  0.08942900  1
  C  65  1  0.42095400  0.46357000  0.03892100  1
  C  66  1  0.38348300  0.43692400  0.00919400  1
  C  79  1  0.45766300  0.41438000  0.40692600  1
  C  80  1  0.41478900  0.42585500  0.43150500  1
  C  81  1  0.37757500  0.44663300  0.41959400  1
  C  82  1  0.38122100  0.45502800  0.38056400  1
  C  83  1  0.42229200  0.44023200  0.35293800  1
  C  84  1  0.45939600  0.42050900  0.36627100  1
  C  87  1  0.49758900  0.40134400  0.42465200  1
  C  88  1  0.49472100  0.38363700  0.45692700  1
  C  89  1  0.53390700  0.37593900  0.47869200  1
  C  90  1  0.57884000  0.38657200  0.46910100  1
  C  91  1  0.58283200  0.40421700  0.43675000  1
  C  92  1  0.54290600  0.41053400  0.41491000  1
  C  105  1  0.10967500  0.99955100  0.58902500  1
  C  106  1  0.06430000  0.01305800  0.58300600  1
  C  107  1  0.02785400  0.97982800  0.56305900  1
  C  108  1  0.03509100  0.93141400  0.55073700  1
  C  109  1  0.07942200  0.91767000  0.55926000  1
  C  110  1  0.11591300  0.95112300  0.57715400  1
  C  113  1  0.14736000  0.03233700  0.60223300  1
  C  114  1  0.14063500  0.08259000  0.62887000  1
  C  115  1  0.17601500  0.11567400  0.63690900  1
  C  116  1  0.22024900  0.09879800  0.61594800  1
  C  117  1  0.22847600  0.04847000  0.59028700  1
  C  118  1  0.19277700  0.01646200  0.58513200  1
  C  131  1  0.79768800  0.59907000  0.01674600  1
  C  132  1  0.75456400  0.57760000  0.99626900  1
  C  133  1  0.71501600  0.58646800  0.02498700  1
  C  134  1  0.71630700  0.62140600  0.07449200  1
  C  135  1  0.75833900  0.64623300  0.09438800  1
  C  136  1  0.79863500  0.63345700  0.06621500  1
  C  139  1  0.83891100  0.58552700  0.98918300  1
  C  140  1  0.83884900  0.57524900  0.94108200  1
  C  141  1  0.87988600  0.56284100  0.91405800  1
  C  142  1  0.92227800  0.55758100  0.93362900  1
  C  143  1  0.92223900  0.56509900  0.98096200  1
  C  144  1  0.88153000  0.58091600  0.00865000  1
  C  157  1  0.27652200  0.47827800  0.50090100  1
  C  158  1  0.24785900  0.46273300  0.52588700  1
  C  159  1  0.20334900  0.48372800  0.54255000  1
  C  160  1  0.18694000  0.52100800  0.53485400  1
  C  161  1  0.21667200  0.53720900  0.51136300  1
  C  162  1  0.26010300  0.51614000  0.49447300  1
  C  164  1  0.18880900  0.42676500  0.56806100  1
  C  165  1  0.23282100  0.40573600  0.55106700  1
  C  169  1  0.15880400  0.40718200  0.58787400  1
  C  170  1  0.17242400  0.36618800  0.58987100  1
  C  171  1  0.21599000  0.34496100  0.57236100  1
  C  172  1  0.24648900  0.36500200  0.55347400  1
  C  177  1  0.31948600  0.45622600  0.48143200  1
  C  179  1  0.14135800  0.53920100  0.54669400  1
  C  181  1  0.92084200  0.03021500  0.53854700  1
  C  182  1  0.89390300  0.07183300  0.55115800  1
  C  183  1  0.85007100  0.06847200  0.52898900  1
  C  184  1  0.83225800  0.02342800  0.49380100  1
  C  185  1  0.85957400  0.98233700  0.48162500  1
  C  186  1  0.90255800  0.98561600  0.50349900  1
  C  188  1  0.83951200  0.15325900  0.57895100  1
  C  189  1  0.88274300  0.15649600  0.60132600  1
  C  193  1  0.81201900  0.19452500  0.59388100  1
  C  194  1  0.82731900  0.23884800  0.63159900  1
  C  195  1  0.87008000  0.24196100  0.65421400  1
  C  196  1  0.89804400  0.20093300  0.63888600  1
  C  201  1  0.96460600  0.03241900  0.55948700  1
  C  203  1  0.78811700  0.01890000  0.47270600  1
  C  205  1  0.61292000  0.50717500  0.96735100  1
  C  206  1  0.58583800  0.47962100  0.92555200  1
  C  207  1  0.54202300  0.46094500  0.92825600  1
  C  208  1  0.52443500  0.46907200  0.97271100  1
  C  209  1  0.55223900  0.49591500  0.01384600  1
  C  210  1  0.59502000  0.51458000  0.01128100  1
  C  212  1  0.53066600  0.42993700  0.84412900  1
  C  213  1  0.57397900  0.44863600  0.84148200  1
  C  217  1  0.50262600  0.40589600  0.80298100  1
  C  218  1  0.51758900  0.40098600  0.75932800  1
  C  219  1  0.56051800  0.41985000  0.75675100  1
  C  220  1  0.58893100  0.44338900  0.79767100  1
  C  225  1  0.65618300  0.52695100  0.96637800  1
  C  227  1  0.48022900  0.45297500  0.97692000  1
  C  229  1  0.77902000  0.49760900  0.44672900  1
  C  230  1  0.74601900  0.52157500  0.43326600  1
  C  231  1  0.70021100  0.50345700  0.41968800  1
  C  232  1  0.68662700  0.46140900  0.41999800  1
  C  233  1  0.72029500  0.43720800  0.43220300  1
  C  234  1  0.76536900  0.45480500  0.44512000  1
  C  236  1  0.67844800  0.57396200  0.41683600  1
  C  237  1  0.72366200  0.59234300  0.43129400  1
  C  241  1  0.64412800  0.60169500  0.41068700  1
  C  242  1  0.65461400  0.64820600  0.42023900  1
  C  243  1  0.69932700  0.66686700  0.43569800  1
  C  244  1  0.73415500  0.63870400  0.44041700  1
  C  249  1  0.82307600  0.51712900  0.46482300  1
  C  251  1  0.64019100  0.44608400  0.41262500  1
  C  253  1  0.42008500  0.97836500  0.47152000  1
  C  254  1  0.39413500  0.93657500  0.45922900  1
  C  255  1  0.35041700  0.93982300  0.48086900  1
  C  256  1  0.33207100  0.98483300  0.51571100  1
  C  257  1  0.35836000  0.02610900  0.52750700  1
  C  258  1  0.40101300  0.02299900  0.50574200  1
  C  260  1  0.34140200  0.85481000  0.43177800  1
  C  261  1  0.38479500  0.85159000  0.41031600  1
  C  265  1  0.31464600  0.81340400  0.41687700  1
  C  266  1  0.33107800  0.76886700  0.38037200  1
  C  267  1  0.37421900  0.76566200  0.35897900  1
  C  268  1  0.40122700  0.80693000  0.37400600  1
  C  273  1  0.46370300  0.97623200  0.45105100  1
  C  275  1  0.28852300  0.98898700  0.53712500  1
  C  277  1  0.11016300  0.49642600  0.03894100  1
  C  278  1  0.08349300  0.52010000  0.08138300  1
  C  279  1  0.03902100  0.53964100  0.08124300  1
  C  280  1  0.02093500  0.53716600  0.03898900  1
  C  281  1  0.04814700  0.51361300  0.99707500  1
  C  282  1  0.09117400  0.49313200  0.99684300  1
  C  284  1  0.02950100  0.56249400  0.16377200  1
  C  285  1  0.07344700  0.54274100  0.16376500  1
  C  289  1  0.00229500  0.58308300  0.20544200  1
  C  290  1  0.01871400  0.58343500  0.24684400  1
  C  291  1  0.06223500  0.56336700  0.24667200  1
  C  292  1  0.08983100  0.54334700  0.20530300  1
  C  297  1  0.15443800  0.47697900  0.03786700  1
  C  299  1  0.97690500  0.55599900  0.03760900  1
  C  301  1  0.05676900  0.70656500  0.47925800  1
  C  302  1  0.08686000  0.72252400  0.45563300  1
  C  303  1  0.10918400  0.76764700  0.48154100  1
  C  304  1  0.10159400  0.79717900  0.53127200  1
  C  305  1  0.07284500  0.78035100  0.55484700  1
  C  306  1  0.05080800  0.73567500  0.52922100  1
  C  308  1  0.14313200  0.75604100  0.40901000  1
  C  309  1  0.12109500  0.71101900  0.38314100  1
  C  313  1  0.17125100  0.77260700  0.38493600  1
  C  314  1  0.17737100  0.74427300  0.33511300  1
  C  315  1  0.15541400  0.69953500  0.30936200  1
  C  316  1  0.12728400  0.68287500  0.33332600  1
  C  321  1  0.02853900  0.66714200  0.45284400  1
  C  323  1  0.11318300  0.84502900  0.55411900  1
  C  325  1  0.70518400  0.78753900  0.29672600  1
  C  326  1  0.72991100  0.74475100  0.28445000  1
  C  327  1  0.75923300  0.72349900  0.24375400  1
  C  328  1  0.76351800  0.74438300  0.21442400  1
  C  329  1  0.74015700  0.78792700  0.22784900  1
  C  330  1  0.71149600  0.80923000  0.26845000  1
  C  332  1  0.77582700  0.65860600  0.25774200  1
  C  333  1  0.74625100  0.67944800  0.29796100  1
  C  337  1  0.79848400  0.61494400  0.24457400  1
  C  338  1  0.79145800  0.59206300  0.27145100  1
  C  339  1  0.76171700  0.61259800  0.31122600  1
  C  340  1  0.73911500  0.65628500  0.32446700  1
  C  345  1  0.67067600  0.80340100  0.33116500  1
  C  347  1  0.78106700  0.71805600  0.16863700  1
  C  349  1  0.39557800  0.50725700  0.20998700  1
  C  350  1  0.42544100  0.53190000  0.25003200  1
  C  351  1  0.44668200  0.50741000  0.27164400  1
  C  352  1  0.43853500  0.45797800  0.25307500  1
  C  353  1  0.41025700  0.43325300  0.21201700  1
  C  354  1  0.38892500  0.45761200  0.19089900  1
  C  356  1  0.48021200  0.58096800  0.33181900  1
  C  357  1  0.45966900  0.60529200  0.30991600  1
  C  361  1  0.50712700  0.60638200  0.37361300  1
  C  362  1  0.51372100  0.65594300  0.39337500  1
  C  363  1  0.49354200  0.68008000  0.37142200  1
  C  364  1  0.46650200  0.65481500  0.32969300  1
  C  369  1  0.36733800  0.53286200  0.19564400  1
  C  371  1  0.44992400  0.43645900  0.27955000  1
  C  373  1  0.56006500  0.29678000  0.50440400  1
  C  374  1  0.59195500  0.28388200  0.52978200  1
  C  375  1  0.61113800  0.23691400  0.50787000  1
  C  376  1  0.59919900  0.20283300  0.46014600  1
  C  377  1  0.56891100  0.21652800  0.43444900  1
  C  378  1  0.54944400  0.26277500  0.45635600  1
  C  380  1  0.65095000  0.25651100  0.58078000  1
  C  381  1  0.63280900  0.30366200  0.60232800  1
  C  385  1  0.68007800  0.24297400  0.60725600  1
  C  386  1  0.69138900  0.27652800  0.65503600  1
  C  387  1  0.67374800  0.32355500  0.67631000  1
  C  388  1  0.64446700  0.33716600  0.65000300  1
  C  393  1  0.53420100  0.33861500  0.52849000  1
  C  395  1  0.60933200  0.15498700  0.44183400  1
  C  397  1  0.20972100  0.21792200  0.72090800  1
  C  398  1  0.23522900  0.25908900  0.73021300  1
  C  399  1  0.26671400  0.28042100  0.76942600  1
  C  400  1  0.27245000  0.26127500  0.80024700  1
  C  401  1  0.24834000  0.21910800  0.78956000  1
  C  402  1  0.21755700  0.19764700  0.75036400  1
  C  404  1  0.28257600  0.34237000  0.75126500  1
  C  405  1  0.25094900  0.32139200  0.71244700  1
  C  409  1  0.30605600  0.38455500  0.76157400  1
  C  410  1  0.29787400  0.40580500  0.73321400  1
  C  411  1  0.26616000  0.38513500  0.69482000  1
  C  412  1  0.24265300  0.34294100  0.68442700  1
  C  417  1  0.17252800  0.20332200  0.68923200  1
  C  419  1  0.29107900  0.28914500  0.84555700  1
  C  421  1  0.87906400  0.52837700  0.78950900  1
  C  422  1  0.89676800  0.49009100  0.74617600  1
  C  423  1  0.90250600  0.49534800  0.70520200  1
  C  424  1  0.89131700  0.53925300  0.70721400  1
  C  425  1  0.87342200  0.57695700  0.75044600  1
  C  426  1  0.86741000  0.57165100  0.79066300  1
  C  428  1  0.92983900  0.41428900  0.66053800  1
  C  429  1  0.92504200  0.40934100  0.70148800  1
  C  433  1  0.94636400  0.37568500  0.61742400  1
  C  434  1  0.95834400  0.33225100  0.61527700  1
  C  435  1  0.95389900  0.32742100  0.65609600  1
  C  436  1  0.93708400  0.36584700  0.69918033  1
  C  441  1  0.87424400  0.52431200  0.83025900  1
  C  443  1  0.89271000  0.54561900  0.66772300  1
  N  8  1  0.85341100  0.47898000  0.56418000  1
  N  15  1  0.11241500  0.61357800  0.47813900  1
  N  23  1  0.12307100  0.56628500  0.52934300  1
  N  24  1  0.01913200  0.63305800  0.46101700  1
  N  25  1  0.92281200  0.52533100  0.63403600  1
  N  26  1  0.84327900  0.50701600  0.49659500  1
  N  34  1  0.49749900  0.10796900  0.47323000  1
  N  41  1  0.75323100  0.87783200  0.39771100  1
  N  49  1  0.76881100  0.97551100  0.44435200  1
  N  50  1  0.66069700  0.84649200  0.36328300  1
  N  51  1  0.58241700  0.13188700  0.45438300  1
  N  52  1  0.48463000  0.01627900  0.45730400  1
  N  60  1  0.18332900  0.37126600  0.90258300  1
  N  67  1  0.45002400  0.51930700  0.11857700  1
  N  75  1  0.46140900  0.46772800  0.02038200  1
  N  76  1  0.35871700  0.52390000  0.15288000  1
  N  77  1  0.26708700  0.32608500  0.87378300  1
  N  78  1  0.17422300  0.44525100  0.99586300  1
  N  86  1  0.34566400  0.47598800  0.36929200  1
  N  93  1  0.61677400  0.38352300  0.49298100  1
  N  101  1  0.62461300  0.42008600  0.43197300  1
  N  102  1  0.52468100  0.36909100  0.51508900  1
  N  103  1  0.42586600  0.44921900  0.31726500  1
  N  104  1  0.33857500  0.46109700  0.44609400  1
  N  112  1  0.99997400  0.89888800  0.53146300  1
  N  119  1  0.25309400  0.12985700  0.61787200  1
  N  127  1  0.26925700  0.03215100  0.56695800  1
  N  128  1  0.16161700  0.16078700  0.65662700  1
  N  129  1  0.08557300  0.87224100  0.54711200  1
  N  130  1  0.98645300  0.99216200  0.55226700  1
  N  138  1  0.67772100  0.63156100  0.10229600  1
  N  145  1  0.96207300  0.54582600  0.90750200  1
  N  153  1  0.96129300  0.55445600  0.99726900  1
  N  154  1  0.87901400  0.56110100  0.87218100  1
  N  155  1  0.75853800  0.68020100  0.13997700  1
  N  156  1  0.67598700  0.56037600  0.00760200  1
  N  163  1  0.17611200  0.46451900  0.56288700  1
  N  166  1  0.26017500  0.42457500  0.53082700  1
  N  187  1  0.82520400  0.10959600  0.54407700  1
  N  190  1  0.90788000  0.11581400  0.58639000  1
  N  211  1  0.51672400  0.43698800  0.88720300  1
  N  214  1  0.59947300  0.47255000  0.88215100  1
  N  235  1  0.66878900  0.53071900  0.41203900  1
  N  238  1  0.75523200  0.56538300  0.43871300  1
  N  259  1  0.32633200  0.89856400  0.46591100  1
  N  262  1  0.40903200  0.89245000  0.42494800  1
  N  283  1  0.01438900  0.56006800  0.12269700  1
  N  286  1  0.09832800  0.52255500  0.12275600  1
  N  307  1  0.13604000  0.78238100  0.45687800  1
  N  310  1  0.09391000  0.69643600  0.40746400  1
  N  331  1  0.78072100  0.68134200  0.23230300  1
  N  334  1  0.72470300  0.72133000  0.30944700  1
  N  355  1  0.47277400  0.53328900  0.31182900  1
  N  358  1  0.43305500  0.57983500  0.27036600  1
  N  379  1  0.63935700  0.22531000  0.53464400  1
  N  382  1  0.60391500  0.31506700  0.57611200  1
  N  403  1  0.28875100  0.32122200  0.77817400  1
  N  406  1  0.22871800  0.28095700  0.70376300  1
  N  427  1  0.91843900  0.45688500  0.66430400  1
  N  430  1  0.90865900  0.44725800  0.74220800  1
