# generated using pymatgen
data_U2H12C16N2O9
_symmetry_space_group_name_H-M   'P 1'
_cell_length_a   9.17590000
_cell_length_b   10.72442000
_cell_length_c   14.50162000
_cell_angle_alpha   102.53783000
_cell_angle_beta   98.34172000
_cell_angle_gamma   104.84878000
_symmetry_Int_Tables_number   1
_chemical_formula_structural   U2H12C16N2O9
_chemical_formula_sum   'U4 H24 C32 N4 O18'
_cell_volume   1315.68362189
_cell_formula_units_Z   2
loop_
 _symmetry_equiv_pos_site_id
 _symmetry_equiv_pos_as_xyz
  1  'x, y, z'
loop_
 _atom_site_type_symbol
 _atom_site_label
 _atom_site_symmetry_multiplicity
 _atom_site_fract_x
 _atom_site_fract_y
 _atom_site_fract_z
 _atom_site_occupancy
  U  U0  1  0.13345000  0.30001000  0.40653000  1
  U  U1  1  0.88433000  0.80896000  0.01508000  1
  U  U2  1  0.86393000  0.69814000  0.59410000  1
  U  U3  1  0.11515000  0.19169000  0.98482000  1
  H  H4  1  0.14850000  0.86697000  0.15258000  1
  H  H5  1  0.07180000  0.49938000  0.23891000  1
  H  H6  1  0.04070000  0.85643000  0.42602000  1
  H  H7  1  0.16396000  0.64733000  0.04917000  1
  H  H8  1  0.14658000  0.51583000  0.09600000  1
  H  H9  1  0.76688000  0.85676000  0.31684000  1
  H  H10  1  0.44420000  0.55529000  0.40033000  1
  H  H11  1  0.43417000  0.52699000  0.09592000  1
  H  H12  1  0.60636000  0.80198000  0.50408000  1
  H  H13  1  0.77035000  0.86403000  0.47377000  1
  H  H14  1  0.09263000  0.91816000  0.87700000  1
  H  H15  1  0.92585000  0.92771000  0.81298000  1
  H  H16  1  0.85089000  0.13402000  0.84668000  1
  H  H17  1  0.92450000  0.50073000  0.76154000  1
  H  H18  1  0.95790000  0.14524000  0.57306000  1
  H  H19  1  0.83520000  0.35098000  0.95081000  1
  H  H20  1  0.85379000  0.48417000  0.90549000  1
  H  H21  1  0.23377000  0.13925000  0.68281000  1
  H  H22  1  0.55715000  0.44193000  0.59996000  1
  H  H23  1  0.56244000  0.47197000  0.90312000  1
  H  H24  1  0.39480000  0.19794000  0.49862000  1
  H  H25  1  0.23225000  0.13339000  0.52720000  1
  H  H26  1  0.90531000  0.08193000  0.12217000  1
  H  H27  1  0.07741000  0.07754000  0.18901000  1
  C  C28  1  0.06333000  0.00426000  0.31369000  1
  C  C29  1  0.05744000  0.86856000  0.28176000  1
  C  C30  1  0.07524000  0.80037000  0.18742000  1
  C  C31  1  0.08268000  0.66578000  0.17585000  1
  C  C32  1  0.06639000  0.60152000  0.24995000  1
  C  C33  1  0.05738000  0.67290000  0.34246000  1
  C  C34  1  0.04741000  0.80193000  0.35559000  1
  C  C35  1  0.07977000  0.62227000  0.42871000  1
  C  C36  1  0.66402000  0.75335000  0.12245000  1
  C  C37  1  0.60502000  0.69725000  0.19797000  1
  C  C38  1  0.67037000  0.76524000  0.29658000  1
  C  C39  1  0.61467000  0.70888000  0.36718000  1
  C  C40  1  0.48983000  0.59256000  0.34349000  1
  C  C41  1  0.42042000  0.52473000  0.24345000  1
  C  C42  1  0.48159000  0.57902000  0.17188000  1
  C  C43  1  0.29232000  0.40598000  0.21940000  1
  C  C44  1  0.93614000  0.99542000  0.68590000  1
  C  C45  1  0.94199000  0.13191000  0.71753000  1
  C  C46  1  0.92477000  0.19996000  0.81199000  1
  C  C47  1  0.91586000  0.33429000  0.82406000  1
  C  C48  1  0.93232000  0.39925000  0.75046000  1
  C  C49  1  0.94274000  0.32845000  0.65816000  1
  C  C50  1  0.95277000  0.19890000  0.64410000  1
  C  C51  1  0.91927000  0.37787000  0.57154000  1
  C  C52  1  0.33665000  0.24716000  0.87753000  1
  C  C53  1  0.39489000  0.29975000  0.80076000  1
  C  C54  1  0.32968000  0.23240000  0.70282000  1
  C  C55  1  0.38397000  0.28923000  0.63256000  1
  C  C56  1  0.51103000  0.40524000  0.65652000  1
  C  C57  1  0.58066000  0.47240000  0.75617000  1
  C  C58  1  0.51978000  0.41855000  0.82771000  1
  C  C59  1  0.70670000  0.59264000  0.78150000  1
  N  N60  1  0.10515000  0.59467000  0.08923000  1
  N  N61  1  0.68683000  0.77544000  0.46823000  1
  N  N62  1  0.89425000  0.40460000  0.91129000  1
  N  N63  1  0.31191000  0.22389000  0.53171000  1
  O  O64  1  0.09725000  0.09868000  0.26230000  1
  O  O65  1  0.05077000  0.06204000  0.39861000  1
  O  O66  1  0.05657000  0.68743000  0.50956000  1
  O  O67  1  0.12679000  0.51927000  0.42475000  1
  O  O68  1  0.64964000  0.67624000  0.03726000  1
  O  O69  1  0.74764000  0.87748000  0.14025000  1
  O  O70  1  0.20994000  0.34800000  0.12922000  1
  O  O71  1  0.25190000  0.35397000  0.28913000  1
  O  O72  1  0.02288000  0.94322000  0.91699000  1
  O  O73  1  0.90432000  0.90331000  0.73865000  1
  O  O74  1  0.94767000  0.93752000  0.60105000  1
  O  O75  1  0.94382000  0.31189000  0.49147000  1
  O  O76  1  0.87038000  0.47946000  0.57361000  1
  O  O77  1  0.35151000  0.32496000  0.96192000  1
  O  O78  1  0.24974000  0.12338000  0.86021000  1
  O  O79  1  0.78801000  0.64986000  0.87185000  1
  O  O80  1  0.74507000  0.64792000  0.71258000  1
  O  O81  1  0.97119000  0.05609000  0.07972000  1
