# generated using pymatgen
data_H5(C5N)2
_symmetry_space_group_name_H-M   'P 1'
_cell_length_a   26.60640000
_cell_length_b   26.60640000
_cell_length_c   26.60640000
_cell_angle_alpha   90.00000000
_cell_angle_beta   90.00000000
_cell_angle_gamma   90.00000000
_symmetry_Int_Tables_number   1
_chemical_formula_structural   H5(C5N)2
_chemical_formula_sum   'H160 C320 N64'
_cell_volume   18834.68442087
_cell_formula_units_Z   32
loop_
 _symmetry_equiv_pos_site_id
 _symmetry_equiv_pos_as_xyz
  1  'x, y, z'
loop_
 _atom_site_type_symbol
 _atom_site_label
 _atom_site_symmetry_multiplicity
 _atom_site_fract_x
 _atom_site_fract_y
 _atom_site_fract_z
 _atom_site_occupancy
  H  7  1  0.09042800  0.03814300  0.98174900  1
  H  8  1  0.93179500  0.03604700  0.97999400  1
  H  9  1  0.01128000  0.11669400  0.87253100  1
  H  16  1  0.09043500  0.98341000  0.03990700  1
  H  17  1  0.01132300  0.90482800  0.14912700  1
  H  18  1  0.93180600  0.98546200  0.04168900  1
  H  25  1  0.43114800  0.98337600  0.48177500  1
  H  26  1  0.58976400  0.98562800  0.47976800  1
  H  27  1  0.51019700  0.90498500  0.37238500  1
  H  34  1  0.43118600  0.03830100  0.53978000  1
  H  35  1  0.51034700  0.11658400  0.64916000  1
  H  36  1  0.58980600  0.03581700  0.54176400  1
  H  43  1  0.23291400  0.83870400  0.23165900  1
  H  44  1  0.23539600  0.68004300  0.23042800  1
  H  45  1  0.15640600  0.75839700  0.12139200  1
  H  52  1  0.28853600  0.83873100  0.28994800  1
  H  53  1  0.36522400  0.75845300  0.40012900  1
  H  54  1  0.28626300  0.68006200  0.29111800  1
  H  61  1  0.28854000  0.18281500  0.73158300  1
  H  62  1  0.28631800  0.34148400  0.73052700  1
  H  63  1  0.36521500  0.26314500  0.62143000  1
  H  70  1  0.23303900  0.18280800  0.78997200  1
  H  71  1  0.15631100  0.26310400  0.90010700  1
  H  72  1  0.23528500  0.34147500  0.79108800  1
  H  79  1  0.79018200  0.18203800  0.78849100  1
  H  80  1  0.78417200  0.34056200  0.79278700  1
  H  81  1  0.86512700  0.26185300  0.90016300  1
  H  88  1  0.73129800  0.18205200  0.73319600  1
  H  89  1  0.65634600  0.26183900  0.62150800  1
  H  90  1  0.73745400  0.34056400  0.72875300  1
  H  97  1  0.73121100  0.83948600  0.28833900  1
  H  98  1  0.73760100  0.68099000  0.29300800  1
  H  99  1  0.65642100  0.75975000  0.40016700  1
  H  106  1  0.79030600  0.83946700  0.23322100  1
  H  107  1  0.86505500  0.75966300  0.12142300  1
  H  108  1  0.78385700  0.68096400  0.22863900  1
  H  115  1  0.59052300  0.53908800  0.48245500  1
  H  116  1  0.43187700  0.53692700  0.48060200  1
  H  117  1  0.51148600  0.61316500  0.37003800  1
  H  124  1  0.59053800  0.48262800  0.53919700  1
  H  125  1  0.51147900  0.40844700  0.65155000  1
  H  126  1  0.43188500  0.48463900  0.54096400  1
  H  133  1  0.93108400  0.48259400  0.98236900  1
  H  134  1  0.08974100  0.48469900  0.98055400  1
  H  135  1  0.01015900  0.40846600  0.86998600  1
  H  142  1  0.93108100  0.53904000  0.03911300  1
  H  143  1  0.01012900  0.61331100  0.15141100  1
  H  144  1  0.08973200  0.53693500  0.04095700  1
  H  151  1  0.89903600  0.88954600  0.04705500  1
  H  152  1  0.92935900  0.93674800  0.19518100  1
  H  159  1  0.62242900  0.13196300  0.54716900  1
  H  160  1  0.59236900  0.08454100  0.69524300  1
  H  167  1  0.38191600  0.64778000  0.29625800  1
  H  168  1  0.33399900  0.67589000  0.44458900  1
  H  175  1  0.13974600  0.37384800  0.79623000  1
  H  176  1  0.18749800  0.34561400  0.94459600  1
  H  183  1  0.62245900  0.88973300  0.47443900  1
  H  184  1  0.59216200  0.93679000  0.32626000  1
  H  191  1  0.89894600  0.13192800  0.97462300  1
  H  192  1  0.92935900  0.08483900  0.82649700  1
  H  199  1  0.13958300  0.64795700  0.22517200  1
  H  200  1  0.18785200  0.67571700  0.07690500  1
  H  207  1  0.38204300  0.37371100  0.72529900  1
  H  208  1  0.33385200  0.34576200  0.57702700  1
  H  215  1  0.12245300  0.13392000  0.97531100  1
  H  216  1  0.09401000  0.08480500  0.82745100  1
  H  223  1  0.39911800  0.88771900  0.47527700  1
  H  224  1  0.42744200  0.93677500  0.32737200  1
  H  231  1  0.64153700  0.37359600  0.72448000  1
  H  232  1  0.68785300  0.34368400  0.57598600  1
  H  239  1  0.88008200  0.64814100  0.22432400  1
  H  240  1  0.83346100  0.67772400  0.07589100  1
  H  247  1  0.39919000  0.13390100  0.54626000  1
  H  248  1  0.42759300  0.08492600  0.69419000  1
  H  255  1  0.12249600  0.88769600  0.04628700  1
  H  256  1  0.09402500  0.93664300  0.19420300  1
  H  263  1  0.88009300  0.37356000  0.79708700  1
  H  264  1  0.83374700  0.34373400  0.94557700  1
  H  271  1  0.64162400  0.64806200  0.29722000  1
  H  272  1  0.68786800  0.67789300  0.44576100  1
  H  279  1  0.09042800  0.03814300  0.28242900  1
  H  280  1  0.93179500  0.03604700  0.28067400  1
  H  281  1  0.01128000  0.11669400  0.17321100  1
  H  288  1  0.09043500  0.98341000  0.34058700  1
  H  289  1  0.01132300  0.90482800  0.44980700  1
  H  290  1  0.93180600  0.98546200  0.34236900  1
  H  297  1  0.43114800  0.98337600  0.78245500  1
  H  298  1  0.58976400  0.98562800  0.78044800  1
  H  299  1  0.51019700  0.90498500  0.67306500  1
  H  306  1  0.43118600  0.03830100  0.84046000  1
  H  307  1  0.51034700  0.11658400  0.94984000  1
  H  308  1  0.58980600  0.03581700  0.84244400  1
  H  315  1  0.23291400  0.83870400  0.53233900  1
  H  316  1  0.23539600  0.68004300  0.53110800  1
  H  317  1  0.15640600  0.75839700  0.42207200  1
  H  324  1  0.28853600  0.83873100  0.59062800  1
  H  325  1  0.36522400  0.75845300  0.70080900  1
  H  326  1  0.28626300  0.68006200  0.59179800  1
  H  333  1  0.28854000  0.18281500  0.03226250  1
  H  334  1  0.28631800  0.34148400  0.03120650  1
  H  335  1  0.36521500  0.26314500  0.92211000  1
  H  342  1  0.23303900  0.18280800  0.09065150  1
  H  343  1  0.15631100  0.26310400  0.20078700  1
  H  344  1  0.23528500  0.34147500  0.09176750  1
  H  351  1  0.79018200  0.18203800  0.08917050  1
  H  352  1  0.78417200  0.34056200  0.09346650  1
  H  353  1  0.86512700  0.26185300  0.20084300  1
  H  360  1  0.73129800  0.18205200  0.03387550  1
  H  361  1  0.65634600  0.26183900  0.92218800  1
  H  362  1  0.73745400  0.34056400  0.02943250  1
  H  369  1  0.73121100  0.83948600  0.58901900  1
  H  370  1  0.73760100  0.68099000  0.59368800  1
  H  371  1  0.65642100  0.75975000  0.70084700  1
  H  378  1  0.79030600  0.83946700  0.53390100  1
  H  379  1  0.86505500  0.75966300  0.42210300  1
  H  380  1  0.78385700  0.68096400  0.52931900  1
  H  387  1  0.59052300  0.53908800  0.78313500  1
  H  388  1  0.43187700  0.53692700  0.78128200  1
  H  389  1  0.51148600  0.61316500  0.67071800  1
  H  396  1  0.59053800  0.48262800  0.83987700  1
  H  397  1  0.51147900  0.40844700  0.95223000  1
  H  398  1  0.43188500  0.48463900  0.84164400  1
  H  405  1  0.93108400  0.48259400  0.28304900  1
  H  406  1  0.08974100  0.48469900  0.28123400  1
  H  407  1  0.01015900  0.40846600  0.17066600  1
  H  414  1  0.93108100  0.53904000  0.33979300  1
  H  415  1  0.01012900  0.61331100  0.45209100  1
  H  416  1  0.08973200  0.53693500  0.34163700  1
  H  423  1  0.89903600  0.88954600  0.34773500  1
  H  424  1  0.92935900  0.93674800  0.49586100  1
  H  431  1  0.62242900  0.13196300  0.84784900  1
  H  432  1  0.59236900  0.08454100  0.99592300  1
  H  439  1  0.38191600  0.64778000  0.59693800  1
  H  440  1  0.33399900  0.67589000  0.74526900  1
  H  447  1  0.13974600  0.37384800  0.09690950  1
  H  448  1  0.18749800  0.34561400  0.24527600  1
  H  455  1  0.62245900  0.88973300  0.77511900  1
  H  456  1  0.59216200  0.93679000  0.62694000  1
  H  463  1  0.89894600  0.13192800  0.27530300  1
  H  464  1  0.92935900  0.08483900  0.12717700  1
  H  471  1  0.13958300  0.64795700  0.52585200  1
  H  472  1  0.18785200  0.67571700  0.37758500  1
  H  479  1  0.38204300  0.37371100  0.02597850  1
  H  480  1  0.33385200  0.34576200  0.87770700  1
  H  487  1  0.12245300  0.13392000  0.27599100  1
  H  488  1  0.09401000  0.08480500  0.12813100  1
  H  495  1  0.39911800  0.88771900  0.77595700  1
  H  496  1  0.42744200  0.93677500  0.62805200  1
  H  503  1  0.64153700  0.37359600  0.02515950  1
  H  504  1  0.68785300  0.34368400  0.87666600  1
  H  511  1  0.88008200  0.64814100  0.52500400  1
  H  512  1  0.83346100  0.67772400  0.37657100  1
  H  519  1  0.39919000  0.13390100  0.84694000  1
  H  520  1  0.42759300  0.08492600  0.99487000  1
  H  527  1  0.12249600  0.88769600  0.34696700  1
  H  528  1  0.09402500  0.93664300  0.49488300  1
  H  535  1  0.88009300  0.37356000  0.09776650  1
  H  536  1  0.83374700  0.34373400  0.24625700  1
  H  543  1  0.64162400  0.64806200  0.59790000  1
  H  544  1  0.68786800  0.67789300  0.74644100  1
  C  1  1  0.01116400  0.02713100  0.98843200  1
  C  2  1  0.05641200  0.04583900  0.96615500  1
  C  3  1  0.05750000  0.07673700  0.92279300  1
  C  4  1  0.01128200  0.09088700  0.90116700  1
  C  5  1  0.96498600  0.07607000  0.92216900  1
  C  6  1  0.96593700  0.04482100  0.96529400  1
  C  10  1  0.01117000  0.99441900  0.03324800  1
  C  11  1  0.05642700  0.97572000  0.05551800  1
  C  12  1  0.05752900  0.94480300  0.09886600  1
  C  13  1  0.01131700  0.93064100  0.12049600  1
  C  14  1  0.96501600  0.94544600  0.09950300  1
  C  15  1  0.96594800  0.97669700  0.05637900  1
  C  19  1  0.51040400  0.99446800  0.48833400  1
  C  20  1  0.46514000  0.97576500  0.46608700  1
  C  21  1  0.46400100  0.94492700  0.42268000  1
  C  22  1  0.51021600  0.93078700  0.40102800  1
  C  23  1  0.55653900  0.94566700  0.42194000  1
  C  24  1  0.55560700  0.97684000  0.46511400  1
  C  28  1  0.51042600  0.02712000  0.53319100  1
  C  29  1  0.46519300  0.04588700  0.55544500  1
  C  30  1  0.46410300  0.07674000  0.59884500  1
  C  31  1  0.51035100  0.09084700  0.62045600  1
  C  32  1  0.55664400  0.07584300  0.59958100  1
  C  33  1  0.55566300  0.04468700  0.55640000  1
  C  37  1  0.24437400  0.75950500  0.23843000  1
  C  38  1  0.22537800  0.80461900  0.21606100  1
  C  39  1  0.19496200  0.80525400  0.17229800  1
  C  40  1  0.18158800  0.75881800  0.15057300  1
  C  41  1  0.19607100  0.71275000  0.17216700  1
  C  42  1  0.22685100  0.71409900  0.21552000  1
  C  46  1  0.27719600  0.75951700  0.28314100  1
  C  47  1  0.29614300  0.80464900  0.30551600  1
  C  48  1  0.32657700  0.80530600  0.34926400  1
  C  49  1  0.34006600  0.75887800  0.37092600  1
  C  50  1  0.32558800  0.71279100  0.34936700  1
  C  51  1  0.29478300  0.71412500  0.30603100  1
  C  55  1  0.27720700  0.26202700  0.73843900  1
  C  56  1  0.29614600  0.21690800  0.71603500  1
  C  57  1  0.32654500  0.21626700  0.67226700  1
  C  58  1  0.34006100  0.26270400  0.65063700  1
  C  59  1  0.32559200  0.30878000  0.67222600  1
  C  60  1  0.29480700  0.30743100  0.71557600  1
  C  64  1  0.24437200  0.26202200  0.78314300  1
  C  65  1  0.22543700  0.21689600  0.80553200  1
  C  66  1  0.19502700  0.21624000  0.84929600  1
  C  67  1  0.18148900  0.26267400  0.87092200  1
  C  68  1  0.19597400  0.30875800  0.84936000  1
  C  69  1  0.22679600  0.30741900  0.80603600  1
  C  73  1  0.77712900  0.26108500  0.78319100  1
  C  74  1  0.79689500  0.21596000  0.80483700  1
  C  75  1  0.82699700  0.21513200  0.84880300  1
  C  76  1  0.83984300  0.26146500  0.87107300  1
  C  77  1  0.82479400  0.30762800  0.85005100  1
  C  78  1  0.79372600  0.30643000  0.80688900  1
  C  82  1  0.74443800  0.26108600  0.73840900  1
  C  83  1  0.72461900  0.21596300  0.71681300  1
  C  84  1  0.69447600  0.21512000  0.67287200  1
  C  85  1  0.68165600  0.26144900  0.65057700  1
  C  86  1  0.69676500  0.30761600  0.67154200  1
  C  87  1  0.72785900  0.30642600  0.71468900  1
  C  91  1  0.74443400  0.76046400  0.28321600  1
  C  92  1  0.72459300  0.80559200  0.30478300  1
  C  93  1  0.69448300  0.80644900  0.34874700  1
  C  94  1  0.68172300  0.76012500  0.37109200  1
  C  95  1  0.69692600  0.71394500  0.35020900  1
  C  96  1  0.72795300  0.71513300  0.30702200  1
  C  100  1  0.77708800  0.76044900  0.23840900  1
  C  101  1  0.79693600  0.80555800  0.21680900  1
  C  102  1  0.82704200  0.80638500  0.17284300  1
  C  103  1  0.83983200  0.76003500  0.15056900  1
  C  104  1  0.82455400  0.71387300  0.17143200  1
  C  105  1  0.79354600  0.71509900  0.21462900  1
  C  109  1  0.51127600  0.52726000  0.48849500  1
  C  110  1  0.55656200  0.54616200  0.46641800  1
  C  111  1  0.55763300  0.57594800  0.42232000  1
  C  112  1  0.51144100  0.58869700  0.39981400  1
  C  113  1  0.46514000  0.57514700  0.42160500  1
  C  114  1  0.46600800  0.54510600  0.46552300  1
  C  118  1  0.51127900  0.49435900  0.53310500  1
  C  119  1  0.55657300  0.47549500  0.55519700  1
  C  120  1  0.55765200  0.44571200  0.59929600  1
  C  121  1  0.51145600  0.43286200  0.62173000  1
  C  122  1  0.46514400  0.44642300  0.59996900  1
  C  123  1  0.46601600  0.47647600  0.55605400  1
  C  127  1  0.01034400  0.49435900  0.98845000  1
  C  128  1  0.96505400  0.47548000  0.96636500  1
  C  129  1  0.96397900  0.44573500  0.92224400  1
  C  130  1  0.01017400  0.43287000  0.89982100  1
  C  131  1  0.05648600  0.44643400  0.92157900  1
  C  132  1  0.05561000  0.47649800  0.96548600  1
  C  136  1  0.01034000  0.52728300  0.03304500  1
  C  137  1  0.96504200  0.54616600  0.05511900  1
  C  138  1  0.96395600  0.57595200  0.09921100  1
  C  139  1  0.01014800  0.58885500  0.12162200  1
  C  140  1  0.05646500  0.57524500  0.09989600  1
  C  141  1  0.05560000  0.54514000  0.05602000  1
  C  145  1  0.89182700  0.89047800  0.08478600  1
  C  147  1  0.85093400  0.85059200  0.15417000  1
  C  149  1  0.90922900  0.91688900  0.16917900  1
  C  150  1  0.92024500  0.92139100  0.11726700  1
  C  153  1  0.62967600  0.13100200  0.58488900  1
  C  155  1  0.67057200  0.17089100  0.65426000  1
  C  157  1  0.61242800  0.10446700  0.66923800  1
  C  158  1  0.60140400  0.09990000  0.61732900  1
  C  161  1  0.38082600  0.64001500  0.33387500  1
  C  163  1  0.42065100  0.59834500  0.40281300  1
  C  165  1  0.35399200  0.65617300  0.41837700  1
  C  166  1  0.34965300  0.66785800  0.36661600  1
  C  169  1  0.14080600  0.38159200  0.83385200  1
  C  171  1  0.10098000  0.42325200  0.90276400  1
  C  173  1  0.16754200  0.36536400  0.91837700  1
  C  174  1  0.17191800  0.35370000  0.86661100  1
  C  177  1  0.62966400  0.89061300  0.43670300  1
  C  179  1  0.67056800  0.85066800  0.36736800  1
  C  181  1  0.61227400  0.91694100  0.35228300  1
  C  182  1  0.60125000  0.92149600  0.40418900  1
  C  185  1  0.89175200  0.13100500  0.93688800  1
  C  187  1  0.85084100  0.17092200  0.86751300  1
  C  189  1  0.90921000  0.10466500  0.85250900  1
  C  190  1  0.92019600  0.10009500  0.90442500  1
  C  193  1  0.14073100  0.64012800  0.18756900  1
  C  195  1  0.10098000  0.59847600  0.11864000  1
  C  197  1  0.16777200  0.65606800  0.10310300  1
  C  198  1  0.17211900  0.66779100  0.15485500  1
  C  201  1  0.38089700  0.38150600  0.68769200  1
  C  203  1  0.42065100  0.42318800  0.61871200  1
  C  205  1  0.35390800  0.36544300  0.60322300  1
  C  206  1  0.34965000  0.35371600  0.65498200  1
  C  209  1  0.13005300  0.13260800  0.93766900  1
  C  211  1  0.17147600  0.17197200  0.86823900  1
  C  213  1  0.11371000  0.10511200  0.85343800  1
  C  214  1  0.10218300  0.10111700  0.90528200  1
  C  217  1  0.39149600  0.88901200  0.43763900  1
  C  219  1  0.35004200  0.84959300  0.36825800  1
  C  221  1  0.40777000  0.91647100  0.35338200  1
  C  222  1  0.41933200  0.92049300  0.40521500  1
  C  225  1  0.64233100  0.38098000  0.68677800  1
  C  227  1  0.60209600  0.42219500  0.61779900  1
  C  229  1  0.66825300  0.36381300  0.60218200  1
  C  230  1  0.67300000  0.35261400  0.65401200  1
  C  233  1  0.87925500  0.64071800  0.18663000  1
  C  235  1  0.91951600  0.59953600  0.11765400  1
  C  237  1  0.85316000  0.65769100  0.10208500  1
  C  238  1  0.84835600  0.66890700  0.15391300  1
  C  241  1  0.39158300  0.13262800  0.58390100  1
  C  243  1  0.35009100  0.17201700  0.65327900  1
  C  245  1  0.40790200  0.10521000  0.66817800  1
  C  246  1  0.41946700  0.10121600  0.61635200  1
  C  249  1  0.13009100  0.88895500  0.08393100  1
  C  251  1  0.17145000  0.84953600  0.15330800  1
  C  253  1  0.11372900  0.91635900  0.16820200  1
  C  254  1  0.10221500  0.92041000  0.11635700  1
  C  257  1  0.87930000  0.38095400  0.83478400  1
  C  259  1  0.91955700  0.42216500  0.90374500  1
  C  261  1  0.85337000  0.36383100  0.91936900  1
  C  262  1  0.84858200  0.35262500  0.86754000  1
  C  265  1  0.64236400  0.64067700  0.33492300  1
  C  267  1  0.60208500  0.59951700  0.40385000  1
  C  269  1  0.66824900  0.65780000  0.41955300  1
  C  270  1  0.67303700  0.66900800  0.36772600  1
  C  273  1  0.01116400  0.02713100  0.28911200  1
  C  274  1  0.05641200  0.04583900  0.26683500  1
  C  275  1  0.05750000  0.07673700  0.22347300  1
  C  276  1  0.01128200  0.09088700  0.20184700  1
  C  277  1  0.96498600  0.07607000  0.22284900  1
  C  278  1  0.96593700  0.04482100  0.26597400  1
  C  282  1  0.01117000  0.99441900  0.33392800  1
  C  283  1  0.05642700  0.97572000  0.35619800  1
  C  284  1  0.05752900  0.94480300  0.39954600  1
  C  285  1  0.01131700  0.93064100  0.42117600  1
  C  286  1  0.96501600  0.94544600  0.40018300  1
  C  287  1  0.96594800  0.97669700  0.35705900  1
  C  291  1  0.51040400  0.99446800  0.78901400  1
  C  292  1  0.46514000  0.97576500  0.76676700  1
  C  293  1  0.46400100  0.94492700  0.72336000  1
  C  294  1  0.51021600  0.93078700  0.70170800  1
  C  295  1  0.55653900  0.94566700  0.72262000  1
  C  296  1  0.55560700  0.97684000  0.76579400  1
  C  300  1  0.51042600  0.02712000  0.83387100  1
  C  301  1  0.46519300  0.04588700  0.85612500  1
  C  302  1  0.46410300  0.07674000  0.89952500  1
  C  303  1  0.51035100  0.09084700  0.92113600  1
  C  304  1  0.55664400  0.07584300  0.90026100  1
  C  305  1  0.55566300  0.04468700  0.85708000  1
  C  309  1  0.24437400  0.75950500  0.53911000  1
  C  310  1  0.22537800  0.80461900  0.51674100  1
  C  311  1  0.19496200  0.80525400  0.47297800  1
  C  312  1  0.18158800  0.75881800  0.45125300  1
  C  313  1  0.19607100  0.71275000  0.47284700  1
  C  314  1  0.22685100  0.71409900  0.51620000  1
  C  318  1  0.27719600  0.75951700  0.58382100  1
  C  319  1  0.29614300  0.80464900  0.60619600  1
  C  320  1  0.32657700  0.80530600  0.64994400  1
  C  321  1  0.34006600  0.75887800  0.67160600  1
  C  322  1  0.32558800  0.71279100  0.65004700  1
  C  323  1  0.29478300  0.71412500  0.60671100  1
  C  327  1  0.27720700  0.26202700  0.03911850  1
  C  328  1  0.29614600  0.21690800  0.01671450  1
  C  329  1  0.32654500  0.21626700  0.97294700  1
  C  330  1  0.34006100  0.26270400  0.95131700  1
  C  331  1  0.32559200  0.30878000  0.97290600  1
  C  332  1  0.29480700  0.30743100  0.01625550  1
  C  336  1  0.24437200  0.26202200  0.08382250  1
  C  337  1  0.22543700  0.21689600  0.10621200  1
  C  338  1  0.19502700  0.21624000  0.14997600  1
  C  339  1  0.18148900  0.26267400  0.17160200  1
  C  340  1  0.19597400  0.30875800  0.15004000  1
  C  341  1  0.22679600  0.30741900  0.10671600  1
  C  345  1  0.77712900  0.26108500  0.08387050  1
  C  346  1  0.79689500  0.21596000  0.10551700  1
  C  347  1  0.82699700  0.21513200  0.14948300  1
  C  348  1  0.83984300  0.26146500  0.17175300  1
  C  349  1  0.82479400  0.30762800  0.15073100  1
  C  350  1  0.79372600  0.30643000  0.10756900  1
  C  354  1  0.74443800  0.26108600  0.03908850  1
  C  355  1  0.72461900  0.21596300  0.01749250  1
  C  356  1  0.69447600  0.21512000  0.97355200  1
  C  357  1  0.68165600  0.26144900  0.95125700  1
  C  358  1  0.69676500  0.30761600  0.97222200  1
  C  359  1  0.72785900  0.30642600  0.01536850  1
  C  363  1  0.74443400  0.76046400  0.58389600  1
  C  364  1  0.72459300  0.80559200  0.60546300  1
  C  365  1  0.69448300  0.80644900  0.64942700  1
  C  366  1  0.68172300  0.76012500  0.67177200  1
  C  367  1  0.69692600  0.71394500  0.65088900  1
  C  368  1  0.72795300  0.71513300  0.60770200  1
  C  372  1  0.77708800  0.76044900  0.53908900  1
  C  373  1  0.79693600  0.80555800  0.51748900  1
  C  374  1  0.82704200  0.80638500  0.47352300  1
  C  375  1  0.83983200  0.76003500  0.45124900  1
  C  376  1  0.82455400  0.71387300  0.47211200  1
  C  377  1  0.79354600  0.71509900  0.51530900  1
  C  381  1  0.51127600  0.52726000  0.78917500  1
  C  382  1  0.55656200  0.54616200  0.76709800  1
  C  383  1  0.55763300  0.57594800  0.72300000  1
  C  384  1  0.51144100  0.58869700  0.70049400  1
  C  385  1  0.46514000  0.57514700  0.72228500  1
  C  386  1  0.46600800  0.54510600  0.76620300  1
  C  390  1  0.51127900  0.49435900  0.83378500  1
  C  391  1  0.55657300  0.47549500  0.85587700  1
  C  392  1  0.55765200  0.44571200  0.89997600  1
  C  393  1  0.51145600  0.43286200  0.92241000  1
  C  394  1  0.46514400  0.44642300  0.90064900  1
  C  395  1  0.46601600  0.47647600  0.85673400  1
  C  399  1  0.01034400  0.49435900  0.28913000  1
  C  400  1  0.96505400  0.47548000  0.26704500  1
  C  401  1  0.96397900  0.44573500  0.22292400  1
  C  402  1  0.01017400  0.43287000  0.20050100  1
  C  403  1  0.05648600  0.44643400  0.22225900  1
  C  404  1  0.05561000  0.47649800  0.26616600  1
  C  408  1  0.01034000  0.52728300  0.33372500  1
  C  409  1  0.96504200  0.54616600  0.35579900  1
  C  410  1  0.96395600  0.57595200  0.39989100  1
  C  411  1  0.01014800  0.58885500  0.42230200  1
  C  412  1  0.05646500  0.57524500  0.40057600  1
  C  413  1  0.05560000  0.54514000  0.35670000  1
  C  417  1  0.89182700  0.89047800  0.38546600  1
  C  419  1  0.85093400  0.85059200  0.45485000  1
  C  421  1  0.90922900  0.91688900  0.46985900  1
  C  422  1  0.92024500  0.92139100  0.41794700  1
  C  425  1  0.62967600  0.13100200  0.88556900  1
  C  427  1  0.67057200  0.17089100  0.95494000  1
  C  429  1  0.61242800  0.10446700  0.96991800  1
  C  430  1  0.60140400  0.09990000  0.91800900  1
  C  433  1  0.38082600  0.64001500  0.63455500  1
  C  435  1  0.42065100  0.59834500  0.70349300  1
  C  437  1  0.35399200  0.65617300  0.71905700  1
  C  438  1  0.34965300  0.66785800  0.66729600  1
  C  441  1  0.14080600  0.38159200  0.13453200  1
  C  443  1  0.10098000  0.42325200  0.20344400  1
  C  445  1  0.16754200  0.36536400  0.21905700  1
  C  446  1  0.17191800  0.35370000  0.16729100  1
  C  449  1  0.62966400  0.89061300  0.73738300  1
  C  451  1  0.67056800  0.85066800  0.66804800  1
  C  453  1  0.61227400  0.91694100  0.65296300  1
  C  454  1  0.60125000  0.92149600  0.70486900  1
  C  457  1  0.89175200  0.13100500  0.23756800  1
  C  459  1  0.85084100  0.17092200  0.16819300  1
  C  461  1  0.90921000  0.10466500  0.15318900  1
  C  462  1  0.92019600  0.10009500  0.20510500  1
  C  465  1  0.14073100  0.64012800  0.48824900  1
  C  467  1  0.10098000  0.59847600  0.41932000  1
  C  469  1  0.16777200  0.65606800  0.40378300  1
  C  470  1  0.17211900  0.66779100  0.45553500  1
  C  473  1  0.38089700  0.38150600  0.98837200  1
  C  475  1  0.42065100  0.42318800  0.91939200  1
  C  477  1  0.35390800  0.36544300  0.90390300  1
  C  478  1  0.34965000  0.35371600  0.95566200  1
  C  481  1  0.13005300  0.13260800  0.23834900  1
  C  483  1  0.17147600  0.17197200  0.16891900  1
  C  485  1  0.11371000  0.10511200  0.15411800  1
  C  486  1  0.10218300  0.10111700  0.20596200  1
  C  489  1  0.39149600  0.88901200  0.73831900  1
  C  491  1  0.35004200  0.84959300  0.66893800  1
  C  493  1  0.40777000  0.91647100  0.65406200  1
  C  494  1  0.41933200  0.92049300  0.70589500  1
  C  497  1  0.64233100  0.38098000  0.98745800  1
  C  499  1  0.60209600  0.42219500  0.91847900  1
  C  501  1  0.66825300  0.36381300  0.90286200  1
  C  502  1  0.67300000  0.35261400  0.95469200  1
  C  505  1  0.87925500  0.64071800  0.48731000  1
  C  507  1  0.91951600  0.59953600  0.41833400  1
  C  509  1  0.85316000  0.65769100  0.40276500  1
  C  510  1  0.84835600  0.66890700  0.45459300  1
  C  513  1  0.39158300  0.13262800  0.88458100  1
  C  515  1  0.35009100  0.17201700  0.95395900  1
  C  517  1  0.40790200  0.10521000  0.96885800  1
  C  518  1  0.41946700  0.10121600  0.91703200  1
  C  521  1  0.13009100  0.88895500  0.38461100  1
  C  523  1  0.17145000  0.84953600  0.45398800  1
  C  525  1  0.11372900  0.91635900  0.46888200  1
  C  526  1  0.10221500  0.92041000  0.41703700  1
  C  529  1  0.87930000  0.38095400  0.13546400  1
  C  531  1  0.91955700  0.42216500  0.20442500  1
  C  533  1  0.85337000  0.36383100  0.22004900  1
  C  534  1  0.84858200  0.35262500  0.16822000  1
  C  537  1  0.64236400  0.64067700  0.63560300  1
  C  539  1  0.60208500  0.59951700  0.70453000  1
  C  541  1  0.66824900  0.65780000  0.72023300  1
  C  542  1  0.67303700  0.66900800  0.66840600  1
  N  146  1  0.85989100  0.85568100  0.10401300  1
  N  148  1  0.87639500  0.88147200  0.18595900  1
  N  154  1  0.66156300  0.16584500  0.60410700  1
  N  156  1  0.64520600  0.13993000  0.68603400  1
  N  162  1  0.41572700  0.60802300  0.35278200  1
  N  164  1  0.38954200  0.62332400  0.43478300  1
  N  170  1  0.10591600  0.41361500  0.85273500  1
  N  172  1  0.13201400  0.39823900  0.93477500  1
  N  178  1  0.66160800  0.85580200  0.41752000  1
  N  180  1  0.64511600  0.88151400  0.33554400  1
  N  186  1  0.85980800  0.16579600  0.91766700  1
  N  188  1  0.87636400  0.14007500  0.83573900  1
  N  194  1  0.10578400  0.60817700  0.16867100  1
  N  196  1  0.13218300  0.62328200  0.08665500  1
  N  202  1  0.41579500  0.41348300  0.66874900  1
  N  204  1  0.38945500  0.39827600  0.58678400  1
  N  210  1  0.16195800  0.16738600  0.91835400  1
  N  212  1  0.14648200  0.14055200  0.83660300  1
  N  218  1  0.35959700  0.85420800  0.41836200  1
  N  220  1  0.37500800  0.88100200  0.33658700  1
  N  226  1  0.60745900  0.41300600  0.66787700  1
  N  228  1  0.63275400  0.39672800  0.58578000  1
  N  234  1  0.91420100  0.60877100  0.16773000  1
  N  236  1  0.88873000  0.62486500  0.08566100  1
  N  242  1  0.35964100  0.16739500  0.60317500  1
  N  244  1  0.37509500  0.14064300  0.68495900  1
  N  250  1  0.16199000  0.85414400  0.10319700  1
  N  252  1  0.14648800  0.88089700  0.18502100  1
  N  258  1  0.91419400  0.41296800  0.85367100  1
  N  260  1  0.88888000  0.39673200  0.93576700  1
  N  266  1  0.60744800  0.60866200  0.35377200  1
  N  268  1  0.63272000  0.62490600  0.43594000  1
  N  418  1  0.85989100  0.85568100  0.40469300  1
  N  420  1  0.87639500  0.88147200  0.48663900  1
  N  426  1  0.66156300  0.16584500  0.90478700  1
  N  428  1  0.64520600  0.13993000  0.98671400  1
  N  434  1  0.41572700  0.60802300  0.65346200  1
  N  436  1  0.38954200  0.62332400  0.73546300  1
  N  442  1  0.10591600  0.41361500  0.15341500  1
  N  444  1  0.13201400  0.39823900  0.23545500  1
  N  450  1  0.66160800  0.85580200  0.71820000  1
  N  452  1  0.64511600  0.88151400  0.63622400  1
  N  458  1  0.85980800  0.16579600  0.21834700  1
  N  460  1  0.87636400  0.14007500  0.13641900  1
  N  466  1  0.10578400  0.60817700  0.46935100  1
  N  468  1  0.13218300  0.62328200  0.38733500  1
  N  474  1  0.41579500  0.41348300  0.96942900  1
  N  476  1  0.38945500  0.39827600  0.88746400  1
  N  482  1  0.16195800  0.16738600  0.21903400  1
  N  484  1  0.14648200  0.14055200  0.13728300  1
  N  490  1  0.35959700  0.85420800  0.71904200  1
  N  492  1  0.37500800  0.88100200  0.63726700  1
  N  498  1  0.60745900  0.41300600  0.96855700  1
  N  500  1  0.63275400  0.39672800  0.88646000  1
  N  506  1  0.91420100  0.60877100  0.46841000  1
  N  508  1  0.88873000  0.62486500  0.38634100  1
  N  514  1  0.35964100  0.16739500  0.90385500  1
  N  516  1  0.37509500  0.14064300  0.98563900  1
  N  522  1  0.16199000  0.85414400  0.40387700  1
  N  524  1  0.14648800  0.88089700  0.48570100  1
  N  530  1  0.91419400  0.41296800  0.15435100  1
  N  532  1  0.88888000  0.39673200  0.23644700  1
  N  538  1  0.60744800  0.60866200  0.65445200  1
  N  540  1  0.63272000  0.62490600  0.73662000  1
