# generated using pymatgen
data_Cu2H15C24NO8
_symmetry_space_group_name_H-M   'P 1'
_cell_length_a   11.56227000
_cell_length_b   11.56251000
_cell_length_c   18.90044000
_cell_angle_alpha   94.83520000
_cell_angle_beta   94.82421000
_cell_angle_gamma   96.88123000
_symmetry_Int_Tables_number   1
_chemical_formula_structural   Cu2H15C24NO8
_chemical_formula_sum   'Cu4 H30 C48 N2 O16'
_cell_volume   2488.29186697
_cell_formula_units_Z   2
loop_
 _symmetry_equiv_pos_site_id
 _symmetry_equiv_pos_as_xyz
  1  'x, y, z'
loop_
 _atom_site_type_symbol
 _atom_site_label
 _atom_site_symmetry_multiplicity
 _atom_site_fract_x
 _atom_site_fract_y
 _atom_site_fract_z
 _atom_site_occupancy
  Cu  Cu1  1  0.97480000  0.08769000  0.47371000  1.0
  Cu  Cu2  1  0.91231000  0.02521000  0.02630000  1.0
  Cu  Cu3  1  0.02520000  0.91231000  0.52629000  1.0
  Cu  Cu4  1  0.08769000  0.97479000  0.97370000  1.0
  H  H1  1  0.76714000  0.21491000  0.63438000  1.0
  H  H2  1  0.29752000  0.32725000  0.52683000  1.0
  H  H3  1  0.48625000  0.43466000  0.58501000  1.0
  H  H4  1  0.53594000  0.14324000  0.70664000  1.0
  H  H5  1  0.62475000  0.45495000  0.69847000  1.0
  H  H6  1  0.70488000  0.36643000  0.64714000  1.0
  H  H7  1  0.34829000  0.03548000  0.64700000  1.0
  H  H8  1  0.78507000  0.23288000  0.86563000  1.0
  H  H9  1  0.67274000  0.70251000  0.97319000  1.0
  H  H10  1  0.56533000  0.51377000  0.91499000  1.0
  H  H11  1  0.85677000  0.46403000  0.79335000  1.0
  H  H12  1  0.54504000  0.37526000  0.80155000  1.0
  H  H13  1  0.63356000  0.29512000  0.85285000  1.0
  H  H14  1  0.96453000  0.65170000  0.85299000  1.0
  H  H15  1  0.23286000  0.78509000  0.36562000  1.0
  H  H16  1  0.70249000  0.67275000  0.47317000  1.0
  H  H17  1  0.51375000  0.56534000  0.41499000  1.0
  H  H18  1  0.46406000  0.85676000  0.29336000  1.0
  H  H19  1  0.37526000  0.54505000  0.30153000  1.0
  H  H20  1  0.29512000  0.63357000  0.35286000  1.0
  H  H21  1  0.65171000  0.96452000  0.35300000  1.0
  H  H22  1  0.21493000  0.76711000  0.13437000  1.0
  H  H23  1  0.32726000  0.29749000  0.02681000  1.0
  H  H24  1  0.43467000  0.48623000  0.08501000  1.0
  H  H25  1  0.14323000  0.53597000  0.20665000  1.0
  H  H26  1  0.45496000  0.62474000  0.19845000  1.0
  H  H27  1  0.36644000  0.70487000  0.14715000  1.0
  H  H28  1  0.03547000  0.34830000  0.14701000  1.0
  H  H29  1  0.99004000  0.00995000  0.74999000  1.0
  H  H30  1  0.00996000  0.99004000  0.25001000  1.0
  C  C1  1  0.80056000  0.19084000  0.68576000  1.0
  C  C2  1  0.88168000  0.11029000  0.68615000  1.0
  C  C3  1  0.19852000  0.10995000  0.55049000  1.0
  C  C4  1  0.52392000  0.29569000  0.64950000  1.0
  C  C5  1  0.31200000  0.17456000  0.58339000  1.0
  C  C6  1  0.35086000  0.28742000  0.56578000  1.0
  C  C7  1  0.45629000  0.34691000  0.59846000  1.0
  C  C8  1  0.48452000  0.18325000  0.66684000  1.0
  C  C9  1  0.63783000  0.36325000  0.68509000  1.0
  C  C10  1  0.37971000  0.12280000  0.63387000  1.0
  C  C11  1  0.92105000  0.06587000  0.61685000  1.0
  C  C12  1  0.80915000  0.19945000  0.81424000  1.0
  C  C13  1  0.88971000  0.11832000  0.81385000  1.0
  C  C14  1  0.89005000  0.80149000  0.94952000  1.0
  C  C15  1  0.70431000  0.47609000  0.85050000  1.0
  C  C16  1  0.82544000  0.68800000  0.91661000  1.0
  C  C17  1  0.71257000  0.64916000  0.93423000  1.0
  C  C18  1  0.65308000  0.54372000  0.90154000  1.0
  C  C19  1  0.81676000  0.51547000  0.83315000  1.0
  C  C20  1  0.63674000  0.36217000  0.81491000  1.0
  C  C21  1  0.87720000  0.62028000  0.86613000  1.0
  C  C22  1  0.93412000  0.07896000  0.88315000  1.0
  C  C23  1  0.19944000  0.80916000  0.31424000  1.0
  C  C24  1  0.11832000  0.88971000  0.31385000  1.0
  C  C25  1  0.80148000  0.89005000  0.44951000  1.0
  C  C26  1  0.47609000  0.70431000  0.35050000  1.0
  C  C27  1  0.68800000  0.82544000  0.41661000  1.0
  C  C28  1  0.64914000  0.71257000  0.43422000  1.0
  C  C29  1  0.54371000  0.65308000  0.40154000  1.0
  C  C30  1  0.51549000  0.81675000  0.33316000  1.0
  C  C31  1  0.36217000  0.63675000  0.31491000  1.0
  C  C32  1  0.62029000  0.87719000  0.36613000  1.0
  C  C33  1  0.07895000  0.93413000  0.38315000  1.0
  C  C34  1  0.19085000  0.80054000  0.18576000  1.0
  C  C35  1  0.11029000  0.88167000  0.18615000  1.0
  C  C36  1  0.10996000  0.19851000  0.05048000  1.0
  C  C37  1  0.29569000  0.52391000  0.14950000  1.0
  C  C38  1  0.17456000  0.31199000  0.08339000  1.0
  C  C39  1  0.28743000  0.35084000  0.06577000  1.0
  C  C40  1  0.34692000  0.45627000  0.09845000  1.0
  C  C41  1  0.18324000  0.48453000  0.16685000  1.0
  C  C42  1  0.36327000  0.63782000  0.18509000  1.0
  C  C43  1  0.12280000  0.37972000  0.13387000  1.0
  C  C44  1  0.06588000  0.92104000  0.11685000  1.0
  C  C45  1  0.76252000  0.23748000  0.75000000  1.0
  C  C46  1  0.92730000  0.07270000  0.75000000  1.0
  C  C47  1  0.23748000  0.76252000  0.25000000  1.0
  C  C48  1  0.07270000  0.92730000  0.25000000  1.0
  N  N1  1  0.68222000  0.31776000  0.75000000  1.0
  N  N2  1  0.31778000  0.68223000  0.25000000  1.0
  O  O1  1  0.91359000  0.13118000  0.56549000  1.0
  O  O2  1  0.13100000  0.16637000  0.51312000  1.0
  O  O3  1  0.17679000  0.00244000  0.56286000  1.0
  O  O4  1  0.96021000  0.96671000  0.61442000  1.0
  O  O5  1  0.86880000  0.08642000  0.93452000  1.0
  O  O6  1  0.83362000  0.86901000  0.98689000  1.0
  O  O7  1  0.99756000  0.82321000  0.93714000  1.0
  O  O8  1  0.03327000  0.03980000  0.88557000  1.0
  O  O9  1  0.08641000  0.86882000  0.43451000  1.0
  O  O10  1  0.86900000  0.83362000  0.48688000  1.0
  O  O11  1  0.82322000  0.99756000  0.43714000  1.0
  O  O12  1  0.03979000  0.03329000  0.38558000  1.0
  O  O13  1  0.13120000  0.91358000  0.06548000  1.0
  O  O14  1  0.16638000  0.13099000  0.01311000  1.0
  O  O15  1  0.00244000  0.17679000  0.06286000  1.0
  O  O16  1  0.96673000  0.96020000  0.11443000  1.0
