# generated using pymatgen
data_NiH28C36(NO3)2
_symmetry_space_group_name_H-M   'P 1'
_cell_length_a   13.73455000
_cell_length_b   23.74366413
_cell_length_c   23.74570271
_cell_angle_alpha   74.62574427
_cell_angle_beta   73.23672807
_cell_angle_gamma   73.23523608
_symmetry_Int_Tables_number   1
_chemical_formula_structural   NiH28C36(NO3)2
_chemical_formula_sum   'Ni8 H224 C288 N16 O48'
_cell_volume   6958.27741171
_cell_formula_units_Z   8
loop_
 _symmetry_equiv_pos_site_id
 _symmetry_equiv_pos_as_xyz
  1  'x, y, z'
loop_
 _atom_site_type_symbol
 _atom_site_label
 _atom_site_symmetry_multiplicity
 _atom_site_fract_x
 _atom_site_fract_y
 _atom_site_fract_z
 _atom_site_occupancy
  Ni  Ni1  1  0.83208000  0.75431000  0.34449000  1.0
  Ni  Ni2  1  0.19351000  0.93907000  0.66934000  1.0
  Ni  Ni3  1  0.56954000  0.25428000  0.84466000  1.0
  Ni  Ni4  1  0.69893000  0.43929000  0.16905000  1.0
  Ni  Ni5  1  0.06955000  0.34465000  0.75428000  1.0
  Ni  Ni6  1  0.19892000  0.66905000  0.93930000  1.0
  Ni  Ni7  1  0.33208000  0.84448000  0.25432000  1.0
  Ni  Ni8  1  0.69350000  0.16933000  0.43906000  1.0
  H  H1  1  0.59518000  0.91654000  0.25604000  1.0
  H  H2  1  0.56111000  0.11595000  0.95297000  1.0
  H  H3  1  0.41261000  0.95308000  0.66261000  1.0
  H  H4  1  0.97214000  0.94687000  0.65520000  1.0
  H  H5  1  0.89292000  0.82036000  0.16050000  1.0
  H  H6  1  0.99843000  0.83586000  0.05652000  1.0
  H  H7  1  0.01898000  0.88971000  0.95064000  1.0
  H  H8  1  0.87687000  0.97556000  0.92045000  1.0
  H  H9  1  0.71525000  0.00658000  0.99449000  1.0
  H  H10  1  0.52170000  0.01348000  0.14243000  1.0
  H  H11  1  0.55057000  0.00667000  0.06741000  1.0
  H  H12  1  0.68089000  0.23133000  0.02456000  1.0
  H  H13  1  0.71555000  0.22596000  0.12130000  1.0
  H  H14  1  0.72526000  0.17174000  0.22501000  1.0
  H  H15  1  0.68839000  0.06951000  0.26098000  1.0
  H  H16  1  0.63646000  0.02363000  0.19679000  1.0
  H  H17  1  0.56194000  0.76709000  0.63815000  1.0
  H  H18  1  0.74225000  0.70910000  0.61730000  1.0
  H  H19  1  0.93309000  0.69985000  0.60396000  1.0
  H  H20  1  0.99363000  0.78484000  0.61395000  1.0
  H  H21  1  0.87004000  0.87897000  0.63373000  1.0
  H  H22  1  0.75736000  0.96636000  0.60967000  1.0
  H  H23  1  0.62773000  0.99916000  0.64209000  1.0
  H  H24  1  0.82341000  0.97605000  0.83932000  1.0
  H  H25  1  0.64327000  0.99255000  0.89932000  1.0
  H  H26  1  0.45434000  0.99920000  0.91129000  1.0
  H  H27  1  0.39324000  0.98614000  0.82781000  1.0
  H  H28  1  0.51626000  0.96949000  0.73229000  1.0
  H  H29  1  0.26283000  0.59838000  0.17568000  1.0
  H  H30  1  0.17078000  0.63174000  0.13162000  1.0
  H  H31  1  0.98649000  0.63419000  0.34611000  1.0
  H  H32  1  0.12876000  0.58608000  0.26989000  1.0
  H  H33  1  0.13348000  0.76346000  0.16170000  1.0
  H  H34  1  0.99055000  0.80360000  0.24076000  1.0
  H  H35  1  0.24555000  0.72568000  0.09600000  1.0
  H  H36  1  0.33053000  0.66124000  0.07415000  1.0
  H  H37  1  0.33393000  0.70191000  0.18638000  1.0
  H  H38  1  0.41150000  0.72281000  0.11395000  1.0
  H  H39  1  0.57530000  0.52252000  0.25303000  1.0
  H  H40  1  0.43256000  0.61699000  0.24760000  1.0
  H  H41  1  0.49514000  0.62420000  0.05736000  1.0
  H  H42  1  0.62442000  0.52855000  0.07112000  1.0
  H  H43  1  0.90084000  0.86851000  0.28787000  1.0
  H  H44  1  0.00197000  0.92417000  0.31543000  1.0
  H  H45  1  0.91947000  0.82871000  0.49840000  1.0
  H  H46  1  0.83881000  0.76948000  0.46131000  1.0
  H  H47  1  0.11764000  0.88231000  0.41323000  1.0
  H  H48  1  0.02227000  0.90057000  0.47750000  1.0
  H  H49  1  0.96717000  0.00411000  0.42567000  1.0
  H  H50  1  0.03255000  0.98695000  0.35453000  1.0
  H  H51  1  0.20386000  0.96517000  0.37649000  1.0
  H  H52  1  0.13353000  0.03848000  0.38630000  1.0
  H  H53  1  0.06306000  0.02731000  0.59828000  1.0
  H  H54  1  0.03487000  0.05372000  0.49516000  1.0
  H  H55  1  0.27179000  0.89415000  0.45893000  1.0
  H  H56  1  0.29125000  0.87442000  0.56498000  1.0
  H  H57  1  0.73533000  0.41610000  0.75557000  1.0
  H  H58  1  0.87094000  0.61623000  0.45323000  1.0
  H  H59  1  0.47118000  0.45369000  0.16205000  1.0
  H  H60  1  0.92612000  0.44846000  0.15446000  1.0
  H  H61  1  0.62548000  0.32062000  0.66087000  1.0
  H  H62  1  0.60852000  0.33570000  0.55684000  1.0
  H  H63  1  0.64127000  0.38874000  0.45068000  1.0
  H  H64  1  0.72850000  0.47438000  0.42025000  1.0
  H  H65  1  0.78423000  0.50613000  0.49433000  1.0
  H  H66  1  0.82261000  0.51348000  0.64225000  1.0
  H  H67  1  0.87567000  0.50670000  0.56726000  1.0
  H  H68  1  0.56358000  0.73118000  0.52418000  1.0
  H  H69  1  0.43700000  0.72538000  0.62074000  1.0
  H  H70  1  0.37805000  0.67119000  0.72444000  1.0
  H  H71  1  0.48145000  0.56913000  0.76056000  1.0
  H  H72  1  0.64310000  0.52329000  0.69628000  1.0
  H  H73  1  0.53197000  0.26792000  0.13704000  1.0
  H  H74  1  0.43024000  0.20956000  0.11725000  1.0
  H  H75  1  0.26207000  0.20003000  0.10395000  1.0
  H  H76  1  0.10648000  0.28473000  0.11414000  1.0
  H  H77  1  0.11592000  0.37894000  0.13419000  1.0
  H  H78  1  0.16551000  0.46668000  0.10981000  1.0
  H  H79  1  0.23087000  0.49966000  0.14150000  1.0
  H  H80  1  0.86187000  0.47579000  0.33951000  1.0
  H  H81  1  0.96562000  0.49279000  0.39943000  1.0
  H  H82  1  0.13605000  0.49945000  0.41133000  1.0
  H  H83  1  0.29358000  0.48599000  0.32794000  1.0
  H  H84  1  0.28214000  0.46947000  0.23238000  1.0
  H  H85  1  0.46376000  0.09851000  0.67508000  1.0
  H  H86  1  0.56602000  0.13229000  0.63105000  1.0
  H  H87  1  0.53351000  0.13407000  0.84586000  1.0
  H  H88  1  0.51574000  0.08614000  0.76933000  1.0
  H  H89  1  0.44113000  0.26366000  0.66165000  1.0
  H  H90  1  0.46460000  0.30368000  0.74099000  1.0
  H  H91  1  0.43275000  0.22593000  0.59561000  1.0
  H  H92  1  0.43419000  0.16147000  0.57370000  1.0
  H  H93  1  0.27789000  0.20207000  0.68585000  1.0
  H  H94  1  0.25201000  0.22287000  0.61333000  1.0
  H  H95  1  0.14947000  0.02276000  0.75289000  1.0
  H  H96  1  0.20279000  0.11756000  0.74710000  1.0
  H  H97  1  0.32296000  0.12423000  0.55685000  1.0
  H  H98  1  0.27619000  0.02811000  0.57116000  1.0
  H  H99  1  0.44264000  0.36825000  0.78824000  1.0
  H  H100  1  0.25849000  0.42385000  0.81588000  1.0
  H  H101  1  0.25423000  0.32859000  0.99887000  1.0
  H  H102  1  0.43091000  0.26932000  0.96165000  1.0
  H  H103  1  0.08707000  0.38240000  0.91369000  1.0
  H  H104  1  0.10034000  0.40046000  0.97798000  1.0
  H  H105  1  0.10406000  0.50399000  0.92641000  1.0
  H  H106  1  0.12744000  0.48700000  0.85513000  1.0
  H  H107  1  0.95580000  0.46544000  0.87646000  1.0
  H  H108  1  0.94331000  0.53868000  0.88639000  1.0
  H  H109  1  0.81035000  0.52834000  0.09781000  1.0
  H  H110  1  0.91653000  0.55425000  0.99500000  1.0
  H  H111  1  0.87663000  0.39427000  0.95885000  1.0
  H  H112  1  0.76954000  0.37488000  0.06464000  1.0
  H  H113  1  0.23532000  0.25556000  0.91610000  1.0
  H  H114  1  0.37094000  0.95322000  0.11624000  1.0
  H  H115  1  0.97118000  0.66205000  0.95369000  1.0
  H  H116  1  0.42611000  0.65445000  0.94847000  1.0
  H  H117  1  0.12551000  0.16084000  0.82062000  1.0
  H  H118  1  0.10859000  0.05679000  0.83570000  1.0
  H  H119  1  0.14134000  0.95063000  0.88874000  1.0
  H  H120  1  0.22850000  0.92022000  0.97440000  1.0
  H  H121  1  0.28420000  0.99430000  0.00615000  1.0
  H  H122  1  0.32258000  0.14224000  0.01349000  1.0
  H  H123  1  0.37564000  0.06724000  0.00672000  1.0
  H  H124  1  0.06358000  0.02420000  0.23119000  1.0
  H  H125  1  0.93702000  0.12076000  0.22538000  1.0
  H  H126  1  0.87806000  0.22447000  0.17116000  1.0
  H  H127  1  0.98142000  0.26058000  0.06911000  1.0
  H  H128  1  0.14306000  0.19628000  0.02328000  1.0
  H  H129  1  0.03195000  0.63704000  0.76794000  1.0
  H  H130  1  0.93022000  0.61725000  0.70958000  1.0
  H  H131  1  0.76204000  0.60396000  0.70006000  1.0
  H  H132  1  0.60646000  0.61415000  0.78475000  1.0
  H  H133  1  0.61591000  0.63419000  0.87895000  1.0
  H  H134  1  0.66553000  0.60979000  0.96668000  1.0
  H  H135  1  0.73088000  0.64149000  0.99966000  1.0
  H  H136  1  0.36186000  0.83952000  0.97580000  1.0
  H  H137  1  0.46559000  0.89944000  0.99281000  1.0
  H  H138  1  0.63601000  0.91134000  0.99948000  1.0
  H  H139  1  0.79356000  0.82794000  0.98602000  1.0
  H  H140  1  0.78213000  0.73238000  0.96949000  1.0
  H  H141  1  0.96375000  0.17508000  0.59851000  1.0
  H  H142  1  0.06601000  0.13103000  0.63230000  1.0
  H  H143  1  0.03350000  0.34586000  0.63408000  1.0
  H  H144  1  0.01572000  0.26933000  0.58616000  1.0
  H  H145  1  0.94116000  0.16162000  0.76365000  1.0
  H  H146  1  0.96463000  0.24097000  0.80367000  1.0
  H  H147  1  0.93272000  0.09559000  0.72592000  1.0
  H  H148  1  0.93418000  0.07368000  0.66146000  1.0
  H  H149  1  0.77787000  0.18584000  0.70205000  1.0
  H  H150  1  0.75198000  0.11332000  0.72284000  1.0
  H  H151  1  0.64946000  0.25291000  0.52276000  1.0
  H  H152  1  0.70278000  0.24710000  0.61756000  1.0
  H  H153  1  0.82297000  0.05684000  0.62420000  1.0
  H  H154  1  0.77622000  0.07117000  0.52808000  1.0
  H  H155  1  0.94267000  0.28822000  0.86823000  1.0
  H  H156  1  0.75852000  0.31586000  0.92384000  1.0
  H  H157  1  0.75424000  0.49888000  0.82860000  1.0
  H  H158  1  0.93091000  0.46166000  0.76933000  1.0
  H  H159  1  0.58709000  0.41367000  0.88241000  1.0
  H  H160  1  0.60033000  0.47798000  0.90047000  1.0
  H  H161  1  0.60412000  0.42640000  0.00397000  1.0
  H  H162  1  0.62748000  0.35512000  0.98700000  1.0
  H  H163  1  0.45585000  0.37642000  0.96545000  1.0
  H  H164  1  0.44338000  0.38636000  0.03868000  1.0
  H  H165  1  0.31033000  0.59780000  0.02835000  1.0
  H  H166  1  0.41654000  0.49499000  0.05425000  1.0
  H  H167  1  0.37667000  0.45882000  0.89429000  1.0
  H  H168  1  0.26955000  0.56462000  0.87490000  1.0
  H  H169  1  0.09519000  0.75603000  0.41654000  1.0
  H  H170  1  0.06116000  0.45295000  0.61595000  1.0
  H  H171  1  0.91260000  0.16259000  0.45309000  1.0
  H  H172  1  0.47211000  0.15518000  0.44687000  1.0
  H  H173  1  0.39291000  0.66047000  0.32037000  1.0
  H  H174  1  0.49841000  0.55647000  0.33587000  1.0
  H  H175  1  0.51899000  0.45058000  0.38971000  1.0
  H  H176  1  0.37691000  0.42040000  0.47558000  1.0
  H  H177  1  0.21529000  0.49446000  0.50660000  1.0
  H  H178  1  0.02173000  0.64242000  0.51349000  1.0
  H  H179  1  0.05060000  0.56739000  0.50669000  1.0
  H  H180  1  0.18087000  0.52458000  0.73133000  1.0
  H  H181  1  0.21551000  0.62134000  0.72595000  1.0
  H  H182  1  0.22525000  0.72506000  0.67171000  1.0
  H  H183  1  0.18841000  0.76101000  0.56949000  1.0
  H  H184  1  0.13653000  0.69679000  0.52361000  1.0
  H  H185  1  0.06195000  0.13811000  0.26712000  1.0
  H  H186  1  0.24222000  0.11732000  0.20913000  1.0
  H  H187  1  0.43307000  0.10396000  0.19989000  1.0
  H  H188  1  0.49362000  0.11395000  0.28486000  1.0
  H  H189  1  0.37003000  0.13372000  0.37898000  1.0
  H  H190  1  0.25733000  0.10967000  0.46636000  1.0
  H  H191  1  0.12770000  0.14209000  0.49916000  1.0
  H  H192  1  0.32339000  0.33933000  0.47606000  1.0
  H  H193  1  0.14323000  0.39934000  0.49257000  1.0
  H  H194  1  0.95430000  0.41131000  0.49922000  1.0
  H  H195  1  0.89321000  0.32781000  0.48617000  1.0
  H  H196  1  0.01623000  0.23229000  0.46951000  1.0
  H  H197  1  0.76284000  0.67567000  0.09839000  1.0
  H  H198  1  0.67081000  0.63159000  0.13175000  1.0
  H  H199  1  0.48649000  0.84611000  0.13420000  1.0
  H  H200  1  0.62878000  0.76988000  0.08610000  1.0
  H  H201  1  0.63350000  0.66167000  0.26345000  1.0
  H  H202  1  0.49055000  0.74074000  0.30360000  1.0
  H  H203  1  0.74561000  0.59598000  0.22567000  1.0
  H  H204  1  0.83056000  0.57412000  0.16124000  1.0
  H  H205  1  0.83396000  0.68637000  0.20190000  1.0
  H  H206  1  0.91156000  0.61393000  0.22279000  1.0
  H  H207  1  0.07530000  0.75304000  0.02252000  1.0
  H  H208  1  0.93259000  0.74760000  0.11698000  1.0
  H  H209  1  0.99516000  0.55734000  0.12417000  1.0
  H  H210  1  0.12442000  0.57111000  0.02853000  1.0
  H  H211  1  0.40084000  0.78785000  0.36850000  1.0
  H  H212  1  0.50196000  0.81541000  0.42416000  1.0
  H  H213  1  0.41945000  0.99841000  0.32872000  1.0
  H  H214  1  0.33879000  0.96132000  0.26949000  1.0
  H  H215  1  0.61763000  0.91321000  0.38232000  1.0
  H  H216  1  0.52226000  0.97750000  0.40057000  1.0
  H  H217  1  0.46715000  0.92566000  0.50410000  1.0
  H  H218  1  0.53253000  0.85452000  0.48694000  1.0
  H  H219  1  0.70382000  0.87648000  0.46519000  1.0
  H  H220  1  0.63349000  0.88629000  0.53849000  1.0
  H  H221  1  0.56306000  0.09829000  0.52731000  1.0
  H  H222  1  0.53486000  0.99515000  0.55374000  1.0
  H  H223  1  0.77176000  0.95891000  0.39417000  1.0
  H  H224  1  0.79122000  0.06498000  0.37443000  1.0
  C  C1  1  0.73277000  0.84373000  0.25463000  1.0
  C  C2  1  0.61571000  0.20041000  0.94406000  1.0
  C  C3  1  0.83121000  0.85783000  0.14699000  1.0
  C  C4  1  0.74247000  0.87450000  0.19040000  1.0
  C  C5  1  0.66235000  0.92527000  0.17374000  1.0
  C  C6  1  0.67130000  0.95799000  0.11491000  1.0
  C  C7  1  0.76171000  0.93944000  0.07013000  1.0
  C  C8  1  0.84364000  0.88913000  0.08678000  1.0
  C  C9  1  0.93599000  0.87267000  0.04268000  1.0
  C  C10  1  0.94788000  0.90291000  0.98380000  1.0
  C  C11  1  0.86674000  0.95155000  0.96695000  1.0
  C  C12  1  0.77639000  0.96929000  0.00873000  1.0
  C  C13  1  0.58449000  0.01234000  0.10153000  1.0
  C  C14  1  0.66282000  0.18730000  0.04052000  1.0
  C  C15  1  0.62890000  0.16436000  0.00348000  1.0
  C  C16  1  0.60403000  0.10640000  0.02464000  1.0
  C  C17  1  0.61445000  0.07258000  0.08127000  1.0
  C  C18  1  0.64742000  0.09718000  0.11956000  1.0
  C  C19  1  0.67152000  0.15549000  0.09876000  1.0
  C  C20  1  0.70020000  0.18126000  0.13751000  1.0
  C  C21  1  0.70518000  0.15127000  0.19524000  1.0
  C  C22  1  0.68357000  0.09355000  0.21555000  1.0
  C  C23  1  0.65535000  0.06718000  0.17909000  1.0
  C  C24  1  0.40473000  0.86230000  0.65239000  1.0
  C  C25  1  0.98091000  0.95912000  0.74529000  1.0
  C  C26  1  0.58919000  0.80507000  0.64021000  1.0
  C  C27  1  0.51695000  0.85828000  0.64875000  1.0
  C  C28  1  0.55293000  0.90877000  0.65095000  1.0
  C  C29  1  0.65774000  0.90476000  0.64764000  1.0
  C  C30  1  0.73168000  0.84974000  0.63778000  1.0
  C  C31  1  0.69687000  0.79968000  0.63329000  1.0
  C  C32  1  0.77094000  0.74597000  0.62084000  1.0
  C  C33  1  0.87626000  0.74084000  0.61347000  1.0
  C  C34  1  0.91059000  0.78949000  0.61885000  1.0
  C  C35  1  0.84077000  0.84243000  0.63041000  1.0
  C  C36  1  0.69245000  0.96004000  0.64876000  1.0
  C  C37  1  0.79598000  0.97248000  0.80203000  1.0
  C  C38  1  0.86821000  0.96332000  0.74905000  1.0
  C  C39  1  0.83192000  0.95917000  0.69944000  1.0
  C  C40  1  0.72719000  0.96154000  0.70395000  1.0
  C  C41  1  0.65378000  0.97027000  0.75945000  1.0
  C  C42  1  0.68871000  0.97681000  0.80858000  1.0
  C  C43  1  0.61511000  0.98756000  0.86288000  1.0
  C  C44  1  0.51048000  0.99104000  0.86973000  1.0
  C  C45  1  0.47591000  0.98357000  0.82211000  1.0
  C  C46  1  0.54535000  0.97384000  0.76843000  1.0
  C  C47  1  0.21735000  0.64210000  0.15676000  1.0
  C  C48  1  0.02034000  0.66109000  0.30425000  1.0
  C  C49  1  0.10003000  0.63460000  0.26127000  1.0
  C  C50  1  0.14088000  0.67024000  0.20715000  1.0
  C  C51  1  0.10319000  0.73248000  0.20130000  1.0
  C  C52  1  0.02296000  0.75565000  0.24587000  1.0
  C  C53  1  0.28998000  0.68125000  0.11380000  1.0
  C  C54  1  0.37167000  0.68772000  0.14323000  1.0
  C  C55  1  0.55290000  0.54664000  0.21108000  1.0
  C  C56  1  0.47539000  0.59956000  0.20718000  1.0
  C  C57  1  0.45279000  0.62991000  0.15164000  1.0
  C  C58  1  0.50877000  0.60363000  0.10192000  1.0
  C  C59  1  0.58238000  0.55009000  0.10901000  1.0
  C  C60  1  0.90898000  0.86030000  0.33374000  1.0
  C  C61  1  0.96163000  0.89295000  0.35011000  1.0
  C  C62  1  0.96880000  0.88193000  0.40999000  1.0
  C  C63  1  0.91834000  0.83910000  0.45104000  1.0
  C  C64  1  0.87167000  0.80591000  0.43090000  1.0
  C  C65  1  0.03810000  0.90899000  0.42833000  1.0
  C  C66  1  0.03658000  0.97556000  0.40186000  1.0
  C  C67  1  0.13674000  0.99059000  0.40474000  1.0
  C  C68  1  0.10750000  0.99907000  0.56589000  1.0
  C  C69  1  0.09198000  0.01313000  0.50826000  1.0
  C  C70  1  0.15194000  0.97600000  0.46747000  1.0
  C  C71  1  0.22379000  0.92488000  0.48843000  1.0
  C  C72  1  0.23570000  0.91330000  0.54699000  1.0
  C  C73  1  0.66893000  0.34390000  0.75455000  1.0
  C  C74  1  0.74071000  0.70052000  0.44416000  1.0
  C  C75  1  0.66364000  0.35797000  0.64710000  1.0
  C  C76  1  0.69299000  0.37457000  0.69034000  1.0
  C  C77  1  0.73977000  0.42510000  0.67351000  1.0
  C  C78  1  0.75627000  0.45787000  0.61471000  1.0
  C  C79  1  0.72885000  0.43926000  0.57005000  1.0
  C  C80  1  0.68026000  0.38903000  0.58683000  1.0
  C  C81  1  0.64841000  0.37236000  0.54283000  1.0
  C  C82  1  0.66581000  0.40218000  0.48383000  1.0
  C  C83  1  0.71550000  0.45074000  0.46686000  1.0
  C  C84  1  0.74601000  0.46885000  0.50859000  1.0
  C  C85  1  0.80196000  0.51230000  0.60130000  1.0
  C  C86  1  0.60962000  0.68718000  0.54028000  1.0
  C  C87  1  0.70377000  0.66438000  0.50344000  1.0
  C  C88  1  0.76534000  0.60640000  0.52454000  1.0
  C  C89  1  0.73195000  0.57246000  0.58104000  1.0
  C  C90  1  0.63591000  0.59692000  0.61917000  1.0
  C  C91  1  0.57424000  0.65518000  0.59837000  1.0
  C  C92  1  0.48091000  0.68076000  0.63702000  1.0
  C  C93  1  0.44835000  0.65075000  0.69474000  1.0
  C  C94  1  0.50743000  0.59310000  0.71508000  1.0
  C  C95  1  0.59840000  0.56683000  0.67862000  1.0
  C  C96  1  0.58050000  0.36340000  0.15052000  1.0
  C  C97  1  0.81530000  0.45926000  0.24530000  1.0
  C  C98  1  0.46461000  0.30577000  0.13959000  1.0
  C  C99  1  0.47537000  0.35901000  0.14799000  1.0
  C  C100  1  0.38643000  0.40918000  0.15091000  1.0
  C  C101  1  0.28888000  0.40513000  0.14767000  1.0
  C  C102  1  0.27956000  0.35008000  0.13785000  1.0
  C  C103  1  0.36896000  0.30013000  0.13324000  1.0
  C  C104  1  0.36111000  0.24635000  0.12083000  1.0
  C  C105  1  0.26836000  0.24104000  0.11350000  1.0
  C  C106  1  0.17992000  0.28957000  0.11898000  1.0
  C  C107  1  0.18513000  0.34255000  0.13062000  1.0
  C  C108  1  0.19826000  0.46054000  0.14865000  1.0
  C  C109  1  0.92998000  0.47270000  0.30214000  1.0
  C  C110  1  0.91976000  0.46385000  0.24903000  1.0
  C  C111  1  0.00947000  0.46019000  0.19935000  1.0
  C  C112  1  0.10737000  0.46223000  0.20394000  1.0
  C  C113  1  0.11676000  0.47062000  0.25955000  1.0
  C  C114  1  0.02636000  0.47704000  0.30871000  1.0
  C  C115  1  0.03515000  0.48770000  0.36303000  1.0
  C  C116  1  0.12951000  0.49118000  0.36982000  1.0
  C  C117  1  0.21907000  0.48359000  0.32223000  1.0
  C  C118  1  0.21276000  0.47395000  0.26855000  1.0
  C  C119  1  0.48405000  0.14236000  0.65628000  1.0
  C  C120  1  0.51456000  0.16105000  0.80402000  1.0
  C  C121  1  0.50446000  0.13466000  0.76086000  1.0
  C  C122  1  0.48193000  0.17040000  0.70680000  1.0
  C  C123  1  0.46298000  0.23263000  0.70119000  1.0
  C  C124  1  0.47532000  0.25571000  0.74593000  1.0
  C  C125  1  0.41508000  0.18146000  0.61337000  1.0
  C  C126  1  0.29758000  0.18787000  0.64270000  1.0
  C  C127  1  0.18973000  0.04679000  0.71090000  1.0
  C  C128  1  0.21801000  0.09987000  0.70679000  1.0
  C  C129  1  0.26584000  0.13005000  0.65116000  1.0
  C  C130  1  0.28572000  0.10363000  0.60151000  1.0
  C  C131  1  0.25881000  0.04992000  0.60887000  1.0
  C  C132  1  0.39703000  0.36005000  0.83412000  1.0
  C  C133  1  0.29547000  0.39267000  0.85054000  1.0
  C  C134  1  0.23972000  0.38171000  0.91045000  1.0
  C  C135  1  0.29210000  0.33892000  0.95148000  1.0
  C  C136  1  0.39195000  0.30573000  0.93127000  1.0
  C  C137  1  0.12519000  0.40893000  0.92881000  1.0
  C  C138  1  0.08709000  0.47557000  0.90236000  1.0
  C  C139  1  0.96919000  0.49078000  0.90484000  1.0
  C  C140  1  0.82726000  0.49979000  0.06558000  1.0
  C  C141  1  0.88684000  0.51367000  0.00810000  1.0
  C  C142  1  0.90535000  0.47633000  0.96741000  1.0
  C  C143  1  0.86373000  0.42518000  0.98830000  1.0
  C  C144  1  0.80438000  0.41373000  0.04673000  1.0
  C  C145  1  0.16890000  0.25454000  0.84391000  1.0
  C  C146  1  0.24071000  0.94415000  0.20053000  1.0
  C  C147  1  0.16365000  0.14707000  0.85798000  1.0
  C  C148  1  0.19298000  0.19032000  0.87458000  1.0
  C  C149  1  0.23975000  0.17350000  0.92511000  1.0
  C  C150  1  0.25625000  0.11469000  0.95789000  1.0
  C  C151  1  0.22885000  0.07002000  0.93927000  1.0
  C  C152  1  0.18027000  0.08680000  0.88904000  1.0
  C  C153  1  0.14845000  0.04279000  0.87237000  1.0
  C  C154  1  0.16585000  0.98379000  0.90219000  1.0
  C  C155  1  0.21551000  0.96682000  0.95076000  1.0
  C  C156  1  0.24600000  0.00856000  0.96887000  1.0
  C  C157  1  0.30195000  0.10128000  0.01231000  1.0
  C  C158  1  0.10961000  0.04029000  0.18719000  1.0
  C  C159  1  0.20375000  0.00344000  0.16439000  1.0
  C  C160  1  0.26532000  0.02454000  0.10640000  1.0
  C  C161  1  0.23192000  0.08104000  0.07247000  1.0
  C  C162  1  0.13589000  0.11917000  0.09692000  1.0
  C  C163  1  0.07423000  0.09838000  0.15519000  1.0
  C  C164  1  0.98092000  0.13704000  0.18076000  1.0
  C  C165  1  0.94835000  0.19476000  0.15074000  1.0
  C  C166  1  0.00742000  0.21510000  0.09308000  1.0
  C  C167  1  0.09838000  0.17862000  0.06682000  1.0
  C  C168  1  0.08050000  0.65051000  0.86340000  1.0
  C  C169  1  0.31529000  0.74530000  0.95927000  1.0
  C  C170  1  0.96459000  0.63959000  0.80578000  1.0
  C  C171  1  0.97537000  0.64798000  0.85902000  1.0
  C  C172  1  0.88644000  0.65090000  0.90918000  1.0
  C  C173  1  0.78888000  0.64767000  0.90513000  1.0
  C  C174  1  0.77955000  0.63785000  0.85009000  1.0
  C  C175  1  0.86894000  0.63324000  0.80015000  1.0
  C  C176  1  0.86109000  0.62083000  0.74637000  1.0
  C  C177  1  0.76833000  0.61351000  0.74106000  1.0
  C  C178  1  0.67991000  0.61898000  0.78958000  1.0
  C  C179  1  0.68512000  0.63062000  0.84256000  1.0
  C  C180  1  0.69827000  0.64864000  0.96054000  1.0
  C  C181  1  0.42997000  0.80214000  0.97271000  1.0
  C  C182  1  0.41975000  0.74903000  0.96386000  1.0
  C  C183  1  0.50946000  0.69934000  0.96020000  1.0
  C  C184  1  0.60736000  0.70394000  0.96224000  1.0
  C  C185  1  0.61676000  0.75954000  0.97063000  1.0
  C  C186  1  0.52633000  0.80872000  0.97706000  1.0
  C  C187  1  0.53512000  0.86304000  0.98772000  1.0
  C  C188  1  0.62949000  0.86983000  0.99120000  1.0
  C  C189  1  0.71904000  0.82223000  0.98362000  1.0
  C  C190  1  0.71274000  0.76855000  0.97397000  1.0
  C  C191  1  0.98404000  0.15626000  0.64237000  1.0
  C  C192  1  0.01455000  0.30402000  0.66105000  1.0
  C  C193  1  0.00445000  0.26086000  0.63467000  1.0
  C  C194  1  0.98192000  0.20679000  0.67040000  1.0
  C  C195  1  0.96298000  0.20117000  0.73263000  1.0
  C  C196  1  0.97533000  0.24592000  0.75570000  1.0
  C  C197  1  0.91506000  0.11336000  0.68145000  1.0
  C  C198  1  0.79757000  0.14269000  0.68785000  1.0
  C  C199  1  0.68972000  0.21092000  0.54678000  1.0
  C  C200  1  0.71800000  0.20680000  0.59986000  1.0
  C  C201  1  0.76584000  0.15116000  0.63003000  1.0
  C  C202  1  0.78573000  0.10150000  0.60361000  1.0
  C  C203  1  0.75884000  0.10887000  0.54989000  1.0
  C  C204  1  0.89705000  0.33411000  0.86004000  1.0
  C  C205  1  0.79550000  0.35053000  0.89266000  1.0
  C  C206  1  0.73974000  0.41044000  0.88171000  1.0
  C  C207  1  0.79210000  0.45148000  0.83893000  1.0
  C  C208  1  0.89196000  0.43127000  0.80573000  1.0
  C  C209  1  0.62521000  0.42880000  0.90893000  1.0
  C  C210  1  0.58714000  0.40235000  0.97556000  1.0
  C  C211  1  0.46924000  0.40482000  0.99078000  1.0
  C  C212  1  0.32725000  0.56557000  0.99980000  1.0
  C  C213  1  0.38684000  0.50808000  0.01368000  1.0
  C  C214  1  0.40537000  0.46739000  0.97634000  1.0
  C  C215  1  0.36376000  0.48828000  0.92519000  1.0
  C  C216  1  0.30439000  0.54671000  0.91375000  1.0
  C  C217  1  0.23278000  0.75461000  0.34373000  1.0
  C  C218  1  0.11575000  0.44405000  0.70041000  1.0
  C  C219  1  0.33120000  0.64696000  0.35785000  1.0
  C  C220  1  0.24248000  0.69037000  0.37451000  1.0
  C  C221  1  0.16236000  0.67372000  0.42528000  1.0
  C  C222  1  0.17133000  0.61489000  0.45800000  1.0
  C  C223  1  0.26172000  0.57010000  0.43946000  1.0
  C  C224  1  0.34366000  0.58674000  0.38914000  1.0
  C  C225  1  0.43599000  0.54263000  0.37268000  1.0
  C  C226  1  0.44789000  0.48375000  0.40292000  1.0
  C  C227  1  0.36676000  0.46691000  0.45157000  1.0
  C  C228  1  0.27640000  0.50870000  0.46932000  1.0
  C  C229  1  0.08453000  0.60151000  0.51235000  1.0
  C  C230  1  0.16282000  0.54054000  0.68730000  1.0
  C  C231  1  0.12891000  0.50348000  0.66437000  1.0
  C  C232  1  0.10405000  0.52464000  0.60641000  1.0
  C  C233  1  0.11447000  0.58127000  0.57259000  1.0
  C  C234  1  0.14744000  0.61957000  0.59718000  1.0
  C  C235  1  0.17152000  0.59878000  0.65549000  1.0
  C  C236  1  0.20016000  0.63755000  0.68126000  1.0
  C  C237  1  0.20518000  0.69528000  0.65125000  1.0
  C  C238  1  0.18360000  0.71557000  0.59353000  1.0
  C  C239  1  0.15539000  0.67910000  0.56717000  1.0
  C  C240  1  0.90484000  0.15213000  0.36238000  1.0
  C  C241  1  0.48090000  0.24529000  0.45912000  1.0
  C  C242  1  0.08921000  0.14017000  0.30510000  1.0
  C  C243  1  0.01699000  0.14865000  0.35832000  1.0
  C  C244  1  0.05292000  0.15093000  0.40879000  1.0
  C  C245  1  0.15774000  0.14765000  0.40476000  1.0
  C  C246  1  0.23168000  0.13780000  0.34974000  1.0
  C  C247  1  0.19686000  0.13332000  0.29969000  1.0
  C  C248  1  0.27091000  0.12087000  0.24599000  1.0
  C  C249  1  0.37623000  0.11349000  0.24086000  1.0
  C  C250  1  0.41059000  0.11885000  0.28951000  1.0
  C  C251  1  0.34076000  0.13042000  0.34244000  1.0
  C  C252  1  0.19244000  0.14876000  0.46004000  1.0
  C  C253  1  0.29596000  0.30204000  0.47248000  1.0
  C  C254  1  0.36819000  0.24905000  0.46333000  1.0
  C  C255  1  0.33189000  0.19943000  0.45918000  1.0
  C  C256  1  0.22716000  0.20395000  0.46155000  1.0
  C  C257  1  0.15376000  0.25945000  0.47029000  1.0
  C  C258  1  0.18869000  0.30859000  0.47682000  1.0
  C  C259  1  0.11508000  0.36290000  0.48758000  1.0
  C  C260  1  0.01046000  0.36974000  0.49106000  1.0
  C  C261  1  0.97587000  0.32212000  0.48360000  1.0
  C  C262  1  0.04533000  0.26843000  0.47386000  1.0
  C  C263  1  0.71736000  0.65675000  0.14211000  1.0
  C  C264  1  0.52034000  0.80424000  0.16110000  1.0
  C  C265  1  0.60004000  0.76126000  0.13461000  1.0
  C  C266  1  0.64090000  0.70713000  0.17024000  1.0
  C  C267  1  0.60320000  0.70128000  0.23248000  1.0
  C  C268  1  0.52297000  0.74585000  0.25564000  1.0
  C  C269  1  0.79001000  0.61378000  0.18125000  1.0
  C  C270  1  0.87171000  0.64322000  0.18770000  1.0
  C  C271  1  0.05291000  0.71108000  0.04664000  1.0
  C  C272  1  0.97541000  0.70718000  0.09955000  1.0
  C  C273  1  0.95280000  0.65163000  0.12990000  1.0
  C  C274  1  0.00879000  0.60191000  0.10361000  1.0
  C  C275  1  0.08239000  0.60900000  0.05007000  1.0
  C  C276  1  0.40898000  0.83373000  0.36029000  1.0
  C  C277  1  0.46162000  0.85010000  0.39295000  1.0
  C  C278  1  0.46879000  0.90998000  0.38193000  1.0
  C  C279  1  0.41832000  0.95104000  0.33911000  1.0
  C  C280  1  0.37167000  0.93090000  0.30591000  1.0
  C  C281  1  0.53808000  0.92832000  0.40900000  1.0
  C  C282  1  0.53655000  0.90185000  0.47556000  1.0
  C  C283  1  0.63671000  0.90472000  0.49060000  1.0
  C  C284  1  0.60749000  0.06588000  0.49907000  1.0
  C  C285  1  0.59196000  0.00824000  0.51315000  1.0
  C  C286  1  0.65190000  0.96746000  0.47602000  1.0
  C  C287  1  0.72376000  0.98841000  0.42489000  1.0
  C  C288  1  0.73567000  0.04697000  0.41331000  1.0
  N  N1  1  0.86777000  0.81560000  0.37292000  1.0
  N  N2  1  0.17879000  0.95033000  0.58525000  1.0
  N  N3  1  0.97894000  0.72081000  0.29608000  1.0
  N  N4  1  0.60609000  0.52215000  0.16255000  1.0
  N  N5  1  0.44391000  0.31538000  0.87327000  1.0
  N  N6  1  0.78558000  0.45094000  0.08491000  1.0
  N  N7  1  0.50414000  0.22077000  0.79608000  1.0
  N  N8  1  0.20985000  0.02201000  0.66251000  1.0
  N  N9  1  0.94393000  0.37326000  0.81537000  1.0
  N  N10  1  0.28557000  0.58490000  0.95095000  1.0
  N  N11  1  0.00415000  0.29607000  0.72077000  1.0
  N  N12  1  0.70986000  0.16252000  0.52199000  1.0
  N  N13  1  0.36778000  0.87291000  0.31559000  1.0
  N  N14  1  0.67878000  0.08523000  0.45034000  1.0
  N  N15  1  0.47895000  0.79606000  0.22081000  1.0
  N  N16  1  0.10608000  0.66255000  0.02215000  1.0
  O  O1  1  0.80222000  0.79477000  0.26567000  1.0
  O  O2  1  0.66131000  0.86672000  0.29493000  1.0
  O  O3  1  0.56891000  0.18144000  0.91398000  1.0
  O  O4  1  0.64379000  0.24950000  0.92089000  1.0
  O  O5  1  0.57760000  0.94319000  0.21682000  1.0
  O  O6  1  0.57098000  0.08285000  0.98879000  1.0
  O  O7  1  0.33995000  0.91163000  0.67019000  1.0
  O  O8  1  0.37417000  0.82437000  0.63898000  1.0
  O  O9  1  0.04560000  0.94074000  0.69620000  1.0
  O  O10  1  0.01093000  0.97204000  0.78369000  1.0
  O  O11  1  0.48329000  0.96308000  0.65377000  1.0
  O  O12  1  0.90153000  0.95507000  0.64533000  1.0
  O  O13  1  0.63477000  0.29573000  0.76570000  1.0
  O  O14  1  0.67947000  0.36633000  0.79463000  1.0
  O  O15  1  0.83687000  0.68180000  0.41447000  1.0
  O  O16  1  0.68672000  0.74944000  0.42072000  1.0
  O  O17  1  0.76469000  0.44293000  0.71632000  1.0
  O  O18  1  0.85771000  0.58289000  0.48872000  1.0
  O  O19  1  0.57903000  0.41236000  0.16859000  1.0
  O  O20  1  0.66220000  0.32597000  0.13585000  1.0
  O  O21  1  0.81820000  0.44085000  0.19617000  1.0
  O  O22  1  0.73418000  0.47189000  0.28381000  1.0
  O  O23  1  0.39884000  0.46342000  0.15408000  1.0
  O  O24  1  0.99780000  0.45719000  0.14489000  1.0
  O  O25  1  0.13475000  0.26567000  0.79574000  1.0
  O  O26  1  0.17945000  0.29463000  0.86632000  1.0
  O  O27  1  0.33687000  0.91446000  0.18181000  1.0
  O  O28  1  0.18673000  0.92071000  0.24944000  1.0
  O  O29  1  0.26468000  0.21631000  0.94293000  1.0
  O  O30  1  0.35770000  0.98871000  0.08291000  1.0
  O  O31  1  0.07903000  0.66857000  0.91237000  1.0
  O  O32  1  0.16221000  0.63584000  0.82597000  1.0
  O  O33  1  0.31820000  0.69616000  0.94085000  1.0
  O  O34  1  0.23417000  0.78381000  0.97190000  1.0
  O  O35  1  0.89883000  0.65408000  0.96342000  1.0
  O  O36  1  0.49780000  0.64488000  0.95719000  1.0
  O  O37  1  0.30225000  0.76563000  0.29478000  1.0
  O  O38  1  0.16131000  0.79492000  0.36672000  1.0
  O  O39  1  0.06897000  0.41396000  0.68144000  1.0
  O  O40  1  0.14379000  0.42089000  0.74951000  1.0
  O  O41  1  0.07762000  0.71681000  0.44319000  1.0
  O  O42  1  0.07100000  0.48878000  0.58287000  1.0
  O  O43  1  0.83992000  0.17016000  0.41157000  1.0
  O  O44  1  0.87443000  0.13850000  0.32453000  1.0
  O  O45  1  0.54558000  0.19619000  0.44076000  1.0
  O  O46  1  0.51092000  0.28369000  0.47204000  1.0
  O  O47  1  0.98327000  0.15375000  0.46309000  1.0
  O  O48  1  0.40149000  0.14532000  0.45507000  1.0
