# generated using pymatgen
data_CuH16(C9O4)2
_symmetry_space_group_name_H-M   'P 1'
_cell_length_a   15.25388000
_cell_length_b   21.93224000
_cell_length_c   40.30167000
_cell_angle_alpha   89.99373000
_cell_angle_beta   89.98883000
_cell_angle_gamma   72.93323000
_symmetry_Int_Tables_number   1
_chemical_formula_structural   CuH16(C9O4)2
_chemical_formula_sum   'Cu12 H192 C216 O96'
_cell_volume   12889.24886983
_cell_formula_units_Z   12
loop_
 _symmetry_equiv_pos_site_id
 _symmetry_equiv_pos_as_xyz
  1  'x, y, z'
loop_
 _atom_site_type_symbol
 _atom_site_label
 _atom_site_symmetry_multiplicity
 _atom_site_fract_x
 _atom_site_fract_y
 _atom_site_fract_z
 _atom_site_occupancy
  Cu  Cu0  1  0.29605000  0.80022000  0.23868000  1
  Cu  Cu1  1  0.19549000  0.86237000  0.28134000  1
  Cu  Cu2  1  0.51891000  0.04861000  0.99275000  1
  Cu  Cu3  1  0.20402000  0.69971000  0.73882000  1
  Cu  Cu4  1  0.30550000  0.63659000  0.78092000  1
  Cu  Cu5  1  0.98217000  0.45106000  0.49285000  1
  Cu  Cu6  1  0.70394000  0.19978000  0.76132000  1
  Cu  Cu7  1  0.80450000  0.13764000  0.71866000  1
  Cu  Cu8  1  0.48108000  0.95140000  0.00725000  1
  Cu  Cu9  1  0.79597000  0.30029000  0.26118000  1
  Cu  Cu10  1  0.69449000  0.36341000  0.21908000  1
  Cu  Cu11  1  0.01782000  0.54894000  0.50715000  1
  H  H12  1  0.01733000  0.74711000  0.30329000  1
  H  H13  1  0.94877000  0.94012000  0.22724000  1
  H  H14  1  0.72957000  0.05052000  0.05991000  1
  H  H15  1  0.65755000  0.88422000  0.09019000  1
  H  H16  1  0.19672000  0.64290000  0.22752000  1
  H  H17  1  0.54028000  0.71689000  0.29172000  1
  H  H18  1  0.34870000  0.78636000  0.37062000  1
  H  H19  1  0.13672000  0.85155000  0.15018000  1
  H  H20  1  0.77713000  0.53495000  0.21763000  1
  H  H21  1  0.95759000  0.41793000  0.28932000  1
  H  H22  1  0.73362000  0.52455000  0.44057000  1
  H  H23  1  0.83605000  0.68678000  0.44067000  1
  H  H24  1  0.70476000  0.01572000  0.22032000  1
  H  H25  1  0.81562000  0.02639000  0.22742000  1
  H  H26  1  0.79637000  0.95103000  0.23639000  1
  H  H27  1  0.15052000  0.44840000  0.33081000  1
  H  H28  1  0.11266000  0.40276000  0.30001000  1
  H  H29  1  0.03879000  0.43686000  0.33423000  1
  H  H30  1  0.81849000  0.71306000  0.33883000  1
  H  H31  1  0.86238000  0.76547000  0.31389000  1
  H  H32  1  0.93384000  0.71644000  0.34493000  1
  H  H33  1  0.18147000  0.50252000  0.18363000  1
  H  H34  1  0.24449000  0.53743000  0.21163000  1
  H  H35  1  0.16962000  0.58626000  0.18137000  1
  H  H36  1  0.90840000  0.11088000  0.09206000  1
  H  H37  1  0.78712000  0.12172000  0.08860000  1
  H  H38  1  0.86425000  0.07655000  0.05780000  1
  H  H39  1  0.76415000  0.77086000  0.15387000  1
  H  H40  1  0.74284000  0.78609000  0.11044000  1
  H  H41  1  0.66389000  0.83182000  0.14054000  1
  H  H42  1  0.08877000  0.83689000  0.06340000  1
  H  H43  1  0.11896000  0.79695000  0.10246000  1
  H  H44  1  0.14528000  0.87017000  0.09449000  1
  H  H45  1  0.53655000  0.50430000  0.39928000  1
  H  H46  1  0.59083000  0.51246000  0.43787000  1
  H  H47  1  0.65942000  0.48288000  0.40185000  1
  H  H48  1  0.77560000  0.62032000  0.29723000  1
  H  H49  1  0.69324000  0.69265000  0.28442000  1
  H  H50  1  0.66009000  0.62072000  0.28792000  1
  H  H51  1  0.74771000  0.83443000  0.39518000  1
  H  H52  1  0.83811000  0.76090000  0.39931000  1
  H  H53  1  0.77064000  0.79568000  0.43476000  1
  H  H54  1  0.38691000  0.76074000  0.45879000  1
  H  H55  1  0.33202000  0.74211000  0.42239000  1
  H  H56  1  0.36056000  0.81579000  0.42479000  1
  H  H57  1  0.77705000  0.69005000  0.18759000  1
  H  H58  1  0.71842000  0.64599000  0.21219000  1
  H  H59  1  0.79274000  0.60732000  0.17899000  1
  H  H60  1  0.48218000  0.75281000  0.80304000  1
  H  H61  1  0.55249000  0.55918000  0.72724000  1
  H  H62  1  0.77127000  0.44946000  0.56022000  1
  H  H63  1  0.84203000  0.61624000  0.59038000  1
  H  H64  1  0.30322000  0.85739000  0.72728000  1
  H  H65  1  0.95938000  0.78293000  0.79165000  1
  H  H66  1  0.15161000  0.71350000  0.87041000  1
  H  H67  1  0.36291000  0.64810000  0.65075000  1
  H  H68  1  0.72308000  0.96501000  0.71759000  1
  H  H69  1  0.54294000  0.08186000  0.78941000  1
  H  H70  1  0.76521000  0.97541000  0.94032000  1
  H  H71  1  0.66406000  0.81265000  0.94052000  1
  H  H72  1  0.79555000  0.48423000  0.72029000  1
  H  H73  1  0.68444000  0.47373000  0.72713000  1
  H  H74  1  0.70375000  0.54897000  0.73624000  1
  H  H75  1  0.34999000  0.05156000  0.83091000  1
  H  H76  1  0.38813000  0.09644000  0.79980000  1
  H  H77  1  0.46118000  0.06395000  0.83447000  1
  H  H78  1  0.68108000  0.78708000  0.83877000  1
  H  H79  1  0.63715000  0.73471000  0.81382000  1
  H  H80  1  0.56613000  0.78318000  0.84514000  1
  H  H81  1  0.31832000  0.99767000  0.68354000  1
  H  H82  1  0.25496000  0.96288000  0.71146000  1
  H  H83  1  0.33057000  0.91384000  0.68150000  1
  H  H84  1  0.59198000  0.38921000  0.59200000  1
  H  H85  1  0.71322000  0.37872000  0.58867000  1
  H  H86  1  0.63620000  0.42363000  0.55777000  1
  H  H87  1  0.73517000  0.72970000  0.65398000  1
  H  H88  1  0.75718000  0.71455000  0.61055000  1
  H  H89  1  0.83496000  0.66820000  0.64079000  1
  H  H90  1  0.41022000  0.66326000  0.56358000  1
  H  H91  1  0.38015000  0.70328000  0.60261000  1
  H  H92  1  0.35309000  0.63031000  0.59461000  1
  H  H93  1  0.96298000  0.99583000  0.89932000  1
  H  H94  1  0.90891000  0.98765000  0.93793000  1
  H  H95  1  0.83992000  0.01767000  0.90202000  1
  H  H96  1  0.72447000  0.87957000  0.79728000  1
  H  H97  1  0.80692000  0.80729000  0.78445000  1
  H  H98  1  0.83986000  0.87930000  0.78780000  1
  H  H99  1  0.75280000  0.66538000  0.89515000  1
  H  H100  1  0.66294000  0.73924000  0.89920000  1
  H  H101  1  0.72971000  0.70417000  0.93470000  1
  H  H102  1  0.11264000  0.73942000  0.95877000  1
  H  H103  1  0.16802000  0.75788000  0.92247000  1
  H  H104  1  0.13942000  0.68421000  0.92485000  1
  H  H105  1  0.72293000  0.80999000  0.68757000  1
  H  H106  1  0.78136000  0.85404000  0.71219000  1
  H  H107  1  0.70754000  0.89261000  0.67889000  1
  H  H108  1  0.98266000  0.25289000  0.69671000  1
  H  H109  1  0.05122000  0.05989000  0.77276000  1
  H  H110  1  0.27042000  0.94948000  0.94009000  1
  H  H111  1  0.34244000  0.11579000  0.90981000  1
  H  H112  1  0.80327000  0.35710000  0.77248000  1
  H  H113  1  0.45971000  0.28311000  0.70828000  1
  H  H114  1  0.65129000  0.21364000  0.62938000  1
  H  H115  1  0.86327000  0.14845000  0.84982000  1
  H  H116  1  0.22286000  0.46505000  0.78237000  1
  H  H117  1  0.04240000  0.58207000  0.71068000  1
  H  H118  1  0.26637000  0.47545000  0.55943000  1
  H  H119  1  0.16394000  0.31322000  0.55933000  1
  H  H120  1  0.29523000  0.98428000  0.77968000  1
  H  H121  1  0.18437000  0.97361000  0.77258000  1
  H  H122  1  0.20362000  0.04897000  0.76361000  1
  H  H123  1  0.84947000  0.55160000  0.66919000  1
  H  H124  1  0.88733000  0.59724000  0.69999000  1
  H  H125  1  0.96120000  0.56314000  0.66577000  1
  H  H126  1  0.18150000  0.28695000  0.66117000  1
  H  H127  1  0.13761000  0.23453000  0.68611000  1
  H  H128  1  0.06615000  0.28356000  0.65507000  1
  H  H129  1  0.81852000  0.49749000  0.81637000  1
  H  H130  1  0.75550000  0.46257000  0.78837000  1
  H  H131  1  0.83037000  0.41375000  0.81863000  1
  H  H132  1  0.09159000  0.88912000  0.90794000  1
  H  H133  1  0.21287000  0.87828000  0.91140000  1
  H  H134  1  0.13574000  0.92345000  0.94220000  1
  H  H135  1  0.23584000  0.22914000  0.84613000  1
  H  H136  1  0.25715000  0.21391000  0.88956000  1
  H  H137  1  0.33610000  0.16818000  0.85946000  1
  H  H138  1  0.91122000  0.16311000  0.93660000  1
  H  H139  1  0.88103000  0.20305000  0.89754000  1
  H  H140  1  0.85471000  0.12984000  0.90551000  1
  H  H141  1  0.46344000  0.49570000  0.60072000  1
  H  H142  1  0.40916000  0.48754000  0.56213000  1
  H  H143  1  0.34057000  0.51712000  0.59815000  1
  H  H144  1  0.22439000  0.37969000  0.70277000  1
  H  H145  1  0.30675000  0.30735000  0.71558000  1
  H  H146  1  0.33990000  0.37928000  0.71208000  1
  H  H147  1  0.25228000  0.16557000  0.60482000  1
  H  H148  1  0.16188000  0.23910000  0.60069000  1
  H  H149  1  0.22935000  0.20432000  0.56524000  1
  H  H150  1  0.61308000  0.23926000  0.54121000  1
  H  H151  1  0.66797000  0.25789000  0.57761000  1
  H  H152  1  0.63943000  0.18421000  0.57521000  1
  H  H153  1  0.22294000  0.30996000  0.81241000  1
  H  H154  1  0.28157000  0.35402000  0.78781000  1
  H  H155  1  0.20725000  0.39268000  0.82101000  1
  H  H156  1  0.51781000  0.24719000  0.19696000  1
  H  H157  1  0.44750000  0.44082000  0.27276000  1
  H  H158  1  0.22872000  0.55054000  0.43978000  1
  H  H159  1  0.15796000  0.38377000  0.40962000  1
  H  H160  1  0.69677000  0.14261000  0.27272000  1
  H  H161  1  0.04061000  0.21707000  0.20835000  1
  H  H162  1  0.84838000  0.28650000  0.12959000  1
  H  H163  1  0.63708000  0.35190000  0.34925000  1
  H  H164  1  0.27691000  0.03499000  0.28241000  1
  H  H165  1  0.45705000  0.91814000  0.21059000  1
  H  H166  1  0.23478000  0.02459000  0.05968000  1
  H  H167  1  0.33593000  0.18735000  0.05948000  1
  H  H168  1  0.20444000  0.51577000  0.27971000  1
  H  H169  1  0.31555000  0.52627000  0.27287000  1
  H  H170  1  0.29624000  0.45103000  0.26376000  1
  H  H171  1  0.65000000  0.94844000  0.16909000  1
  H  H172  1  0.61186000  0.90356000  0.20020000  1
  H  H173  1  0.53881000  0.93605000  0.16553000  1
  H  H174  1  0.31891000  0.21292000  0.16123000  1
  H  H175  1  0.36284000  0.26529000  0.18618000  1
  H  H176  1  0.43386000  0.21682000  0.15486000  1
  H  H177  1  0.68167000  0.00233000  0.31646000  1
  H  H178  1  0.74503000  0.03712000  0.28854000  1
  H  H179  1  0.66942000  0.08616000  0.31850000  1
  H  H180  1  0.40801000  0.61079000  0.40800000  1
  H  H181  1  0.28678000  0.62128000  0.41133000  1
  H  H182  1  0.36379000  0.57637000  0.44223000  1
  H  H183  1  0.26482000  0.27030000  0.34602000  1
  H  H184  1  0.24281000  0.28545000  0.38945000  1
  H  H185  1  0.16503000  0.33181000  0.35921000  1
  H  H186  1  0.58977000  0.33674000  0.43642000  1
  H  H187  1  0.61984000  0.29672000  0.39739000  1
  H  H188  1  0.64690000  0.36969000  0.40539000  1
  H  H189  1  0.03701000  0.00417000  0.10068000  1
  H  H190  1  0.09108000  0.01235000  0.06207000  1
  H  H191  1  0.16007000  0.98233000  0.09798000  1
  H  H192  1  0.27552000  0.12043000  0.20272000  1
  H  H193  1  0.19307000  0.19271000  0.21555000  1
  H  H194  1  0.16013000  0.12070000  0.21220000  1
  H  H195  1  0.24719000  0.33462000  0.10485000  1
  H  H196  1  0.33705000  0.26076000  0.10080000  1
  H  H197  1  0.27028000  0.29584000  0.06530000  1
  H  H198  1  0.88735000  0.26058000  0.04123000  1
  H  H199  1  0.83197000  0.24212000  0.07753000  1
  H  H200  1  0.86057000  0.31579000  0.07515000  1
  H  H201  1  0.27706000  0.19001000  0.31243000  1
  H  H202  1  0.21863000  0.14596000  0.28781000  1
  H  H203  1  0.29245000  0.10739000  0.32111000  1
  C  C204  1  0.61501000  0.98247000  0.04735000  1
  C  C205  1  0.16595000  0.74475000  0.26672000  1
  C  C206  1  0.36642000  0.78290000  0.30428000  1
  C  C207  1  0.81754000  0.42184000  0.24893000  1
  C  C208  1  0.03527000  0.70684000  0.28642000  1
  C  C209  1  0.00815000  0.61217000  0.26201000  1
  C  C210  1  0.96027000  0.92775000  0.20123000  1
  C  C211  1  0.95560000  0.56519000  0.25986000  1
  C  C212  1  0.82924000  0.94153000  0.12010000  1
  C  C213  1  0.08509000  0.60501000  0.24144000  1
  C  C214  1  0.74283000  0.00941000  0.07613000  1
  C  C215  1  0.77193000  0.90185000  0.11684000  1
  C  C216  1  0.98376000  0.66362000  0.28441000  1
  C  C217  1  0.90541000  0.92606000  0.14442000  1
  C  C218  1  0.88888000  0.94267000  0.17808000  1
  C  C219  1  0.81330000  0.99571000  0.09961000  1
  C  C220  1  0.11193000  0.69816000  0.26581000  1
  C  C221  1  0.12404000  0.87511000  0.21549000  1
  C  C222  1  0.70137000  0.91477000  0.09340000  1
  C  C223  1  0.13741000  0.64752000  0.24321000  1
  C  C224  1  0.04883000  0.89485000  0.19060000  1
  C  C225  1  0.98315000  0.50842000  0.27850000  1
  C  C226  1  0.52697000  0.72100000  0.31816000  1
  C  C227  1  0.68787000  0.96861000  0.07314000  1
  C  C228  1  0.59530000  0.69388000  0.34144000  1
  C  C229  1  0.43883000  0.75418000  0.32924000  1
  C  C230  1  0.41778000  0.76033000  0.36313000  1
  C  C231  1  0.57583000  0.69893000  0.37572000  1
  C  C232  1  0.64799000  0.66726000  0.39997000  1
  C  C233  1  0.06731000  0.87756000  0.15727000  1
  C  C234  1  0.88070000  0.57469000  0.23804000  1
  C  C235  1  0.99537000  0.89361000  0.13435000  1
  C  C236  1  0.48633000  0.73193000  0.38610000  1
  C  C237  1  0.83422000  0.52878000  0.23459000  1
  C  C238  1  0.93721000  0.46214000  0.27540000  1
  C  C239  1  0.72620000  0.57272000  0.43217000  1
  C  C240  1  0.79131000  0.60252000  0.44217000  1
  C  C241  1  0.86345000  0.47264000  0.25330000  1
  C  C242  1  0.78503000  0.66484000  0.43214000  1
  C  C243  1  0.86891000  0.56633000  0.46354000  1
  C  C244  1  0.65423000  0.60543000  0.41147000  1
  C  C245  1  0.71371000  0.69652000  0.41085000  1
  C  C246  1  0.77883000  0.99251000  0.21969000  1
  C  C247  1  0.09101000  0.44373000  0.31699000  1
  C  C248  1  0.87958000  0.71902000  0.32654000  1
  C  C249  1  0.17946000  0.54518000  0.19811000  1
  C  C250  1  0.85593000  0.08876000  0.08432000  1
  C  C251  1  0.73667000  0.80791000  0.13523000  1
  C  C252  1  0.09526000  0.84366000  0.09011000  1
  C  C253  1  0.59471000  0.51599000  0.41071000  1
  C  C254  1  0.70326000  0.64813000  0.29846000  1
  C  C255  1  0.76913000  0.78814000  0.40780000  1
  C  C256  1  0.38242000  0.76503000  0.43172000  1
  C  C257  1  0.78207000  0.64351000  0.19867000  1
  C  C258  1  0.88522000  0.51811000  0.54754000  1
  C  C259  1  0.33411000  0.75506000  0.76611000  1
  C  C260  1  0.13259000  0.71730000  0.80342000  1
  C  C261  1  0.68224000  0.07846000  0.74910000  1
  C  C262  1  0.46436000  0.79306000  0.78616000  1
  C  C263  1  0.49159000  0.88797000  0.76198000  1
  C  C264  1  0.54071000  0.57166000  0.70126000  1
  C  C265  1  0.54460000  0.93473000  0.75997000  1
  C  C266  1  0.67017000  0.55896000  0.62002000  1
  C  C267  1  0.41465000  0.89532000  0.74140000  1
  C  C268  1  0.75757000  0.49072000  0.57633000  1
  C  C269  1  0.72719000  0.59884000  0.61683000  1
  C  C270  1  0.51559000  0.83646000  0.78438000  1
  C  C271  1  0.59425000  0.57411000  0.64439000  1
  C  C272  1  0.61173000  0.55724000  0.67798000  1
  C  C273  1  0.68660000  0.50463000  0.59963000  1
  C  C274  1  0.38799000  0.80176000  0.76541000  1
  C  C275  1  0.37770000  0.62347000  0.71613000  1
  C  C276  1  0.79824000  0.58567000  0.59355000  1
  C  C277  1  0.36254000  0.85263000  0.74296000  1
  C  C278  1  0.45191000  0.60441000  0.69086000  1
  C  C279  1  0.51771000  0.99121000  0.77884000  1
  C  C280  1  0.97297000  0.77884000  0.81806000  1
  C  C281  1  0.81240000  0.53160000  0.57340000  1
  C  C282  1  0.90495000  0.80610000  0.84140000  1
  C  C283  1  0.06125000  0.74563000  0.82890000  1
  C  C284  1  0.08258000  0.73949000  0.86281000  1
  C  C285  1  0.92447000  0.80105000  0.87565000  1
  C  C286  1  0.85225000  0.83268000  0.89995000  1
  C  C287  1  0.43253000  0.62209000  0.65762000  1
  C  C288  1  0.61930000  0.92536000  0.73803000  1
  C  C289  1  0.50398000  0.60635000  0.63449000  1
  C  C290  1  0.01404000  0.76790000  0.88587000  1
  C  C291  1  0.66599000  0.97120000  0.73458000  1
  C  C292  1  0.56333000  0.03761000  0.77554000  1
  C  C293  1  0.77299000  0.92718000  0.93196000  1
  C  C294  1  0.70810000  0.89718000  0.94195000  1
  C  C295  1  0.63678000  0.02734000  0.75331000  1
  C  C296  1  0.71493000  0.83475000  0.93199000  1
  C  C297  1  0.63033000  0.93380000  0.96313000  1
  C  C298  1  0.84530000  0.89464000  0.91139000  1
  C  C299  1  0.78681000  0.80317000  0.91085000  1
  C  C300  1  0.72154000  0.50751000  0.71951000  1
  C  C301  1  0.40971000  0.05614000  0.81720000  1
  C  C302  1  0.61987000  0.78104000  0.82659000  1
  C  C303  1  0.32024000  0.95514000  0.69810000  1
  C  C304  1  0.64431000  0.41150000  0.58431000  1
  C  C305  1  0.76245000  0.69266000  0.63532000  1
  C  C306  1  0.40350000  0.65653000  0.59029000  1
  C  C307  1  0.90465000  0.98434000  0.91076000  1
  C  C308  1  0.79688000  0.85186000  0.79845000  1
  C  C309  1  0.73170000  0.71168000  0.90775000  1
  C  C310  1  0.11746000  0.73500000  0.93170000  1
  C  C311  1  0.71777000  0.85655000  0.69863000  1
  C  C312  1  0.38498000  0.01753000  0.95265000  1
  C  C313  1  0.83404000  0.25525000  0.73328000  1
  C  C314  1  0.63357000  0.21710000  0.69572000  1
  C  C315  1  0.18245000  0.57816000  0.75107000  1
  C  C316  1  0.96472000  0.29316000  0.71358000  1
  C  C317  1  0.99184000  0.38784000  0.73799000  1
  C  C318  1  0.03972000  0.07225000  0.79877000  1
  C  C319  1  0.04439000  0.43482000  0.74014000  1
  C  C320  1  0.17075000  0.05847000  0.87990000  1
  C  C321  1  0.91490000  0.39499000  0.75856000  1
  C  C322  1  0.25716000  0.99059000  0.92387000  1
  C  C323  1  0.22806000  0.09815000  0.88316000  1
  C  C324  1  0.01623000  0.33639000  0.71559000  1
  C  C325  1  0.09458000  0.07394000  0.85558000  1
  C  C326  1  0.11111000  0.05733000  0.82192000  1
  C  C327  1  0.18669000  0.00429000  0.90039000  1
  C  C328  1  0.88806000  0.30184000  0.73419000  1
  C  C329  1  0.87595000  0.12489000  0.78451000  1
  C  C330  1  0.29862000  0.08523000  0.90660000  1
  C  C331  1  0.86258000  0.35248000  0.75679000  1
  C  C332  1  0.95116000  0.10515000  0.80940000  1
  C  C333  1  0.01684000  0.49158000  0.72150000  1
  C  C334  1  0.47302000  0.27900000  0.68184000  1
  C  C335  1  0.31212000  0.03139000  0.92686000  1
  C  C336  1  0.40469000  0.30612000  0.65856000  1
  C  C337  1  0.56116000  0.24582000  0.67076000  1
  C  C338  1  0.58221000  0.23967000  0.63687000  1
  C  C339  1  0.42416000  0.30107000  0.62428000  1
  C  C340  1  0.35200000  0.33274000  0.60003000  1
  C  C341  1  0.93268000  0.12244000  0.84273000  1
  C  C342  1  0.11929000  0.42531000  0.76196000  1
  C  C343  1  0.00462000  0.10639000  0.86565000  1
  C  C344  1  0.51366000  0.26807000  0.61390000  1
  C  C345  1  0.16577000  0.47122000  0.76541000  1
  C  C346  1  0.06278000  0.53786000  0.72460000  1
  C  C347  1  0.27379000  0.42728000  0.56783000  1
  C  C348  1  0.20868000  0.39749000  0.55783000  1
  C  C349  1  0.13654000  0.52736000  0.74670000  1
  C  C350  1  0.21496000  0.33516000  0.56786000  1
  C  C351  1  0.13108000  0.43367000  0.53646000  1
  C  C352  1  0.34576000  0.39457000  0.58853000  1
  C  C353  1  0.28628000  0.30348000  0.58915000  1
  C  C354  1  0.22116000  0.00750000  0.78031000  1
  C  C355  1  0.90898000  0.55627000  0.68301000  1
  C  C356  1  0.12041000  0.28098000  0.67346000  1
  C  C357  1  0.82053000  0.45482000  0.80189000  1
  C  C358  1  0.14406000  0.91124000  0.91568000  1
  C  C359  1  0.26332000  0.19209000  0.86477000  1
  C  C360  1  0.90473000  0.15634000  0.90989000  1
  C  C361  1  0.40528000  0.48401000  0.58929000  1
  C  C362  1  0.29673000  0.35188000  0.70154000  1
  C  C363  1  0.23086000  0.21186000  0.59220000  1
  C  C364  1  0.61757000  0.23497000  0.56828000  1
  C  C365  1  0.21792000  0.35649000  0.80133000  1
  C  C366  1  0.11477000  0.48189000  0.45246000  1
  C  C367  1  0.66588000  0.24494000  0.23389000  1
  C  C368  1  0.86740000  0.28270000  0.19658000  1
  C  C369  1  0.31775000  0.92154000  0.25090000  1
  C  C370  1  0.53563000  0.20694000  0.21384000  1
  C  C371  1  0.50840000  0.11203000  0.23802000  1
  C  C372  1  0.45928000  0.42834000  0.29874000  1
  C  C373  1  0.45539000  0.06527000  0.24003000  1
  C  C374  1  0.32982000  0.44104000  0.37998000  1
  C  C375  1  0.58534000  0.10468000  0.25860000  1
  C  C376  1  0.24242000  0.50928000  0.42367000  1
  C  C377  1  0.27280000  0.40116000  0.38317000  1
  C  C378  1  0.48441000  0.16354000  0.21562000  1
  C  C379  1  0.40574000  0.42590000  0.35561000  1
  C  C380  1  0.38826000  0.44276000  0.32202000  1
  C  C381  1  0.31339000  0.49537000  0.40037000  1
  C  C382  1  0.61200000  0.19825000  0.23459000  1
  C  C383  1  0.62229000  0.37653000  0.28387000  1
  C  C384  1  0.20175000  0.41433000  0.40645000  1
  C  C385  1  0.63745000  0.14737000  0.25704000  1
  C  C386  1  0.54808000  0.39560000  0.30914000  1
  C  C387  1  0.48228000  0.00879000  0.22116000  1
  C  C388  1  0.02702000  0.22116000  0.18194000  1
  C  C389  1  0.18759000  0.46840000  0.42660000  1
  C  C390  1  0.09504000  0.19390000  0.15860000  1
  C  C391  1  0.93875000  0.25438000  0.17110000  1
  C  C392  1  0.91741000  0.26052000  0.13719000  1
  C  C393  1  0.07552000  0.19896000  0.12435000  1
  C  C394  1  0.14774000  0.16732000  0.10005000  1
  C  C395  1  0.56746000  0.37791000  0.34238000  1
  C  C396  1  0.38070000  0.07464000  0.26197000  1
  C  C397  1  0.49601000  0.39365000  0.36551000  1
  C  C398  1  0.98595000  0.23210000  0.11413000  1
  C  C399  1  0.33400000  0.02881000  0.26542000  1
  C  C400  1  0.43666000  0.96239000  0.22446000  1
  C  C401  1  0.22700000  0.07282000  0.06804000  1
  C  C402  1  0.29189000  0.10282000  0.05805000  1
  C  C403  1  0.36321000  0.97266000  0.24669000  1
  C  C404  1  0.28506000  0.16526000  0.06801000  1
  C  C405  1  0.36966000  0.06620000  0.03687000  1
  C  C406  1  0.15469000  0.10536000  0.08861000  1
  C  C407  1  0.21319000  0.19683000  0.08915000  1
  C  C408  1  0.27845000  0.49249000  0.28049000  1
  C  C409  1  0.59028000  0.94386000  0.18280000  1
  C  C410  1  0.38012000  0.21896000  0.17341000  1
  C  C411  1  0.67975000  0.04487000  0.30190000  1
  C  C412  1  0.35568000  0.58850000  0.41569000  1
  C  C413  1  0.23754000  0.30734000  0.36468000  1
  C  C414  1  0.59649000  0.34347000  0.40971000  1
  C  C415  1  0.09534000  0.01566000  0.08924000  1
  C  C416  1  0.20311000  0.14814000  0.20155000  1
  C  C417  1  0.26829000  0.28833000  0.09225000  1
  C  C418  1  0.88253000  0.26500000  0.06830000  1
  C  C419  1  0.28222000  0.14345000  0.30137000  1
  O  O420  1  0.13803000  0.79299000  0.28614000  1
  O  O421  1  0.29049000  0.82130000  0.31459000  1
  O  O422  1  0.20014000  0.83651000  0.20553000  1
  O  O423  1  0.60441000  0.03344000  0.03019000  1
  O  O424  1  0.75561000  0.43024000  0.22643000  1
  O  O425  1  0.84466000  0.37284000  0.26782000  1
  O  O426  1  0.23573000  0.73366000  0.24740000  1
  O  O427  1  0.38621000  0.76678000  0.27397000  1
  O  O428  1  0.10676000  0.89687000  0.24510000  1
  O  O429  1  0.91672000  0.59768000  0.47809000  1
  O  O430  1  0.88212000  0.50588000  0.46572000  1
  O  O431  1  0.56912000  0.94237000  0.04387000  1
  O  O432  1  0.79947000  0.97317000  0.18581000  1
  O  O433  1  0.68362000  0.66080000  0.33317000  1
  O  O434  1  0.87087000  0.03258000  0.10444000  1
  O  O435  1  0.79120000  0.85075000  0.13813000  1
  O  O436  1  0.10345000  0.55378000  0.22030000  1
  O  O437  1  0.90737000  0.66750000  0.30316000  1
  O  O438  1  0.00540000  0.87891000  0.10114000  1
  O  O439  1  0.47270000  0.73337000  0.41982000  1
  O  O440  1  0.05718000  0.50243000  0.29884000  1
  O  O441  1  0.58710000  0.58019000  0.40061000  1
  O  O442  1  0.85888000  0.63097000  0.22066000  1
  O  O443  1  0.70204000  0.75711000  0.39886000  1
  O  O444  1  0.36402000  0.70572000  0.78462000  1
  O  O445  1  0.20909000  0.67915000  0.81329000  1
  O  O446  1  0.30205000  0.66329000  0.70680000  1
  O  O447  1  0.89748000  0.46674000  0.53057000  1
  O  O448  1  0.74577000  0.06985000  0.72718000  1
  O  O449  1  0.65330000  0.12783000  0.76765000  1
  O  O450  1  0.26259000  0.76705000  0.74761000  1
  O  O451  1  0.11146000  0.73333000  0.77313000  1
  O  O452  1  0.39527000  0.60005000  0.74543000  1
  O  O453  1  0.58232000  0.90298000  0.97803000  1
  O  O454  1  0.61745000  0.99429000  0.96477000  1
  O  O455  1  0.92937000  0.55922000  0.54383000  1
  O  O456  1  0.70143000  0.52697000  0.68559000  1
  O  O457  1  0.81689000  0.83938000  0.83315000  1
  O  O458  1  0.62895000  0.46780000  0.60438000  1
  O  O459  1  0.70702000  0.65034000  0.63794000  1
  O  O460  1  0.39566000  0.94698000  0.72049000  1
  O  O461  1  0.59137000  0.83281000  0.80337000  1
  O  O462  1  0.49326000  0.62099000  0.60126000  1
  O  O463  1  0.02730000  0.76655000  0.91961000  1
  O  O464  1  0.44461000  0.99693000  0.79959000  1
  O  O465  1  0.91199000  0.92024000  0.90057000  1
  O  O466  1  0.64052000  0.86927000  0.72049000  1
  O  O467  1  0.79933000  0.74242000  0.89897000  1
  O  O468  1  0.86196000  0.20701000  0.71386000  1
  O  O469  1  0.70950000  0.17870000  0.68541000  1
  O  O470  1  0.79985000  0.16349000  0.79447000  1
  O  O471  1  0.39559000  0.96657000  0.96981000  1
  O  O472  1  0.24438000  0.56976000  0.77357000  1
  O  O473  1  0.15533000  0.62716000  0.73218000  1
  O  O474  1  0.76426000  0.26634000  0.75260000  1
  O  O475  1  0.61378000  0.23322000  0.72603000  1
  O  O476  1  0.89323000  0.10313000  0.75490000  1
  O  O477  1  0.08327000  0.40232000  0.52191000  1
  O  O478  1  0.11789000  0.49412000  0.53427000  1
  O  O479  1  0.43087000  0.05763000  0.95613000  1
  O  O480  1  0.20052000  0.02683000  0.81419000  1
  O  O481  1  0.31637000  0.33920000  0.66683000  1
  O  O482  1  0.12912000  0.96742000  0.89556000  1
  O  O483  1  0.20879000  0.14925000  0.86187000  1
  O  O484  1  0.89654000  0.44622000  0.77970000  1
  O  O485  1  0.09263000  0.33250000  0.69684000  1
  O  O486  1  0.99459000  0.12109000  0.89886000  1
  O  O487  1  0.52729000  0.26663000  0.58018000  1
  O  O488  1  0.94281000  0.49757000  0.70116000  1
  O  O489  1  0.41289000  0.41981000  0.59939000  1
  O  O490  1  0.14111000  0.36903000  0.77934000  1
  O  O491  1  0.29795000  0.24289000  0.60114000  1
  O  O492  1  0.63597000  0.29428000  0.21538000  1
  O  O493  1  0.79090000  0.32086000  0.18671000  1
  O  O494  1  0.69794000  0.33671000  0.29320000  1
  O  O495  1  0.10251000  0.53326000  0.46942000  1
  O  O496  1  0.25422000  0.93015000  0.27282000  1
  O  O497  1  0.34669000  0.87217000  0.23235000  1
  O  O498  1  0.73740000  0.23295000  0.25239000  1
  O  O499  1  0.88853000  0.26667000  0.22687000  1
  O  O500  1  0.60472000  0.39995000  0.25457000  1
  O  O501  1  0.41767000  0.09703000  0.02197000  1
  O  O502  1  0.38254000  0.00571000  0.03523000  1
  O  O503  1  0.07062000  0.44078000  0.45618000  1
  O  O504  1  0.29856000  0.47303000  0.31441000  1
  O  O505  1  0.18310000  0.16062000  0.16685000  1
  O  O506  1  0.37104000  0.53220000  0.39562000  1
  O  O507  1  0.29297000  0.34966000  0.36206000  1
  O  O508  1  0.60433000  0.05302000  0.27951000  1
  O  O509  1  0.40862000  0.16719000  0.19663000  1
  O  O510  1  0.50673000  0.37901000  0.39874000  1
  O  O511  1  0.97269000  0.23346000  0.08039000  1
  O  O512  1  0.55538000  0.00307000  0.20041000  1
  O  O513  1  0.08800000  0.07976000  0.09943000  1
  O  O514  1  0.35947000  0.13073000  0.27951000  1
  O  O515  1  0.20066000  0.25758000  0.10103000  1
