# generated using pymatgen
data_H64C97N4
_symmetry_space_group_name_H-M   'P 1'
_cell_length_a   17.98900000
_cell_length_b   25.73594233
_cell_length_c   25.73598164
_cell_angle_alpha   78.95364313
_cell_angle_beta   69.54380008
_cell_angle_gamma   69.54376743
_symmetry_Int_Tables_number   1
_chemical_formula_structural   H64C97N4
_chemical_formula_sum   'H64 C97 N4'
_cell_volume   10426.70869850
_cell_formula_units_Z   1
loop_
 _symmetry_equiv_pos_site_id
 _symmetry_equiv_pos_as_xyz
  1  'x, y, z'
loop_
 _atom_site_type_symbol
 _atom_site_label
 _atom_site_symmetry_multiplicity
 _atom_site_fract_x
 _atom_site_fract_y
 _atom_site_fract_z
 _atom_site_occupancy
  C  1  1  0.99938350  0.19935300  0.99452500  1
  C  2  1  0.96926100  0.15652500  0.99118000  1
  C  3  1  0.01958200  0.10016500  0.99102800  1
  C  4  1  0.10242050  0.08442050  0.99309250  1
  C  5  1  0.13227850  0.12890900  0.99356000  1
  C  6  1  0.08237650  0.18460800  0.99482800  1
  C  7  1  0.16209150  0.02489400  0.99572100  1
  C  8  1  0.22177100  0.02750350  0.93619250  1
  C  9  1  0.30460300  0.02958050  0.92044550  1
  C  10  1  0.35493600  0.02938750  0.86408950  1
  C  11  1  0.32479850  0.02606950  0.82125850  1
  C  12  1  0.24180950  0.02576000  0.83600700  1
  C  13  1  0.19192250  0.02700650  0.89170950  1
  C  23  1  0.89953400  0.46375300  0.99215000  1
  C  24  1  0.87707450  0.37432800  0.99593700  1
  C  25  1  0.76121550  0.46052300  0.99602700  1
  C  26  1  0.61191850  0.47754250  0.04486050  1
  C  27  1  0.69576600  0.45326250  0.04390550  1
  C  28  1  0.88839050  0.48949500  0.03920200  1
  C  29  1  0.94617550  0.51491550  0.03940350  1
  C  30  1  0.90279000  0.34373550  0.04168350  1
  C  31  1  0.93975450  0.28568350  0.04214450  1
  C  32  1  0.95031700  0.25636950  0.99748250  1
  C  33  1  0.92161250  0.28685800  0.95265100  1
  C  34  1  0.88583750  0.34518750  0.95180150  1
  C  44  1  0.56300350  0.02456700  0.56009200  1
  C  45  1  0.44714550  0.02465250  0.64628850  1
  C  46  1  0.42469050  0.02844650  0.55685850  1
  C  47  1  0.37803400  0.98118950  0.50570550  1
  C  48  1  0.43584800  0.98139950  0.53109750  1
  C  49  1  0.62845400  0.97668750  0.56735350  1
  C  50  1  0.71230300  0.97573100  0.54307100  1
  C  51  1  0.43841000  0.06877700  0.67543200  1
  C  52  1  0.40257150  0.06794700  0.73375900  1
  C  53  1  0.37385700  0.02311700  0.76424100  1
  C  54  1  0.38443000  0.97845250  0.73492750  1
  C  55  1  0.42140450  0.97891200  0.67687500  1
  C  139  1  0.59037200  0.50984300  0.99800600  1
  C  140  1  0.73384950  0.02258550  0.51077050  1
  C  141  1  0.16244100  0.55678150  0.04211250  1
  C  142  1  0.10376050  0.53257800  0.04109400  1
  C  143  1  0.44183900  0.55928500  0.04621800  1
  C  144  1  0.88237500  0.97438050  0.46130550  1
  C  145  1  0.22044850  0.97949850  0.48804550  1
  C  146  1  0.16178300  0.97847750  0.46382950  1
  C  155  1  0.74072450  0.49301400  0.94933000  1
  C  156  1  0.01715050  0.51562700  0.99261400  1
  C  157  1  0.02674650  0.49048000  0.94523300  1
  C  158  1  0.96917900  0.46488750  0.94503050  1
  C  160  1  0.35503100  0.07555750  0.55573850  1
  C  161  1  0.29747850  0.07536500  0.53013000  1
  C  162  1  0.30705950  0.02797700  0.50499700  1
  C  163  1  0.58349650  0.07126850  0.52761250  1
  C  165  1  0.07759700  0.53995250  0.99343350  1
  C  166  1  0.50478100  0.53416750  0.99882550  1
  C  167  1  0.35848600  0.58489700  0.04640700  1
  C  169  1  0.96573450  0.97418150  0.43570850  1
  C  170  1  0.81943950  0.02176600  0.48644100  1
  C  171  1  0.24661450  0.02715900  0.48067100  1
  C  191  1  0.65682400  0.51722750  0.95034850  1
  C  192  1  0.66739850  0.07024650  0.50339750  1
  C  199  1  0.33481900  0.58602250  0.99929450  1
  C  200  1  0.19714400  0.58926850  0.99541250  1
  C  201  1  0.47989150  0.53488450  0.95203150  1
  C  202  1  0.12706850  0.02517950  0.43135050  1
  C  203  1  0.98940250  0.02129400  0.43458600  1
  C  204  1  0.84433750  0.06855100  0.48573700  1
  C  215  1  0.16484900  0.02228900  0.05524600  1
  C  216  1  0.23401150  0.02021350  0.07099450  1
  C  217  1  0.22779400  0.02040850  0.12735050  1
  C  218  1  0.15151300  0.02371300  0.17018200  1
  C  219  1  0.08296350  0.02402550  0.15543250  1
  C  220  1  0.09002700  0.02277600  0.09973100  1
  C  221  1  0.15933100  0.96536550  0.99834550  1
  C  222  1  0.09017400  0.94961350  0.00042050  1
  C  223  1  0.09638400  0.89325450  0.00025350  1
  C  224  1  0.17267750  0.85042700  0.99692900  1
  C  225  1  0.24121950  0.86518100  0.99662600  1
  C  226  1  0.23415300  0.92088400  0.99787100  1
  C  279  1  0.22674150  0.67545850  0.99550150  1
  C  284  1  0.11371600  0.57223850  0.94657250  1
  C  285  1  0.17230450  0.59653650  0.94753550  1
  C  286  1  0.39647800  0.56029050  0.95223750  1
  C  291  1  0.26764700  0.70604600  0.94977000  1
  C  292  1  0.24700200  0.76410000  0.94929800  1
  C  293  1  0.18361150  0.79340750  0.99396450  1
  C  294  1  0.14053700  0.76293050  0.03879250  1
  C  295  1  0.16221650  0.70460150  0.03963050  1
  C  310  1  0.09748850  0.02509500  0.34515500  1
  C  316  1  0.92774900  0.06834450  0.46032950  1
  C  317  1  0.15189850  0.07305800  0.42409200  1
  C  318  1  0.21049650  0.07401800  0.44838300  1
  C  322  1  0.16201850  0.98097250  0.31600550  1
  C  323  1  0.18369050  0.98181250  0.25767850  1
  C  324  1  0.14061400  0.02664200  0.22720600  1
  C  325  1  0.07722000  0.07131250  0.25651450  1
  C  326  1  0.05658850  0.07083550  0.31456850  1
  H  14  1  0.41485600  0.02990300  0.85465600  1
  H  15  1  0.32974600  0.03092950  0.94968150  1
  H  16  1  0.21673150  0.02453600  0.80629500  1
  H  17  1  0.13246150  0.02606850  0.89996250  1
  H  18  1  0.19172450  0.12065800  0.99452700  1
  H  19  1  0.99442550  0.07092450  0.98971050  1
  H  20  1  0.90931150  0.16594300  0.99073600  1
  H  21  1  0.10744450  0.21432250  0.99606150  1
  H  35  1  0.93564400  0.53307300  0.07441700  1
  H  36  1  0.83904600  0.48858350  0.07415750  1
  H  37  1  0.89774250  0.36392500  0.07391700  1
  H  38  1  0.96105550  0.26507450  0.07483850  1
  H  39  1  0.93084050  0.26725850  0.91884650  1
  H  40  1  0.86856800  0.36664350  0.91794050  1
  H  41  1  0.70907500  0.42934200  0.07807100  1
  H  42  1  0.56657300  0.47000800  0.07992900  1
  H  56  1  0.75765450  0.94065400  0.55058800  1
  H  57  1  0.61514650  0.94251600  0.59125900  1
  H  58  1  0.45560300  0.10266450  0.65397450  1
  H  59  1  0.39331850  0.10176150  0.75335550  1
  H  60  1  0.36316650  0.94574250  0.75553650  1
  H  61  1  0.42649500  0.94666850  0.65668550  1
  H  62  1  0.48515650  0.94643000  0.53204500  1
  H  63  1  0.38855550  0.94617100  0.48755900  1
  H  64  1  0.45664950  0.56109200  0.08062300  1
  H  65  1  0.17903250  0.55122850  0.07743950  1
  H  66  1  0.08079850  0.50888550  0.07569950  1
  H  67  1  0.14518500  0.94315100  0.46938600  1
  H  68  1  0.24341450  0.94489050  0.51173250  1
  H  69  1  0.86755550  0.93997650  0.45950150  1
  H  159  1  0.97946450  0.44565900  0.91076300  1
  H  164  1  0.34475750  0.10982700  0.57496000  1
  H  168  1  0.31526450  0.60411050  0.08068250  1
  H  172  1  0.00894250  0.93991550  0.41647450  1
  H  195  1  0.07775600  0.48869300  0.91082000  1
  H  196  1  0.78709300  0.49857600  0.91400400  1
  H  197  1  0.53712800  0.10659550  0.52205550  1
  H  198  1  0.24645600  0.10977200  0.53193000  1
  H  227  1  0.03445650  0.97885000  0.00173600  1
  H  228  1  0.04540600  0.88382450  0.00071750  1
  H  229  1  0.29723750  0.83547050  0.99539950  1
  H  230  1  0.28629900  0.92914050  0.99692650  1
  H  231  1  0.03786950  0.02373250  0.09147950  1
  H  232  1  0.02694900  0.02525000  0.18514600  1
  H  233  1  0.27880900  0.01986650  0.13678550  1
  H  234  1  0.28974300  0.01885900  0.04175900  1
  H  276  1  0.64477550  0.54092400  0.91574700  1
  H  296  1  0.52253750  0.51674150  0.91701050  1
  H  297  1  0.38118250  0.56121800  0.91727800  1
  H  302  1  0.31496900  0.68585650  0.91751550  1
  H  303  1  0.28038500  0.78470750  0.91659650  1
  H  304  1  0.09636500  0.78253100  0.07259600  1
  H  305  1  0.13254400  0.68314700  0.07349700  1
  H  306  1  0.19588450  0.62043850  0.91336150  1
  H  307  1  0.09589900  0.57977850  0.91150450  1
  H  327  1  0.22831000  0.10908700  0.44084700  1
  H  328  1  0.12832800  0.10723100  0.40018200  1
  H  333  1  0.19166800  0.94709800  0.33746200  1
  H  334  1  0.22785150  0.94800750  0.23807750  1
  H  335  1  0.04382050  0.10400900  0.23591300  1
  H  336  1  0.00923300  0.10307600  0.33476600  1
  H  337  1  0.94304700  0.10330300  0.45940900  1
  H  338  1  0.80169550  0.10356850  0.50389150  1
  H  339  1  0.67944400  0.10485350  0.47970650  1
  N  22  1  0.84589650  0.43341750  0.99373650  1
  N  43  1  0.47832300  0.02685550  0.58719850  1
  N  277  1  0.25243900  0.61636800  0.99770000  1
  N  308  1  0.07178300  0.02289150  0.40424250  1
