# generated using pymatgen
data_GdH3C7NO4
_symmetry_space_group_name_H-M   'P 1'
_cell_length_a   12.19977000
_cell_length_b   14.37633253
_cell_length_c   16.75274036
_cell_angle_alpha   85.11160739
_cell_angle_beta   70.96307686
_cell_angle_gamma   70.50483120
_symmetry_Int_Tables_number   1
_chemical_formula_structural   GdH3C7NO4
_chemical_formula_sum   'Gd8 H24 C56 N8 O32'
_cell_volume   2617.37445582
_cell_formula_units_Z   8
loop_
 _symmetry_equiv_pos_site_id
 _symmetry_equiv_pos_as_xyz
  1  'x, y, z'
loop_
 _atom_site_type_symbol
 _atom_site_label
 _atom_site_symmetry_multiplicity
 _atom_site_fract_x
 _atom_site_fract_y
 _atom_site_fract_z
 _atom_site_occupancy
  Gd  Gd0  1  0.01566000  0.95012000  0.22545000  1
  Gd  Gd1  1  0.89096000  0.25980000  0.52767000  1
  Gd  Gd2  1  0.20714000  0.51936000  0.26233000  1
  Gd  Gd3  1  0.69253000  0.20793000  0.99160000  1
  Gd  Gd4  1  0.01377000  0.01704000  0.78253000  1
  Gd  Gd5  1  0.10094000  0.75251000  0.44527000  1
  Gd  Gd6  1  0.79760000  0.48936000  0.71871000  1
  Gd  Gd7  1  0.31978000  0.74245000  0.03607000  1
  H  H8  1  0.19064000  0.11511000  0.41310000  1
  H  H9  1  0.41061000  0.06237000  0.31700000  1
  H  H10  1  0.47365000  0.94921000  0.19347000  1
  H  H11  1  0.13060000  0.11352000  0.03847000  1
  H  H12  1  0.22933000  0.19595000  0.90792000  1
  H  H13  1  0.09624000  0.29775000  0.82165000  1
  H  H14  1  0.70006000  0.38229000  0.11630000  1
  H  H15  1  0.75093000  0.49565000  0.19473000  1
  H  H16  1  0.58436000  0.61810000  0.30000000  1
  H  H17  1  0.23975000  0.43329000  0.46028000  1
  H  H18  1  0.32115000  0.35930000  0.58001000  1
  H  H19  1  0.22482000  0.24397000  0.67708000  1
  H  H20  1  0.82856000  0.85061000  0.60420000  1
  H  H21  1  0.61648000  0.88814000  0.71125000  1
  H  H22  1  0.56354000  0.99056000  0.84137000  1
  H  H23  1  0.90254000  0.90544000  0.95116000  1
  H  H24  1  0.77519000  0.81505000  0.05601000  1
  H  H25  1  0.87162000  0.69444000  0.15298000  1
  H  H26  1  0.30710000  0.62736000  0.86794000  1
  H  H27  1  0.25198000  0.54088000  0.76913000  1
  H  H28  1  0.41968000  0.42598000  0.65540000  1
  H  H29  1  0.74602000  0.57691000  0.55056000  1
  H  H30  1  0.61743000  0.67591000  0.46213000  1
  H  H31  1  0.69833000  0.79143000  0.35476000  1
  C  C32  1  0.13819000  0.04033000  0.33379000  1
  C  C33  1  0.22077000  0.06870000  0.35674000  1
  C  C34  1  0.34473000  0.03670000  0.30368000  1
  C  C35  1  0.37981000  0.97380000  0.23491000  1
  C  C36  1  0.29204000  0.94381000  0.21583000  1
  C  C37  1  0.00306000  0.07409000  0.37896000  1
  C  C38  1  0.31128000  0.87879000  0.14931000  1
  C  C39  1  0.95471000  0.16801000  0.02063000  1
  C  C40  1  0.07720000  0.15866000  0.99996000  1
  C  C41  1  0.13198000  0.20565000  0.92718000  1
  C  C42  1  0.05959000  0.26152000  0.87924000  1
  C  C43  1  0.93512000  0.27141000  0.90435000  1
  C  C44  1  0.88983000  0.11418000  0.08883000  1
  C  C45  1  0.84984000  0.32408000  0.86000000  1
  C  C46  1  0.50724000  0.44247000  0.18362000  1
  C  C47  1  0.62845000  0.43597000  0.16374000  1
  C  C48  1  0.65645000  0.50032000  0.20773000  1
  C  C49  1  0.56305000  0.56839000  0.26695000  1
  C  C50  1  0.44045000  0.57309000  0.28388000  1
  C  C51  1  0.46255000  0.37929000  0.14421000  1
  C  C52  1  0.33359000  0.63877000  0.34149000  1
  C  C53  1  0.10925000  0.35622000  0.49085000  1
  C  C54  1  0.20183000  0.38230000  0.50278000  1
  C  C55  1  0.24683000  0.34164000  0.57027000  1
  C  C56  1  0.19439000  0.27758000  0.62409000  1
  C  C57  1  0.09914000  0.25538000  0.61073000  1
  C  C58  1  0.05643000  0.39000000  0.42179000  1
  C  C59  1  0.03726000  0.19020000  0.66110000  1
  C  C60  1  0.88978000  0.91814000  0.68203000  1
  C  C61  1  0.80367000  0.88987000  0.66341000  1
  C  C62  1  0.68398000  0.91329000  0.72319000  1
  C  C63  1  0.65484000  0.96862000  0.79541000  1
  C  C64  1  0.74505000  0.99788000  0.81090000  1
  C  C65  1  0.01962000  0.89831000  0.62612000  1
  C  C66  1  0.72634000  0.05986000  0.87963000  1
  C  C67  1  0.06321000  0.82937000  0.98606000  1
  C  C68  1  0.94206000  0.85007000  0.99145000  1
  C  C69  1  0.87006000  0.80024000  0.05161000  1
  C  C70  1  0.92232000  0.73395000  0.10477000  1
  C  C71  1  0.04564000  0.71673000  0.09731000  1
  C  C72  1  0.14924000  0.87545000  0.92660000  1
  C  C73  1  0.10773000  0.65107000  0.14950000  1
  C  C74  1  0.49985000  0.56555000  0.80231000  1
  C  C75  1  0.37780000  0.57920000  0.81626000  1
  C  C76  1  0.34715000  0.52997000  0.76099000  1
  C  C77  1  0.43977000  0.46680000  0.69733000  1
  C  C78  1  0.56281000  0.45499000  0.68619000  1
  C  C79  1  0.54737000  0.61019000  0.85494000  1
  C  C80  1  0.66811000  0.39098000  0.62577000  1
  C  C81  1  0.88021000  0.65118000  0.50272000  1
  C  C82  1  0.77453000  0.63224000  0.50773000  1
  C  C83  1  0.70474000  0.68494000  0.45526000  1
  C  C84  1  0.74897000  0.74869000  0.39599000  1
  C  C85  1  0.86017000  0.76130000  0.39052000  1
  C  C86  1  0.95721000  0.60879000  0.55763000  1
  C  C87  1  0.91771000  0.82040000  0.32981000  1
  N  N88  1  0.17013000  0.98184000  0.26500000  1
  N  N89  1  0.88271000  0.22495000  0.97510000  1
  N  N90  1  0.41442000  0.50806000  0.24211000  1
  N  N91  1  0.05718000  0.29343000  0.54376000  1
  N  N92  1  0.86393000  0.96819000  0.75506000  1
  N  N93  1  0.11726000  0.76272000  0.03698000  1
  N  N94  1  0.59156000  0.50815000  0.73708000  1
  N  N95  1  0.92377000  0.71546000  0.44592000  1
  O  O96  1  0.93541000  0.05387000  0.34446000  1
  O  O97  1  0.96073000  0.12154000  0.44942000  1
  O  O98  1  0.20814000  0.87009000  0.14096000  1
  O  O99  1  0.41309000  0.82348000  0.09753000  1
  O  O100  1  0.77982000  0.12348000  0.09402000  1
  O  O101  1  0.94579000  0.06139000  0.13825000  1
  O  O102  1  0.73969000  0.31886000  0.88885000  1
  O  O103  1  0.88517000  0.37492000  0.79410000  1
  O  O104  1  0.34845000  0.39060000  0.17225000  1
  O  O105  1  0.53691000  0.31717000  0.08499000  1
  O  O106  1  0.22780000  0.62442000  0.34492000  1
  O  O107  1  0.32206000  0.70878000  0.38968000  1
  O  O108  1  0.97021000  0.35886000  0.42066000  1
  O  O109  1  0.09831000  0.44708000  0.36567000  1
  O  O110  1  0.95267000  0.17415000  0.63869000  1
  O  O111  1  0.06778000  0.14790000  0.72591000  1
  O  O112  1  0.08879000  0.92184000  0.65785000  1
  O  O113  1  0.05469000  0.86144000  0.55184000  1
  O  O114  1  0.82648000  0.07826000  0.88263000  1
  O  O115  1  0.62401000  0.10337000  0.93692000  1
  O  O116  1  0.25500000  0.85295000  0.93488000  1
  O  O117  1  0.11771000  0.93383000  0.86917000  1
  O  O118  1  0.22606000  0.63787000  0.13643000  1
  O  O119  1  0.05288000  0.60419000  0.20955000  1
  O  O120  1  0.66189000  0.59908000  0.82730000  1
  O  O121  1  0.47475000  0.65407000  0.92471000  1
  O  O122  1  0.77643000  0.39702000  0.62509000  1
  O  O123  1  0.67296000  0.32728000  0.57441000  1
  O  O124  1  0.05277000  0.63382000  0.54213000  1
  O  O125  1  0.92506000  0.55281000  0.61900000  1
  O  O126  1  0.01966000  0.83009000  0.33719000  1
  O  O127  1  0.87880000  0.86445000  0.26904000  1
