# generated using pymatgen
data_VH9(C3O)5
_symmetry_space_group_name_H-M   'P 1'
_cell_length_a   7.29881000
_cell_length_b   15.09319000
_cell_length_c   23.23610000
_cell_angle_alpha   71.77799000
_cell_angle_beta   90.20616000
_cell_angle_gamma   90.25257000
_symmetry_Int_Tables_number   1
_chemical_formula_structural   VH9(C3O)5
_chemical_formula_sum   'V4 H36 C60 O20'
_cell_volume   2431.34657714
_cell_formula_units_Z   4
loop_
 _symmetry_equiv_pos_site_id
 _symmetry_equiv_pos_as_xyz
  1  'x, y, z'
loop_
 _atom_site_type_symbol
 _atom_site_label
 _atom_site_symmetry_multiplicity
 _atom_site_fract_x
 _atom_site_fract_y
 _atom_site_fract_z
 _atom_site_occupancy
  V  V0  1  0.79383000  0.73918000  0.75250000  1
  V  V1  1  0.20617000  0.26082000  0.24750000  1
  V  V2  1  0.29383000  0.76082000  0.74750000  1
  V  V3  1  0.70617000  0.23918000  0.25250000  1
  H  H4  1  0.02223000  0.22678000  0.88805000  1
  H  H5  1  0.97708000  0.77321000  0.11195000  1
  H  H6  1  0.42866000  0.27573000  0.61131000  1
  H  H7  1  0.57158000  0.72426000  0.38869000  1
  H  H8  1  0.00717000  0.15061000  0.08744000  1
  H  H9  1  0.99317000  0.84939000  0.91256000  1
  H  H10  1  0.46233000  0.35060000  0.41226000  1
  H  H11  1  0.53751000  0.64941000  0.58774000  1
  H  H12  1  0.02272000  0.18570000  0.79752000  1
  H  H13  1  0.97676000  0.81430000  0.20248000  1
  H  H14  1  0.43514000  0.31669000  0.70189000  1
  H  H15  1  0.56508000  0.68330000  0.29812000  1
  H  H16  1  0.01609000  0.18770000  0.99475000  1
  H  H17  1  0.98321000  0.81228000  0.00526000  1
  H  H18  1  0.44491000  0.31418000  0.50478000  1
  H  H19  1  0.55531000  0.68580000  0.49523000  1
  H  H20  1  0.84289000  0.79124000  0.29844000  1
  H  H21  1  0.09223000  0.78795000  0.30218000  1
  H  H22  1  0.96127000  0.81234000  0.36089000  1
  H  H23  1  0.09698000  0.95713000  0.29365000  1
  H  H24  1  0.85126000  0.96019000  0.28989000  1
  H  H25  1  0.90720000  0.21199000  0.69783000  1
  H  H26  1  0.15654000  0.20881000  0.70155000  1
  H  H27  1  0.03817000  0.18766000  0.63911000  1
  H  H28  1  0.14845000  0.03986000  0.71010000  1
  H  H29  1  0.90272000  0.04281000  0.70637000  1
  H  H30  1  0.46076000  0.71632000  0.19684000  1
  H  H31  1  0.70735000  0.69786000  0.20425000  1
  H  H32  1  0.58645000  0.68409000  0.14002000  1
  H  H33  1  0.65963000  0.53055000  0.21216000  1
  H  H34  1  0.41653000  0.54858000  0.20515000  1
  H  H35  1  0.29300000  0.30208000  0.79578000  1
  H  H36  1  0.53961000  0.28370000  0.80315000  1
  H  H37  1  0.41394000  0.31588000  0.85999000  1
  H  H38  1  0.58364000  0.45145000  0.79484000  1
  H  H39  1  0.34052000  0.46940000  0.78786000  1
  C  C40  1  0.51425000  0.64314000  0.85425000  1
  C  C41  1  0.48575000  0.35686000  0.14575000  1
  C  C42  1  0.01415000  0.85687000  0.64575000  1
  C  C43  1  0.98585000  0.14312000  0.35425000  1
  C  C44  1  0.51196000  0.62361000  0.70213000  1
  C  C45  1  0.48804000  0.37639000  0.29787000  1
  C  C46  1  0.01294000  0.87642000  0.79789000  1
  C  C47  1  0.98706000  0.12358000  0.20211000  1
  C  C48  1  0.00680000  0.95028000  0.82633000  1
  C  C49  1  0.99317000  0.04971000  0.17368000  1
  C  C50  1  0.50128000  0.54988000  0.67363000  1
  C  C51  1  0.49874000  0.45012000  0.32636000  1
  C  C52  1  0.01643000  0.11207000  0.82244000  1
  C  C53  1  0.98319000  0.88793000  0.17756000  1
  C  C54  1  0.45719000  0.38955000  0.67716000  1
  C  C55  1  0.54296000  0.61044000  0.32284000  1
  C  C56  1  0.01578000  0.04534000  0.79164000  1
  C  C57  1  0.98397000  0.95465000  0.20836000  1
  C  C58  1  0.47154000  0.45588000  0.70806000  1
  C  C59  1  0.52859000  0.54411000  0.29194000  1
  C  C60  1  0.99880000  0.92329000  0.88953000  1
  C  C61  1  0.00125000  0.07671000  0.11048000  1
  C  C62  1  0.51561000  0.57626000  0.61058000  1
  C  C63  1  0.48436000  0.42374000  0.38941000  1
  C  C64  1  0.00161000  0.98960000  0.92095000  1
  C  C65  1  0.99818000  0.01039000  0.07905000  1
  C  C66  1  0.49914000  0.51047000  0.57903000  1
  C  C67  1  0.50092000  0.48953000  0.42097000  1
  C  C68  1  0.01064000  0.08505000  0.88599000  1
  C  C69  1  0.98899000  0.91494000  0.11402000  1
  C  C70  1  0.46962000  0.41606000  0.61373000  1
  C  C71  1  0.53051000  0.58393000  0.38627000  1
  C  C72  1  0.99724000  0.96433000  0.98572000  1
  C  C73  1  0.00246000  0.03566000  0.01429000  1
  C  C74  1  0.50979000  0.53534000  0.51437000  1
  C  C75  1  0.49029000  0.46466000  0.48563000  1
  C  C76  1  0.01141000  0.12978000  0.97713000  1
  C  C77  1  0.98811000  0.87021000  0.02287000  1
  C  C78  1  0.46121000  0.37155000  0.52253000  1
  C  C79  1  0.53894000  0.62844000  0.47747000  1
  C  C80  1  0.01507000  0.15357000  0.91450000  1
  C  C81  1  0.98441000  0.84642000  0.08550000  1
  C  C82  1  0.45146000  0.34814000  0.58507000  1
  C  C83  1  0.54872000  0.65186000  0.41493000  1
  C  C84  1  0.99314000  0.08116000  0.41674000  1
  C  C85  1  0.00686000  0.91884000  0.58327000  1
  C  C86  1  0.49290000  0.41884000  0.08327000  1
  C  C87  1  0.50710000  0.58116000  0.91673000  1
  C  C88  1  0.99766000  0.02998000  0.46913000  1
  C  C89  1  0.00234000  0.97002000  0.53087000  1
  C  C90  1  0.49754000  0.47001000  0.03087000  1
  C  C91  1  0.50246000  0.52998000  0.96913000  1
  C  C92  1  0.97486000  0.92774000  0.27726000  1
  C  C93  1  0.96742000  0.82312000  0.31141000  1
  C  C94  1  0.02480000  0.07226000  0.72274000  1
  C  C95  1  0.03206000  0.17688000  0.68859000  1
  C  C96  1  0.54443000  0.57032000  0.22321000  1
  C  C97  1  0.57672000  0.67378000  0.18938000  1
  C  C98  1  0.45576000  0.42967000  0.77679000  1
  C  C99  1  0.42361000  0.32620000  0.81063000  1
  O  O100  1  0.35139000  0.65883000  0.71100000  1
  O  O101  1  0.64861000  0.34117000  0.28900000  1
  O  O102  1  0.85139000  0.84117000  0.78900000  1
  O  O103  1  0.14861000  0.15883000  0.21100000  1
  O  O104  1  0.67797000  0.66335000  0.82965000  1
  O  O105  1  0.32203000  0.33665000  0.17035000  1
  O  O106  1  0.17797000  0.83665000  0.67035000  1
  O  O107  1  0.82203000  0.16335000  0.32965000  1
  O  O108  1  0.68072000  0.64793000  0.71395000  1
  O  O109  1  0.31928000  0.35207000  0.28605000  1
  O  O110  1  0.18072000  0.85207000  0.78605000  1
  O  O111  1  0.81928000  0.14793000  0.21395000  1
  O  O112  1  0.85713000  0.82564000  0.67247000  1
  O  O113  1  0.14287000  0.17436000  0.32753000  1
  O  O114  1  0.35713000  0.67436000  0.82753000  1
  O  O115  1  0.64287000  0.32564000  0.17247000  1
  O  O116  1  0.52135000  0.80832000  0.73653000  1
  O  O117  1  0.47865000  0.19168000  0.26347000  1
  O  O118  1  0.02135000  0.69168000  0.76347000  1
  O  O119  1  0.97865000  0.30832000  0.23653000  1
