# generated using pymatgen
data_ZnCrH18C14(N2O)2
_symmetry_space_group_name_H-M   'P 1'
_cell_length_a   6.93900000
_cell_length_b   9.41933384
_cell_length_c   9.41933384
_cell_angle_alpha   85.35345424
_cell_angle_beta   88.93402680
_cell_angle_gamma   88.93402680
_symmetry_Int_Tables_number   1
_chemical_formula_structural   ZnCrH18C14(N2O)2
_chemical_formula_sum   'Zn1 Cr1 H18 C14 N4 O2'
_cell_volume   613.43489063
_cell_formula_units_Z   1
loop_
 _symmetry_equiv_pos_site_id
 _symmetry_equiv_pos_as_xyz
  1  'x, y, z'
loop_
 _atom_site_type_symbol
 _atom_site_label
 _atom_site_symmetry_multiplicity
 _atom_site_fract_x
 _atom_site_fract_y
 _atom_site_fract_z
 _atom_site_occupancy
  C  C1  1  0.46240000  0.71200000  0.39360000  1.0
  C  C2  1  0.42240000  0.96780000  0.42580000  1.0
  C  C3  1  0.43900000  0.94510000  0.58470000  1.0
  C  C4  1  0.28160000  0.93130000  0.67390000  1.0
  C  C5  1  0.30260000  0.90650000  0.82110000  1.0
  C  C6  1  0.62340000  0.90950000  0.80010000  1.0
  C  C7  1  0.61340000  0.93670000  0.65110000  1.0
  C  C15  1  0.53760000  0.60640000  0.28800000  1.0
  C  C16  1  0.57760000  0.57420000  0.03220000  1.0
  C  C17  1  0.56100000  0.41530000  0.05490000  1.0
  C  C18  1  0.71840000  0.32610000  0.06870000  1.0
  C  C19  1  0.69740000  0.17890000  0.09350000  1.0
  C  C20  1  0.37660000  0.19990000  0.09050000  1.0
  C  C21  1  0.38660000  0.34890000  0.06330000  1.0
  Cr  Cr1  1  0.00000000  0.80964000  0.19036000  1.0
  H  H1  1  0.32280000  0.70940000  0.39940000  1.0
  H  H2  1  0.51200000  0.68450000  0.48770000  1.0
  H  H3  1  0.28700000  0.96920000  0.40180000  1.0
  H  H4  1  0.47390000  0.06030000  0.39430000  1.0
  H  H5  1  0.15860000  0.93860000  0.63600000  1.0
  H  H6  1  0.19180000  0.89380000  0.87760000  1.0
  H  H7  1  0.74460000  0.89770000  0.84050000  1.0
  H  H8  1  0.72640000  0.94900000  0.59720000  1.0
  H  H9  1  0.65120000  0.86280000  0.36700000  1.0
  H  H19  1  0.67720000  0.60060000  0.29060000  1.0
  H  H20  1  0.48800000  0.51230000  0.31550000  1.0
  H  H21  1  0.71300000  0.59820000  0.03080000  1.0
  H  H22  1  0.52610000  0.60570000  0.93970000  1.0
  H  H23  1  0.84140000  0.36400000  0.06140000  1.0
  H  H24  1  0.80820000  0.12240000  0.10620000  1.0
  H  H25  1  0.25540000  0.15950000  0.10230000  1.0
  H  H26  1  0.27360000  0.40280000  0.05100000  1.0
  H  H27  1  0.34880000  0.63300000  0.13720000  1.0
  N  N1  1  0.52370000  0.85810000  0.34710000  1.0
  N  N2  1  0.47200000  0.90000000  0.88520000  1.0
  N  N5  1  0.47630000  0.65290000  0.14190000  1.0
  N  N6  1  0.52800000  0.11480000  0.10000000  1.0
  O  O1  1  0.18980000  0.90580000  0.13920000  1.0
  O  O3  1  0.81020000  0.86080000  0.09420000  1.0
  Zn  Zn1  1  0.50000000  0.88497000  0.11503000  1.0
