# generated using pymatgen
data_CoH20C30N3O4
_symmetry_space_group_name_H-M   'P 1'
_cell_length_a   11.39099000
_cell_length_b   12.93663000
_cell_length_c   14.36745000
_cell_angle_alpha   80.40220000
_cell_angle_beta   72.35407000
_cell_angle_gamma   76.69511000
_symmetry_Int_Tables_number   1
_chemical_formula_structural   CoH20C30N3O4
_chemical_formula_sum   'Co2 H40 C60 N6 O8'
_cell_volume   1952.66671591
_cell_formula_units_Z   2
loop_
 _symmetry_equiv_pos_site_id
 _symmetry_equiv_pos_as_xyz
  1  'x, y, z'
loop_
 _atom_site_type_symbol
 _atom_site_label
 _atom_site_symmetry_multiplicity
 _atom_site_fract_x
 _atom_site_fract_y
 _atom_site_fract_z
 _atom_site_occupancy
  Co  Co1  1  0.50285000  0.99746000  0.99785000  1.0
  Co  Co2  1  0.50006000  0.49826000  0.99781000  1.0
  H  H1  1  0.45458000  0.22555000  0.25415000  1.0
  H  H2  1  0.53982000  0.08784000  0.37406000  1.0
  H  H3  1  0.87801000  0.21611000  0.28899000  1.0
  H  H4  1  0.78690000  0.35944000  0.17427000  1.0
  H  H5  1  0.52187000  0.18913000  0.68870000  1.0
  H  H6  1  0.61502000  0.21093000  0.50790000  1.0
  H  H7  1  0.80992000  0.88312000  0.52044000  1.0
  H  H8  1  0.71717000  0.86347000  0.70107000  1.0
  H  H9  1  0.22369000  0.52407000  0.08572000  1.0
  H  H10  1  0.04713000  0.65313000  0.17886000  1.0
  H  H11  1  0.32319000  0.82920000  0.18800000  1.0
  H  H12  1  0.48623000  0.69298000  0.09769000  1.0
  H  H13  1  0.93123000  0.81491000  0.17569000  1.0
  H  H14  1  0.75846000  0.94598000  0.26725000  1.0
  H  H15  1  0.00581000  0.00880000  0.41661000  1.0
  H  H16  1  0.17833000  0.87566000  0.32792000  1.0
  H  H17  1  0.23929000  0.10585000  0.10221000  1.0
  H  H18  1  0.01892000  0.11741000  0.10156000  1.0
  H  H19  1  0.15982000  0.87062000  0.90306000  1.0
  H  H20  1  0.37159000  0.87039000  0.91329000  1.0
  H  H21  1  0.54860000  0.77257000  0.74308000  1.0
  H  H22  1  0.46576000  0.91011000  0.62203000  1.0
  H  H23  1  0.12666000  0.78333000  0.70469000  1.0
  H  H24  1  0.21576000  0.63981000  0.82054000  1.0
  H  H25  1  0.48149000  0.80771000  0.30738000  1.0
  H  H26  1  0.38889000  0.78753000  0.48827000  1.0
  H  H27  1  0.19582000  0.11622000  0.47346000  1.0
  H  H28  1  0.28793000  0.13359000  0.29281000  1.0
  H  H29  1  0.77388000  0.47342000  0.91086000  1.0
  H  H30  1  0.95199000  0.34576000  0.81742000  1.0
  H  H31  1  0.67870000  0.16685000  0.80772000  1.0
  H  H32  1  0.51446000  0.30173000  0.89803000  1.0
  H  H33  1  0.06942000  0.18310000  0.82168000  1.0
  H  H34  1  0.24416000  0.05367000  0.72994000  1.0
  H  H35  1  0.99976000  0.98908000  0.57870000  1.0
  H  H36  1  0.82556000  0.12028000  0.66763000  1.0
  H  H37  1  0.76633000  0.89163000  0.89352000  1.0
  H  H38  1  0.98641000  0.88094000  0.89414000  1.0
  H  H39  1  0.84408000  0.12610000  0.09431000  1.0
  H  H40  1  0.63253000  0.12594000  0.08357000  1.0
  C  C1  1  0.56526000  0.38108000  0.13492000  1.0
  C  C2  1  0.61510000  0.30123000  0.20821000  1.0
  C  C3  1  0.54533000  0.22488000  0.26470000  1.0
  C  C4  1  0.59358000  0.14739000  0.33040000  1.0
  C  C5  1  0.71416000  0.14428000  0.33804000  1.0
  C  C6  1  0.78474000  0.22004000  0.28159000  1.0
  C  C7  1  0.73471000  0.29897000  0.21788000  1.0
  C  C8  1  0.56000000  0.01279000  0.81532000  1.0
  C  C9  1  0.61215000  0.02440000  0.70718000  1.0
  C  C10  1  0.58426000  0.12223000  0.65119000  1.0
  C  C11  1  0.63633000  0.13462000  0.55012000  1.0
  C  C12  1  0.71861000  0.04850000  0.50102000  1.0
  C  C13  1  0.74734000  0.95030000  0.55706000  1.0
  C  C14  1  0.69496000  0.93926000  0.65819000  1.0
  C  C15  1  0.24075000  0.59266000  0.11079000  1.0
  C  C16  1  0.14287000  0.66575000  0.16185000  1.0
  C  C17  1  0.16856000  0.75390000  0.19260000  1.0
  C  C18  1  0.29503000  0.76234000  0.16948000  1.0
  C  C19  1  0.38795000  0.68622000  0.11778000  1.0
  C  C20  1  0.06698000  0.83358000  0.24628000  1.0
  C  C21  1  0.94761000  0.85525000  0.22996000  1.0
  C  C22  1  0.85034000  0.92946000  0.28059000  1.0
  C  C23  1  0.87048000  0.98410000  0.34912000  1.0
  C  C24  1  0.98946000  0.96449000  0.36516000  1.0
  C  C25  1  0.08666000  0.89001000  0.31434000  1.0
  C  C26  1  0.21602000  0.05595000  0.05902000  1.0
  C  C27  1  0.09320000  0.06171000  0.05760000  1.0
  C  C28  1  0.06709000  0.99603000  0.00072000  1.0
  C  C29  1  0.17013000  0.92524000  0.94866000  1.0
  C  C30  1  0.29048000  0.92394000  0.95372000  1.0
  C  C31  1  0.43623000  0.61761000  0.86153000  1.0
  C  C32  1  0.38753000  0.69768000  0.78792000  1.0
  C  C33  1  0.45817000  0.77362000  0.73177000  1.0
  C  C34  1  0.41110000  0.85108000  0.66549000  1.0
  C  C35  1  0.29062000  0.85489000  0.65728000  1.0
  C  C36  1  0.21950000  0.77917000  0.71302000  1.0
  C  C37  1  0.26839000  0.70017000  0.77728000  1.0
  C  C38  1  0.44549000  0.98312000  0.18008000  1.0
  C  C39  1  0.39276000  0.97253000  0.28812000  1.0
  C  C40  1  0.41984000  0.87503000  0.34463000  1.0
  C  C41  1  0.36777000  0.86361000  0.44571000  1.0
  C  C42  1  0.28620000  0.95043000  0.49425000  1.0
  C  C43  1  0.25776000  0.04831000  0.43754000  1.0
  C  C44  1  0.31012000  0.05826000  0.33638000  1.0
  C  C45  1  0.75815000  0.40443000  0.88552000  1.0
  C  C46  1  0.85676000  0.33196000  0.83435000  1.0
  C  C47  1  0.83243000  0.24329000  0.80339000  1.0
  C  C48  1  0.70619000  0.23394000  0.82643000  1.0
  C  C49  1  0.61242000  0.30948000  0.87824000  1.0
  C  C50  1  0.93507000  0.16394000  0.74996000  1.0
  C  C51  1  0.05418000  0.14283000  0.76684000  1.0
  C  C52  1  0.15262000  0.06946000  0.71602000  1.0
  C  C53  1  0.13412000  0.01509000  0.64648000  1.0
  C  C54  1  0.01521000  0.03353000  0.63046000  1.0
  C  C55  1  0.91691000  0.10708000  0.68153000  1.0
  C  C56  1  0.78926000  0.94150000  0.93692000  1.0
  C  C57  1  0.91188000  0.93609000  0.93853000  1.0
  C  C58  1  0.93742000  0.00145000  0.99599000  1.0
  C  C59  1  0.83406000  0.07181000  0.04826000  1.0
  C  C60  1  0.71390000  0.07288000  0.04285000  1.0
  N  N1  1  0.77015000  0.06114000  0.39943000  1.0
  N  N2  1  0.36215000  0.60213000  0.08833000  1.0
  N  N3  1  0.31435000  0.98869000  0.00751000  1.0
  N  N4  1  0.23533000  0.93871000  0.59598000  1.0
  N  N5  1  0.63705000  0.39409000  0.90775000  1.0
  N  N6  1  0.69056000  0.00829000  0.98860000  1.0
  O  O1  1  0.47018000  0.36852000  0.11123000  1.0
  O  O2  1  0.62125000  0.45896000  0.09343000  1.0
  O  O3  1  0.50033000  0.09496000  0.86066000  1.0
  O  O4  1  0.57846000  0.92113000  0.86518000  1.0
  O  O5  1  0.53029000  0.63030000  0.88649000  1.0
  O  O6  1  0.38038000  0.53932000  0.90192000  1.0
  O  O7  1  0.50402000  0.90050000  0.13494000  1.0
  O  O8  1  0.42827000  0.07485000  0.13015000  1.0
