# generated using pymatgen
data_Cr3H36C31NO13
_symmetry_space_group_name_H-M   'P 1'
_cell_length_a   11.29683000
_cell_length_b   11.30197580
_cell_length_c   18.68742000
_cell_angle_alpha   89.57172402
_cell_angle_beta   89.82331000
_cell_angle_gamma   119.93303635
_symmetry_Int_Tables_number   1
_chemical_formula_structural   Cr3H36C31NO13
_chemical_formula_sum   'Cr6 H72 C62 N2 O26'
_cell_volume   2067.55961569
_cell_formula_units_Z   2
loop_
 _symmetry_equiv_pos_site_id
 _symmetry_equiv_pos_as_xyz
  1  'x, y, z'
loop_
 _atom_site_type_symbol
 _atom_site_label
 _atom_site_symmetry_multiplicity
 _atom_site_fract_x
 _atom_site_fract_y
 _atom_site_fract_z
 _atom_site_occupancy
  C  C0  1  0.23087000  0.54572000  0.85487000  1
  C  C1  1  0.17642000  0.38272000  0.96001000  1
  C  C2  1  0.68481000  0.44894000  0.35526000  1
  C  C3  1  0.64743000  0.94096000  0.64648000  1
  C  C4  1  0.70725000  0.06154000  0.35440000  1
  C  C5  1  0.62070000  0.52174000  0.64369000  1
  C  C6  1  0.09225000  0.47462000  0.35817000  1
  C  C7  1  0.56056000  0.94414000  0.03950000  1
  C  C8  1  0.77646000  0.63218000  0.04502000  1
  C  C9  1  0.58659000  0.02222000  0.96732000  1
  C  C10  1  0.62117000  0.85948000  0.00780000  1
  C  C11  1  0.73047000  0.12946000  0.99231000  1
  C  C12  1  0.64702000  0.93866000  0.93662000  1
  C  C13  1  0.70355000  0.05112000  0.06388000  1
  C  C14  1  0.71836000  0.73380000  0.32575000  1
  C  C15  1  0.99212000  0.23948000  0.67279000  1
  C  C16  1  0.76430000  0.64684000  0.96349000  1
  C  C17  1  0.16461000  0.37458000  0.04245000  1
  C  C18  1  0.67407500  0.37401000  0.02675000  1
  C  C19  1  0.29302000  0.64584000  0.97357000  1
  C  C20  1  0.68368000  0.45670000  0.14663000  1
  C  C21  1  0.52817000  0.47146000  0.05649000  1
  C  C22  1  0.04924500  0.50548000  0.94503000  1
  C  C23  1  0.66772000  0.48658000  0.07097000  1
  C  C24  1  0.18777000  0.51798000  0.93119000  1
  C  C25  1  0.64539500  0.51245000  0.93254000  1
  C  C26  1  0.14089000  0.49060000  0.06971000  1
  C  C27  1  0.67976500  0.39979000  0.94551000  1
  C  C28  1  0.26933000  0.62768000  0.05452000  1
  C  C29  1  0.51141500  0.47218000  0.97477000  1
  C  C30  1  0.02011000  0.48110000  0.02620000  1
  C  C31  1  0.80618000  0.01894000  0.46122000  1
  C  C32  1  0.79850000  0.00138000  0.54006000  1
  C  C33  1  0.62577000  0.88642000  0.86253000  1
  C  C34  1  0.73643000  0.10792000  0.13723000  1
  C  C35  1  0.64937000  0.12226000  0.47187000  1
  C  C36  1  0.79003000  0.04456000  0.96162000  1
  C  C37  1  0.54579000  0.86462000  0.52900000  1
  C  C38  1  0.55774500  0.88011000  0.44647000  1
  C  C39  1  0.65556000  0.11020000  0.55392000  1
  C  C40  1  0.67998500  0.02077000  0.43099000  1
  C  C41  1  0.66239000  0.98188000  0.56978000  1
  C  C42  1  0.76417000  0.96704000  0.03308000  1
  C  C43  1  0.53428000  0.35064000  0.46165000  1
  C  C44  1  0.15613000  0.63440000  0.54284000  1
  C  C45  1  0.53107000  0.35892000  0.54166000  1
  C  C46  1  0.14655667  0.62642000  0.46289000  1
  C  C47  1  0.79698000  0.50424000  0.47326000  1
  C  C48  1  0.29887000  0.52080000  0.52580000  1
  C  C49  1  0.64339000  0.59514000  0.43917000  1
  C  C50  1  0.05236000  0.38648000  0.56275000  1
  C  C51  1  0.66601000  0.47436000  0.43014000  1
  C  C52  1  0.18384000  0.52136000  0.57160000  1
  C  C53  1  0.64522000  0.50188000  0.56754000  1
  C  C54  1  0.13406000  0.49042000  0.43446000  1
  C  C55  1  0.78030000  0.50874000  0.55472000  1
  C  C56  1  0.27355000  0.50568000  0.44463000  1
  C  C57  1  0.61962000  0.52486000  0.85518000  1
  C  C58  1  0.10028000  0.47728000  0.14647000  1
  C  C59  1  0.64454000  0.61614000  0.52126000  1
  C  C60  1  0.03530000  0.36052000  0.48081000  1
  C  C61  1  0.23174000  0.54882000  0.64596000  1
  Cr  Cr62  1  0.39358000  0.45924000  0.74911000  1
  Cr  Cr63  1  0.93739000  0.22796000  0.25079000  1
  Cr  Cr64  1  0.70943000  0.77204000  0.74921000  1
  Cr  Cr65  1  0.93434000  0.54076000  0.25089000  1
  Cr  Cr66  1  0.39695000  0.77526000  0.75073000  1
  Cr  Cr67  1  0.62169000  0.22474000  0.24927000  1
  H  H68  1  0.58275000  0.75026000  0.01780000  1
  H  H69  1  0.97032500  0.41875000  0.91393000  1
  H  H70  1  0.32438000  0.44462000  0.54547000  1
  H  H71  1  0.86296000  0.60564000  0.57698000  1
  H  H72  1  0.27733500  0.41543000  0.42429000  1
  H  H73  1  0.88155000  0.65782000  0.05817000  1
  H  H74  1  0.25882000  0.36748000  0.94122000  1
  H  H75  1  0.76012000  0.70870000  0.07361000  1
  H  H76  1  0.51882000  0.55454000  0.08229000  1
  H  H77  1  0.08392000  0.29482000  0.93722000  1
  H  H78  1  0.74809000  0.73392000  0.95211000  1
  H  H79  1  0.07842500  0.27226000  0.05798000  1
  H  H80  1  0.86235000  0.67138000  0.93693000  1
  H  H81  1  0.25762000  0.38392000  0.06674000  1
  H  H82  1  0.75955000  0.36576000  0.04582000  1
  H  H83  1  0.39644500  0.67195000  0.95846000  1
  H  H84  1  0.78209000  0.43152000  0.92340000  1
  H  H85  1  0.35885000  0.63230000  0.08160000  1
  H  H86  1  0.84535500  0.76269000  0.41484000  1
  H  H87  1  0.47307000  0.54032000  0.95960000  1
  H  H88  1  0.80751500  0.75353000  0.29196000  1
  H  H89  1  0.70293000  0.82246000  0.32030000  1
  H  H90  1  0.62596000  0.64292000  0.30493000  1
  H  H91  1  0.13938000  0.26240000  0.59419000  1
  H  H92  1  0.99621000  0.14940000  0.69368000  1
  H  H93  1  0.88358000  0.21210000  0.66911000  1
  H  H94  1  0.04165000  0.32316000  0.71179000  1
  H  H95  1  0.94000000  0.37528000  0.03513000  1
  H  H96  1  0.43691000  0.36564000  0.95978000  1
  H  H97  1  0.98877500  0.55231000  0.04652000  1
  H  H98  1  0.77886000  0.23402000  0.97204000  1
  H  H99  1  0.58259000  0.27248000  0.03830000  1
  H  H100  1  0.28576000  0.73712000  0.95742000  1
  H  H101  1  0.60581000  0.30408000  0.91812000  1
  H  H102  1  0.25599000  0.71218000  0.07549000  1
  H  H103  1  0.90110000  0.10850000  0.44621000  1
  H  H104  1  0.82115000  0.92026000  0.55433000  1
  H  H105  1  0.81710000  0.93762000  0.43701000  1
  H  H106  1  0.88006000  0.09066000  0.56281000  1
  H  H107  1  0.71268000  0.22702000  0.45265000  1
  H  H108  1  0.55950000  0.78226000  0.54559000  1
  H  H109  1  0.74541500  0.20155000  0.57546000  1
  H  H110  1  0.57089000  0.79838000  0.42275000  1
  H  H111  1  0.46768000  0.90696000  0.07315000  1
  H  H112  1  0.51245000  0.04454000  0.94027000  1
  H  H113  1  0.46343000  0.87152000  0.42335000  1
  H  H114  1  0.44625500  0.37314000  0.07923000  1
  H  H115  1  0.56206000  0.09946000  0.57968000  1
  H  H116  1  0.44708000  0.85126000  0.54705000  1
  H  H117  1  0.54185000  0.08950000  0.45947000  1
  H  H118  1  0.52093000  0.25290000  0.44649000  1
  H  H119  1  0.23471000  0.73928000  0.55663000  1
  H  H120  1  0.04840000  0.59954000  0.92780000  1
  H  H121  1  0.44156000  0.34718000  0.43911000  1
  H  H122  1  0.06136000  0.62254000  0.56668000  1
  H  H123  1  0.42623000  0.33272000  0.55700000  1
  H  H124  1  0.06571000  0.64502000  0.44595500  1
  H  H125  1  0.54564000  0.27876000  0.56683000  1
  H  H126  1  0.23911000  0.71498000  0.43936000  1
  H  H127  1  0.83718000  0.43796000  0.45881000  1
  H  H128  1  0.38022000  0.62048000  0.53291000  1
  H  H129  1  0.78211000  0.42244000  0.58203000  1
  H  H130  1  0.35231000  0.59622000  0.41454000  1
  H  H131  1  0.54112000  0.56928000  0.41880000  1
  H  H132  1  0.96465500  0.39523000  0.58273000  1
  H  H133  1  0.88551000  0.08538000  0.92964000  1
  H  H134  1  0.83978000  0.94618000  0.05951000  1
  H  H135  1  0.54886000  0.60510000  0.53564000  1
  H  H136  1  0.92884500  0.31675000  0.46500000  1
  H  H137  1  0.73053000  0.71518000  0.53636000  1
  H  H138  1  0.06709000  0.28440000  0.46993000  1
  H  H139  1  0.87530000  0.60728000  0.45780000  1
  N  N140  1  0.74429000  0.71610000  0.40017000  1
  N  N141  1  0.05804000  0.27804000  0.60269000  1
  O  O142  1  0.50556000  0.42826000  0.82989000  1
  O  O143  1  0.82553000  0.08566000  0.33162000  1
  O  O144  1  0.73987000  0.91434000  0.66838000  1
  O  O145  1  0.69598000  0.64174000  0.67313000  1
  O  O146  1  0.05424000  0.35826000  0.32687000  1
  O  O147  1  0.50000000  0.66886000  0.74968000  1
  O  O148  1  0.83114000  0.33114000  0.25032000  1
  O  O149  1  0.07730000  0.57174000  0.17011000  1
  O  O150  1  0.27690000  0.47210000  0.82527000  1
  O  O151  1  0.80480000  0.52790000  0.17473000  1
  O  O152  1  0.25545000  0.66420000  0.83231000  1
  O  O153  1  0.59125000  0.33580000  0.16769000  1
  O  O154  1  0.52788000  0.89300000  0.82624000  1
  O  O155  1  0.63488000  0.10700000  0.17376000  1
  O  O156  1  0.74148000  0.91462000  0.83128000  1
  O  O157  1  0.82686000  0.08538000  0.16872000  1
  O  O158  1  0.69748000  0.64200000  0.82413000  1
  O  O159  1  0.05548000  0.35800000  0.17587000  1
  O  O160  1  0.50395000  0.42798000  0.66700000  1
  O  O161  1  0.07597000  0.57202000  0.33300000  1
  O  O162  1  0.27540000  0.47184000  0.67426000  1
  O  O163  1  0.80356000  0.52816000  0.32574000  1
  O  O164  1  0.25384000  0.66392000  0.66941000  1
  O  O165  1  0.52637000  0.89272000  0.67523000  1
  O  O166  1  0.58992000  0.33608000  0.33059000  1
  O  O167  1  0.63365000  0.10728000  0.32477000  1
