# generated using pymatgen
data_CuH10C23SN2O11
_symmetry_space_group_name_H-M   'P 1'
_cell_length_a   7.43567000
_cell_length_b   8.71532000
_cell_length_c   27.75428000
_cell_angle_alpha   92.49574000
_cell_angle_beta   94.12190000
_cell_angle_gamma   102.55606000
_symmetry_Int_Tables_number   1
_chemical_formula_structural   CuH10C23SN2O11
_chemical_formula_sum   'Cu2 H20 C46 S2 N4 O22'
_cell_volume   1747.80133681
_cell_formula_units_Z   2
loop_
 _symmetry_equiv_pos_site_id
 _symmetry_equiv_pos_as_xyz
  1  'x, y, z'
loop_
 _atom_site_type_symbol
 _atom_site_label
 _atom_site_symmetry_multiplicity
 _atom_site_fract_x
 _atom_site_fract_y
 _atom_site_fract_z
 _atom_site_occupancy
  Cu  Cu0  1  0.31562000  0.48262000  0.49462000  1
  Cu  Cu1  1  0.68438000  0.51738000  0.50538000  1
  H  H2  1  0.26223000  0.61805000  0.64431000  1
  H  H3  1  0.22401000  0.38262000  0.33979000  1
  H  H4  1  0.05133000  0.62188000  0.53765000  1
  H  H5  1  0.94867000  0.37811000  0.46235000  1
  H  H6  1  0.68529000  0.90547000  0.88665000  1
  H  H7  1  0.45010000  0.12117000  0.11380000  1
  H  H8  1  0.79409000  0.62538000  0.35869000  1
  H  H9  1  0.71841000  0.39017000  0.65645000  1
  H  H10  1  0.59627000  0.91253000  0.12880000  1
  H  H11  1  0.28078000  0.13089000  0.87084000  1
  H  H12  1  0.60483000  0.91854000  0.04311000  1
  H  H13  1  0.30666000  0.12484000  0.95679000  1
  H  H14  1  0.68779000  0.91195000  0.97264000  1
  H  H15  1  0.42247000  0.11713000  0.02758000  1
  H  H16  1  0.12039000  0.70113000  0.71294000  1
  H  H17  1  0.06055000  0.30363000  0.26180000  1
  H  H18  1  0.09106000  0.75533000  0.32449000  1
  H  H19  1  0.89523000  0.22667000  0.70593000  1
  H  H20  1  0.82094000  0.00031000  0.56111000  1
  H  H21  1  0.17953000  0.00027000  0.43858000  1
  C  C22  1  0.54511000  0.79956000  0.50254000  1
  C  C23  1  0.45489000  0.20042000  0.49738000  1
  C  C24  1  0.48773000  0.51795000  0.89793000  1
  C  C25  1  0.52034000  0.51710000  0.10195000  1
  C  C26  1  0.55787000  0.65715000  0.87516000  1
  C  C27  1  0.50095000  0.37440000  0.12494000  1
  C  C28  1  0.62937000  0.79704000  0.90330000  1
  C  C29  1  0.46716000  0.23241000  0.09695000  1
  C  C30  1  0.40897000  0.37858000  0.86946000  1
  C  C31  1  0.54412000  0.65918000  0.13016000  1
  C  C32  1  0.49123000  0.50388000  0.64501000  1
  C  C33  1  0.50893000  0.50254000  0.35484000  1
  C  C34  1  0.55286000  0.66298000  0.02832000  1
  C  C35  1  0.44196000  0.37389000  0.97158000  1
  C  C36  1  0.46703000  0.37256000  0.02266000  1
  C  C37  1  0.55959000  0.66213000  0.97734000  1
  C  C38  1  0.51385000  0.51758000  0.05079000  1
  C  C39  1  0.49640000  0.51803000  0.94913000  1
  C  C40  1  0.58208000  0.80417000  0.05778000  1
  C  C41  1  0.36206000  0.23614000  0.94206000  1
  C  C42  1  0.57455000  0.80177000  0.10768000  1
  C  C43  1  0.34370000  0.23924000  0.89195000  1
  C  C44  1  0.49743000  0.50075000  0.59237000  1
  C  C45  1  0.50264000  0.50009000  0.40756000  1
  C  C46  1  0.62812000  0.80024000  0.95342000  1
  C  C47  1  0.44771000  0.23099000  0.04673000  1
  C  C48  1  0.56121000  0.96449000  0.51179000  1
  C  C49  1  0.43881000  0.03548000  0.48806000  1
  C  C50  1  0.55658000  0.65230000  0.82454000  1
  C  C51  1  0.51339000  0.37731000  0.17564000  1
  C  C52  1  0.39823000  0.38197000  0.81891000  1
  C  C53  1  0.53451000  0.65473000  0.18038000  1
  C  C54  1  0.61229000  0.44343000  0.72376000  1
  C  C55  1  0.67881000  0.57941000  0.28493000  1
  C  C56  1  0.61776000  0.44222000  0.67357000  1
  C  C57  1  0.67212000  0.57285000  0.33498000  1
  C  C58  1  0.35917000  0.56955000  0.66674000  1
  C  C59  1  0.35045000  0.43711000  0.32430000  1
  C  C60  1  0.35345000  0.57695000  0.71704000  1
  C  C61  1  0.35205000  0.44173000  0.27404000  1
  C  C62  1  0.48057000  0.51226000  0.74592000  1
  C  C63  1  0.51808000  0.51329000  0.25389000  1
  C  C64  1  0.21196000  0.65276000  0.73722000  1
  C  C65  1  0.17580000  0.37190000  0.24457000  1
  C  C66  1  0.69168000  0.03736000  0.55424000  1
  C  C67  1  0.30833000  0.96261000  0.44560000  1
  S  S68  1  0.89012000  0.67489000  0.26306000  1
  S  S69  1  0.76902000  0.35447000  0.75773000  1
  N  N70  1  0.47705000  0.51599000  0.79760000  1
  N  N71  1  0.52409000  0.51561000  0.20225000  1
  N  N72  1  0.96149000  0.54357000  0.51349000  1
  N  N73  1  0.03851000  0.45643000  0.48651000  1
  O  O74  1  0.38022000  0.71388000  0.49650000  1
  O  O75  1  0.61978000  0.28612000  0.50350000  1
  O  O76  1  0.69164000  0.74322000  0.50559000  1
  O  O77  1  0.30836000  0.25678000  0.49441000  1
  O  O78  1  0.34431000  0.48530000  0.56519000  1
  O  O79  1  0.65569000  0.51470000  0.43481000  1
  O  O80  1  0.65572000  0.51465000  0.57428000  1
  O  O81  1  0.34428000  0.48535000  0.42572000  1
  O  O82  1  0.63314000  0.78246000  0.80233000  1
  O  O83  1  0.50985000  0.24273000  0.19822000  1
  O  O84  1  0.53459000  0.78783000  0.20710000  1
  O  O85  1  0.31159000  0.25222000  0.79120000  1
  O  O86  1  0.19369000  0.66193000  0.78050000  1
  O  O87  1  0.15382000  0.39206000  0.20151000  1
  O  O88  1  0.91426000  0.60325000  0.21441000  1
  O  O89  1  0.89044000  0.84612000  0.25830000  1
  O  O90  1  0.06881000  0.66034000  0.30206000  1
  O  O91  1  0.84906000  0.45572000  0.80265000  1
  O  O92  1  0.66833000  0.19681000  0.77239000  1
  O  O93  1  0.94248000  0.32852000  0.72473000  1
  O  O94  1  0.65121000  0.13061000  0.58344000  1
  O  O95  1  0.34828000  0.86861000  0.41654000  1
