# generated using pymatgen
data_Cu3H6C14I(NO4)2
_symmetry_space_group_name_H-M   'P 1'
_cell_length_a   16.83463000
_cell_length_b   16.95099000
_cell_length_c   16.83499000
_cell_angle_alpha   113.50013000
_cell_angle_beta   101.61007000
_cell_angle_gamma   113.49770000
_symmetry_Int_Tables_number   1
_chemical_formula_structural   Cu3H6C14I(NO4)2
_chemical_formula_sum   'Cu12 H24 C56 I4 N8 O32'
_cell_volume   3650.89716404
_cell_formula_units_Z   4
loop_
 _symmetry_equiv_pos_site_id
 _symmetry_equiv_pos_as_xyz
  1  'x, y, z'
loop_
 _atom_site_type_symbol
 _atom_site_label
 _atom_site_symmetry_multiplicity
 _atom_site_fract_x
 _atom_site_fract_y
 _atom_site_fract_z
 _atom_site_occupancy
  Cu  Cu0  1  0.00009000  0.57018000  0.56955000  1
  Cu  Cu1  1  0.99991000  0.42983000  0.43045000  1
  Cu  Cu2  1  0.43037000  0.42977000  0.99987000  1
  Cu  Cu3  1  0.56962000  0.57023000  0.00013000  1
  Cu  Cu4  1  0.92611000  0.43152000  0.92611000  1
  Cu  Cu5  1  0.49461000  0.56827000  0.49459000  1
  Cu  Cu6  1  0.49497000  0.99953000  0.92578000  1
  Cu  Cu7  1  0.92581000  0.99951000  0.49497000  1
  Cu  Cu8  1  0.07419000  0.00050000  0.50503000  1
  Cu  Cu9  1  0.50503000  0.00048000  0.07423000  1
  Cu  Cu10  1  0.50539000  0.43174000  0.50541000  1
  Cu  Cu11  1  0.07389000  0.56849000  0.07389000  1
  H  H12  1  0.97089000  0.52460000  0.71975000  1
  H  H13  1  0.19425000  0.47418000  0.44641000  1
  H  H14  1  0.44655000  0.25048000  0.96973000  1
  H  H15  1  0.71923000  0.74868000  0.19485000  1
  H  H16  1  0.03031000  0.74957000  0.55348000  1
  H  H17  1  0.80515000  0.25134000  0.28076000  1
  H  H18  1  0.55357000  0.52582000  0.80573000  1
  H  H19  1  0.28030000  0.47541000  0.02912000  1
  H  H20  1  0.02911000  0.47540000  0.28026000  1
  H  H21  1  0.80575000  0.52582000  0.55360000  1
  H  H22  1  0.55345000  0.74953000  0.03027000  1
  H  H23  1  0.28077000  0.25133000  0.80515000  1
  H  H24  1  0.96969000  0.25044000  0.44653000  1
  H  H25  1  0.19484000  0.74867000  0.71924000  1
  H  H26  1  0.44643000  0.47418000  0.19428000  1
  H  H27  1  0.71970000  0.52460000  0.97088000  1
  H  H28  1  0.22623000  0.75680000  0.98364000  1
  H  H29  1  0.22609000  0.24298000  0.46945000  1
  H  H30  1  0.46942000  0.24298000  0.22614000  1
  H  H31  1  0.98363000  0.75682000  0.22626000  1
  H  H32  1  0.77391000  0.75702000  0.53055000  1
  H  H33  1  0.77377000  0.24321000  0.01636000  1
  H  H34  1  0.53058000  0.75703000  0.77386000  1
  H  H35  1  0.01637000  0.24318000  0.77374000  1
  C  C36  1  0.04198000  0.59366000  0.76111000  1
  C  C37  1  0.09280000  0.63585000  0.85877000  1
  C  C38  1  0.05284000  0.58663000  0.90979000  1
  C  C39  1  0.16666000  0.40530000  0.44843000  1
  C  C40  1  0.22210000  0.36330000  0.45666000  1
  C  C41  1  0.32241000  0.41254000  0.46558000  1
  C  C42  1  0.44856000  0.28015000  0.04106000  1
  C  C43  1  0.45681000  0.23356000  0.09195000  1
  C  C44  1  0.46562000  0.14255000  0.05182000  1
  C  C45  1  0.76094000  0.71914000  0.16726000  1
  C  C46  1  0.85870000  0.76607000  0.22250000  1
  C  C47  1  0.90973000  0.85739000  0.32249000  1
  C  C48  1  0.95898000  0.71987000  0.55146000  1
  C  C49  1  0.90808000  0.76646000  0.54320000  1
  C  C50  1  0.94817000  0.85748000  0.53439000  1
  C  C51  1  0.83276000  0.28089000  0.23906000  1
  C  C52  1  0.77752000  0.23395000  0.14130000  1
  C  C53  1  0.67753000  0.14263000  0.09029000  1
  C  C54  1  0.55157000  0.59471000  0.83333000  1
  C  C55  1  0.54333000  0.63671000  0.77789000  1
  C  C56  1  0.53442000  0.58745000  0.67759000  1
  C  C57  1  0.23889000  0.40634000  0.95802000  1
  C  C58  1  0.14123000  0.36415000  0.90720000  1
  C  C59  1  0.09021000  0.41338000  0.94716000  1
  C  C60  1  0.95802000  0.40634000  0.23889000  1
  C  C61  1  0.90720000  0.36415000  0.14124000  1
  C  C62  1  0.94716000  0.41338000  0.09022000  1
  C  C63  1  0.83334000  0.59471000  0.55158000  1
  C  C64  1  0.77790000  0.63670000  0.54334000  1
  C  C65  1  0.67759000  0.58747000  0.53442000  1
  C  C66  1  0.55144000  0.71985000  0.95894000  1
  C  C67  1  0.54319000  0.76645000  0.90805000  1
  C  C68  1  0.53438000  0.85746000  0.94818000  1
  C  C69  1  0.23906000  0.28087000  0.83274000  1
  C  C70  1  0.14130000  0.23394000  0.77750000  1
  C  C71  1  0.09027000  0.14261000  0.67751000  1
  C  C72  1  0.04102000  0.28013000  0.44855000  1
  C  C73  1  0.09192000  0.23354000  0.45680000  1
  C  C74  1  0.05183000  0.14253000  0.46562000  1
  C  C75  1  0.16724000  0.71912000  0.76094000  1
  C  C76  1  0.22248000  0.76605000  0.85870000  1
  C  C77  1  0.32247000  0.85738000  0.90971000  1
  C  C78  1  0.44843000  0.40529000  0.16668000  1
  C  C79  1  0.45666000  0.36330000  0.22212000  1
  C  C80  1  0.46558000  0.41256000  0.32241000  1
  C  C81  1  0.76111000  0.59367000  0.04198000  1
  C  C82  1  0.85877000  0.63586000  0.09281000  1
  C  C83  1  0.90979000  0.58663000  0.05284000  1
  C  C84  1  0.18451000  0.72335000  0.90811000  1
  C  C85  1  0.18402000  0.27622000  0.46118000  1
  C  C86  1  0.46118000  0.27621000  0.18406000  1
  C  C87  1  0.90810000  0.72336000  0.18452000  1
  C  C88  1  0.81598000  0.72379000  0.53882000  1
  C  C89  1  0.81549000  0.27665000  0.09189000  1
  C  C90  1  0.53882000  0.72380000  0.81595000  1
  C  C91  1  0.09190000  0.27665000  0.81548000  1
  I  I92  1  0.12541000  0.62345000  0.49926000  1
  I  I93  1  0.87459000  0.37655000  0.50074000  1
  I  I94  1  0.49929000  0.62343000  0.12540000  1
  I  I95  1  0.50071000  0.37657000  0.87460000  1
  N  N96  1  0.07844000  0.63443000  0.71283000  1
  N  N97  1  0.07763000  0.36461000  0.44444000  1
  N  N98  1  0.44443000  0.36461000  0.07765000  1
  N  N99  1  0.71284000  0.63445000  0.07846000  1
  N  N100  1  0.92237000  0.63540000  0.55556000  1
  N  N101  1  0.92156000  0.36558000  0.28717000  1
  N  N102  1  0.55556000  0.63539000  0.92235000  1
  N  N103  1  0.28715000  0.36556000  0.92154000  1
  O  O104  1  0.97037000  0.50441000  0.86070000  1
  O  O105  1  0.10686000  0.63126000  0.99846000  1
  O  O106  1  0.35569000  0.49471000  0.46567000  1
  O  O107  1  0.36642000  0.36803000  0.47455000  1
  O  O108  1  0.46551000  0.10874000  0.96910000  1
  O  O109  1  0.47459000  0.10836000  0.10616000  1
  O  O110  1  0.86027000  0.89017000  0.35605000  1
  O  O111  1  0.99878000  0.89289000  0.36594000  1
  O  O112  1  0.03088000  0.89132000  0.53450000  1
  O  O113  1  0.89381000  0.89165000  0.52541000  1
  O  O114  1  0.64396000  0.10987000  0.13976000  1
  O  O115  1  0.63409000  0.10713000  0.00124000  1
  O  O116  1  0.53433000  0.50528000  0.64434000  1
  O  O117  1  0.52545000  0.63194000  0.63357000  1
  O  O118  1  0.13929000  0.49559000  0.02964000  1
  O  O119  1  0.00152000  0.36875000  0.89315000  1
  O  O120  1  0.02963000  0.49559000  0.13931000  1
  O  O121  1  0.89314000  0.36874000  0.00154000  1
  O  O122  1  0.64431000  0.50530000  0.53433000  1
  O  O123  1  0.63357000  0.63197000  0.52545000  1
  O  O124  1  0.53449000  0.89127000  0.03090000  1
  O  O125  1  0.52541000  0.89165000  0.89384000  1
  O  O126  1  0.13973000  0.10984000  0.64395000  1
  O  O127  1  0.00122000  0.10712000  0.63406000  1
  O  O128  1  0.96912000  0.10869000  0.46551000  1
  O  O129  1  0.10619000  0.10836000  0.47459000  1
  O  O130  1  0.35604000  0.89014000  0.86025000  1
  O  O131  1  0.36591000  0.89287000  0.99877000  1
  O  O132  1  0.46567000  0.49473000  0.35566000  1
  O  O133  1  0.47454000  0.36807000  0.36644000  1
  O  O134  1  0.86071000  0.50442000  0.97037000  1
  O  O135  1  0.99848000  0.63126000  0.10686000  1
