# generated using pymatgen
data_CdH4C8ClO4
_symmetry_space_group_name_H-M   'P 1'
_cell_length_a   17.69001000
_cell_length_b   18.95890000
_cell_length_c   18.96395000
_cell_angle_alpha   89.99420000
_cell_angle_beta   90.06491000
_cell_angle_gamma   89.98209000
_symmetry_Int_Tables_number   1
_chemical_formula_structural   CdH4C8ClO4
_chemical_formula_sum   'Cd8 H32 C64 Cl8 O32'
_cell_volume   6360.18449430
_cell_formula_units_Z   8
loop_
 _symmetry_equiv_pos_site_id
 _symmetry_equiv_pos_as_xyz
  1  'x, y, z'
loop_
 _atom_site_type_symbol
 _atom_site_label
 _atom_site_symmetry_multiplicity
 _atom_site_fract_x
 _atom_site_fract_y
 _atom_site_fract_z
 _atom_site_occupancy
  Cd  Cd0  1  0.99503000  0.56833000  0.56699000  1
  Cd  Cd1  1  0.99473000  0.93165000  0.93322000  1
  Cd  Cd2  1  0.49527000  0.56719000  0.93176000  1
  Cd  Cd3  1  0.49473000  0.93313000  0.56834000  1
  Cd  Cd4  1  0.00455000  0.43174000  0.43283000  1
  Cd  Cd5  1  0.00527000  0.06849000  0.06678000  1
  Cd  Cd6  1  0.50467000  0.43284000  0.06826000  1
  Cd  Cd7  1  0.50520000  0.06675000  0.43159000  1
  H  H8  1  0.19801000  0.69831000  0.46851000  1
  H  H9  1  0.17631000  0.72519000  0.69279000  1
  H  H10  1  0.29208000  0.80356000  0.69342000  1
  H  H11  1  0.31153000  0.77900000  0.46846000  1
  H  H12  1  0.19796000  0.80166000  0.03142000  1
  H  H13  1  0.17603000  0.77484000  0.80707000  1
  H  H14  1  0.29188000  0.69666000  0.80663000  1
  H  H15  1  0.31152000  0.72116000  0.03162000  1
  H  H16  1  0.69840000  0.46828000  0.80143000  1
  H  H17  1  0.67647000  0.69268000  0.77481000  1
  H  H18  1  0.79208000  0.69331000  0.69643000  1
  H  H19  1  0.81175000  0.46831000  0.72078000  1
  H  H20  1  0.69789000  0.03149000  0.69821000  1
  H  H21  1  0.67610000  0.80709000  0.72510000  1
  H  H22  1  0.79189000  0.80655000  0.80349000  1
  H  H23  1  0.81143000  0.03160000  0.77893000  1
  H  H24  1  0.80161000  0.30160000  0.53164000  1
  H  H25  1  0.82332000  0.27491000  0.30730000  1
  H  H26  1  0.70780000  0.19622000  0.30671000  1
  H  H27  1  0.68839000  0.22064000  0.53165000  1
  H  H28  1  0.80201000  0.19843000  0.96857000  1
  H  H29  1  0.82401000  0.22531000  0.19290000  1
  H  H30  1  0.70803000  0.30338000  0.19334000  1
  H  H31  1  0.68838000  0.27884000  0.96841000  1
  H  H32  1  0.30158000  0.53170000  0.19861000  1
  H  H33  1  0.32350000  0.30728000  0.22523000  1
  H  H34  1  0.20790000  0.30668000  0.30365000  1
  H  H35  1  0.18823000  0.53167000  0.27928000  1
  H  H36  1  0.30215000  0.96855000  0.30174000  1
  H  H37  1  0.32394000  0.19294000  0.27479000  1
  H  H38  1  0.20801000  0.19344000  0.19655000  1
  H  H39  1  0.18852000  0.96843000  0.22116000  1
  C  C40  1  0.18113000  0.70805000  0.58064000  1
  C  C41  1  0.11332000  0.66210000  0.57996000  1
  C  C42  1  0.21899000  0.72213000  0.51690000  1
  C  C43  1  0.20689000  0.73736000  0.64456000  1
  C  C44  1  0.27057000  0.78029000  0.64490000  1
  C  C45  1  0.30766000  0.79524000  0.58092000  1
  C  C46  1  0.37468000  0.84224000  0.58011000  1
  C  C47  1  0.28160000  0.76635000  0.51693000  1
  C  C48  1  0.18091000  0.79178000  0.91937000  1
  C  C49  1  0.11312000  0.83771000  0.92013000  1
  C  C50  1  0.21895000  0.77785000  0.98308000  1
  C  C51  1  0.20663000  0.76270000  0.85538000  1
  C  C52  1  0.27037000  0.71983000  0.85512000  1
  C  C53  1  0.30755000  0.70478000  0.91912000  1
  C  C54  1  0.37461000  0.65776000  0.91989000  1
  C  C55  1  0.28158000  0.73366000  0.98309000  1
  C  C56  1  0.68143000  0.58055000  0.79197000  1
  C  C57  1  0.61371000  0.57992000  0.83801000  1
  C  C58  1  0.71929000  0.51675000  0.77776000  1
  C  C59  1  0.70709000  0.64444000  0.76265000  1
  C  C60  1  0.77065000  0.64476000  0.71963000  1
  C  C61  1  0.80777000  0.58078000  0.70460000  1
  C  C62  1  0.87478000  0.58005000  0.65764000  1
  C  C63  1  0.78178000  0.51679000  0.73345000  1
  C  C64  1  0.68089000  0.91942000  0.70815000  1
  C  C65  1  0.61307000  0.92011000  0.66221000  1
  C  C66  1  0.71890000  0.98313000  0.72207000  1
  C  C67  1  0.70668000  0.85538000  0.73726000  1
  C  C68  1  0.77041000  0.85505000  0.78017000  1
  C  C69  1  0.80753000  0.91906000  0.79517000  1
  C  C70  1  0.87458000  0.91988000  0.84222000  1
  C  C71  1  0.78154000  0.98309000  0.76628000  1
  C  C72  1  0.81849000  0.29191000  0.41943000  1
  C  C73  1  0.88635000  0.33771000  0.42012000  1
  C  C74  1  0.78067000  0.27785000  0.48320000  1
  C  C75  1  0.79275000  0.26267000  0.35551000  1
  C  C76  1  0.72918000  0.21964000  0.35518000  1
  C  C77  1  0.69218000  0.20463000  0.41917000  1
  C  C78  1  0.62522000  0.15762000  0.41993000  1
  C  C79  1  0.71818000  0.23351000  0.48317000  1
  C  C80  1  0.81914000  0.20831000  0.08066000  1
  C  C81  1  0.88690000  0.16236000  0.07986000  1
  C  C82  1  0.78108000  0.22223000  0.01693000  1
  C  C83  1  0.79339000  0.23744000  0.14460000  1
  C  C84  1  0.72960000  0.28025000  0.14484000  1
  C  C85  1  0.69238000  0.29524000  0.08086000  1
  C  C86  1  0.62532000  0.34227000  0.08009000  1
  C  C87  1  0.71840000  0.26637000  0.01691000  1
  C  C88  1  0.31856000  0.41942000  0.20807000  1
  C  C89  1  0.38614000  0.42002000  0.16184000  1
  C  C90  1  0.28072000  0.48323000  0.22231000  1
  C  C91  1  0.29291000  0.35553000  0.23742000  1
  C  C92  1  0.22935000  0.35522000  0.28044000  1
  C  C93  1  0.19223000  0.41921000  0.29545000  1
  C  C94  1  0.12519000  0.41995000  0.34239000  1
  C  C95  1  0.21823000  0.48320000  0.26662000  1
  C  C96  1  0.31911000  0.08063000  0.29178000  1
  C  C97  1  0.38689000  0.07989000  0.33774000  1
  C  C98  1  0.28112000  0.01690000  0.27790000  1
  C  C99  1  0.29334000  0.14465000  0.26266000  1
  C  C100  1  0.22957000  0.14495000  0.21981000  1
  C  C101  1  0.19245000  0.08094000  0.20483000  1
  C  C102  1  0.12540000  0.08012000  0.15779000  1
  C  C103  1  0.21846000  0.01694000  0.23372000  1
  Cl  Cl104  1  0.92082000  0.54050000  0.45341000  1
  Cl  Cl105  1  0.92102000  0.96014000  0.04668000  1
  Cl  Cl106  1  0.42109000  0.45370000  0.95953000  1
  Cl  Cl107  1  0.42100000  0.04666000  0.53992000  1
  Cl  Cl108  1  0.07874000  0.45968000  0.54627000  1
  Cl  Cl109  1  0.07897000  0.04002000  0.95337000  1
  Cl  Cl110  1  0.57890000  0.54635000  0.04048000  1
  Cl  Cl111  1  0.57897000  0.95323000  0.46004000  1
  O  O112  1  0.07710000  0.65344000  0.52190000  1
  O  O113  1  0.09133000  0.63128000  0.63580000  1
  O  O114  1  0.38994000  0.88209000  0.63223000  1
  O  O115  1  0.41710000  0.84301000  0.52529000  1
  O  O116  1  0.07700000  0.84652000  0.97816000  1
  O  O117  1  0.09098000  0.86839000  0.86424000  1
  O  O118  1  0.38984000  0.61796000  0.86775000  1
  O  O119  1  0.41719000  0.65703000  0.97469000  1
  O  O120  1  0.57774000  0.52180000  0.84659000  1
  O  O121  1  0.59139000  0.63571000  0.86881000  1
  O  O122  1  0.88998000  0.63226000  0.61789000  1
  O  O123  1  0.91733000  0.52527000  0.65692000  1
  O  O124  1  0.57654000  0.97801000  0.65353000  1
  O  O125  1  0.59125000  0.86420000  0.63139000  1
  O  O126  1  0.88984000  0.86777000  0.88211000  1
  O  O127  1  0.91707000  0.97469000  0.84295000  1
  O  O128  1  0.92185000  0.34679000  0.47842000  1
  O  O129  1  0.90902000  0.36802000  0.36420000  1
  O  O130  1  0.60999000  0.11782000  0.36776000  1
  O  O131  1  0.58275000  0.15689000  0.47470000  1
  O  O132  1  0.92272000  0.15348000  0.02170000  1
  O  O133  1  0.90920000  0.13171000  0.13572000  1
  O  O134  1  0.61009000  0.38204000  0.13225000  1
  O  O135  1  0.58273000  0.34302000  0.02530000  1
  O  O136  1  0.42218000  0.47813000  0.15340000  1
  O  O137  1  0.40827000  0.36433000  0.13072000  1
  O  O138  1  0.11001000  0.36776000  0.38214000  1
  O  O139  1  0.08262000  0.47472000  0.34305000  1
  O  O140  1  0.42318000  0.02188000  0.34652000  1
  O  O141  1  0.40892000  0.13578000  0.36847000  1
  O  O142  1  0.11016000  0.13226000  0.11790000  1
  O  O143  1  0.08290000  0.02532000  0.15703000  1
