# generated using pymatgen
data_H7C16(N2O3)2
_symmetry_space_group_name_H-M   'P 1'
_cell_length_a   9.93200000
_cell_length_b   31.46870000
_cell_length_c   31.46870000
_cell_angle_alpha   120.00000000
_cell_angle_beta   90.00000000
_cell_angle_gamma   90.00000000
_symmetry_Int_Tables_number   1
_chemical_formula_structural   H7C16(N2O3)2
_chemical_formula_sum   'H42 C96 N24 O36'
_cell_volume   8517.75113337
_cell_formula_units_Z   6
loop_
 _symmetry_equiv_pos_site_id
 _symmetry_equiv_pos_as_xyz
  1  'x, y, z'
loop_
 _atom_site_type_symbol
 _atom_site_label
 _atom_site_symmetry_multiplicity
 _atom_site_fract_x
 _atom_site_fract_y
 _atom_site_fract_z
 _atom_site_occupancy
  C  1  1  0.98482700  0.96793800  0.48551200  1
  C  13  1  0.01273000  0.94015000  0.50937400  1
  C  14  1  0.95389900  0.93979100  0.43445300  1
  C  19  1  0.00110400  0.88821900  0.48450100  1
  C  20  1  0.95505700  0.88796000  0.40785700  1
  C  25  1  0.98476800  0.02178400  0.51107800  1
  C  26  1  0.95360700  0.04992900  0.56211600  1
  C  27  1  0.95465400  0.10175800  0.58870000  1
  C  28  1  0.97374400  0.12734700  0.56298400  1
  C  29  1  0.00093300  0.10150500  0.51207700  1
  C  30  1  0.01278400  0.04957800  0.48723000  1
  C  33  1  0.97411400  0.86237500  0.43358000  1
  C  39  1  0.98461200  0.48075000  0.97139100  1
  C  40  1  0.95355500  0.50368600  0.94327500  1
  C  41  1  0.95454200  0.47847700  0.89144500  1
  C  42  1  0.97351200  0.42716400  0.86582500  1
  C  43  1  0.00062700  0.40206000  0.89163300  1
  C  44  1  0.01252900  0.42910100  0.94356000  1
  C  47  1  0.98472900  0.50901800  0.02524500  1
  C  48  1  0.01268800  0.56066600  0.05304600  1
  C  49  1  0.00096800  0.58772500  0.10497600  1
  C  50  1  0.97393900  0.56264500  0.13081200  1
  C  51  1  0.95501500  0.51133100  0.10522400  1
  C  52  1  0.95385800  0.48610100  0.05339100  1
  C  61  1  0.98458800  0.48206300  0.51245000  1
  C  62  1  0.95368500  0.43100300  0.48956300  1
  C  63  1  0.95471400  0.40443900  0.51483100  1
  C  64  1  0.97356200  0.43020000  0.56615000  1
  C  65  1  0.00059600  0.48111600  0.59120000  1
  C  66  1  0.01244200  0.50594700  0.56410600  1
  C  69  1  0.98457600  0.50760200  0.48413600  1
  C  70  1  0.01250700  0.48371800  0.43248600  1
  C  71  1  0.00069700  0.50854500  0.40538700  1
  C  72  1  0.97370400  0.55946600  0.43043600  1
  C  73  1  0.95469200  0.58522000  0.48174700  1
  C  74  1  0.95356400  0.55865100  0.50701100  1
  C  83  1  0.00505700  0.64000800  0.13251700  1
  C  84  1  0.11325200  0.66455500  0.16453800  1
  C  86  1  0.98170800  0.73799600  0.21141300  1
  C  87  1  0.87079200  0.71563700  0.17924200  1
  C  88  1  0.88462800  0.66672500  0.13996600  1
  C  90  1  0.97344600  0.78317100  0.25698400  1
  C  91  1  0.08378200  0.81559200  0.27945800  1
  C  92  1  0.07027000  0.85423100  0.32871200  1
  C  93  1  0.95060600  0.86084900  0.35561400  1
  C  94  1  0.84273400  0.82873400  0.33084900  1
  C  105  1  0.00523700  0.48378500  0.35310000  1
  C  106  1  0.11344400  0.49122500  0.32855800  1
  C  108  1  0.98177800  0.46474400  0.25514900  1
  C  109  1  0.87081300  0.45497500  0.27752400  1
  C  110  1  0.88459900  0.46467900  0.32646100  1
  C  112  1  0.97352000  0.46518900  0.20999500  1
  C  113  1  0.08388200  0.45529300  0.17759100  1
  C  114  1  0.07039200  0.46601100  0.13902300  1
  C  115  1  0.95063700  0.48620400  0.13234100  1
  C  116  1  0.84292300  0.49361900  0.16453200  1
  C  127  1  0.00560100  0.86066400  0.50922700  1
  C  128  1  0.11356400  0.82856500  0.50172700  1
  C  130  1  0.98171600  0.78167700  0.52816000  1
  C  131  1  0.87080800  0.81383400  0.53790800  1
  C  132  1  0.88484800  0.85310400  0.52827300  1
  C  134  1  0.97329000  0.73608300  0.52771800  1
  C  135  1  0.08352400  0.71361300  0.53774000  1
  C  136  1  0.06995200  0.66435700  0.52711500  1
  C  137  1  0.95028200  0.63746200  0.50684300  1
  C  138  1  0.84262600  0.66221100  0.49936000  1
  C  149  1  0.00482400  0.34978000  0.86407000  1
  C  150  1  0.11290900  0.32527300  0.83196700  1
  C  152  1  0.98149000  0.25178400  0.78518400  1
  C  153  1  0.87065200  0.27410800  0.81739700  1
  C  154  1  0.88446500  0.32303300  0.85664900  1
  C  156  1  0.97317900  0.20668400  0.73954100  1
  C  157  1  0.08355900  0.17429700  0.71697700  1
  C  158  1  0.06987600  0.13564200  0.66773600  1
  C  159  1  0.94988000  0.12890000  0.64094100  1
  C  160  1  0.84217000  0.16105200  0.66577200  1
  C  171  1  0.00478400  0.50588700  0.64348300  1
  C  172  1  0.11295000  0.49837600  0.66801600  1
  C  174  1  0.98145600  0.52496900  0.74147100  1
  C  175  1  0.87058200  0.53483200  0.71913300  1
  C  176  1  0.88440500  0.52519700  0.67022000  1
  C  178  1  0.97316900  0.52456100  0.78664000  1
  C  179  1  0.08352800  0.53441400  0.81902700  1
  C  180  1  0.06988900  0.52379300  0.85765900  1
  C  181  1  0.95007700  0.50362600  0.86435800  1
  C  182  1  0.84228400  0.49634000  0.83223100  1
  C  193  1  0.00554100  0.12903700  0.48733400  1
  C  194  1  0.11355900  0.16110500  0.49481200  1
  C  196  1  0.98178700  0.20797600  0.46830300  1
  C  197  1  0.87091500  0.17579700  0.45852900  1
  C  198  1  0.88485800  0.13657600  0.46824200  1
  C  200  1  0.97340000  0.25356100  0.46873100  1
  C  201  1  0.08369900  0.27609000  0.45882500  1
  C  202  1  0.07012700  0.32537100  0.46953400  1
  C  203  1  0.95030900  0.35219100  0.48973900  1
  C  204  1  0.84262200  0.32742000  0.49715800  1
  H  2  1  0.92749700  0.95681200  0.41532800  1
  H  4  1  0.15431000  0.96896000  0.55535300  1
  H  31  1  0.92718500  0.03290700  0.58124100  1
  H  36  1  0.15459300  0.02081600  0.44134600  1
  H  37  1  0.88081100  0.18754300  0.58530900  1
  H  38  1  0.88143000  0.80212200  0.41122100  1
  H  45  1  0.92718700  0.53983400  0.96031700  1
  H  54  1  0.92751800  0.44995100  0.03637300  1
  H  57  1  0.15412500  0.41185300  0.97228900  1
  H  58  1  0.15416500  0.57787200  0.02423500  1
  H  59  1  0.88048000  0.38931200  0.80564100  1
  H  60  1  0.88110300  0.60053700  0.19103200  1
  H  67  1  0.92734200  0.41185200  0.45341400  1
  H  76  1  0.92719500  0.57780200  0.54315900  1
  H  79  1  0.15398900  0.55193700  0.58129700  1
  H  80  1  0.15423100  0.43780400  0.41536100  1
  H  81  1  0.88062100  0.40793500  0.60407500  1
  H  82  1  0.88100200  0.58175900  0.39249300  1
  H  89  1  0.80183500  0.64929300  0.11903300  1
  H  96  1  0.15277900  0.87534900  0.34615000  1
  H  97  1  0.75649400  0.82973900  0.34907100  1
  H  98  1  0.19982900  0.64628400  0.16305100  1
  H  111  1  0.80188600  0.46108100  0.34386600  1
  H  118  1  0.15277100  0.46220200  0.11780200  1
  H  119  1  0.75634900  0.51058900  0.16336000  1
  H  120  1  0.20005100  0.50798300  0.34682800  1
  H  133  1  0.80218600  0.87411300  0.53182300  1
  H  140  1  0.15235900  0.64696200  0.53092900  1
  H  141  1  0.75608500  0.64405900  0.48236800  1
  H  142  1  0.20039300  0.83021200  0.48515600  1
  H  155  1  0.80181300  0.34043100  0.87769500  1
  H  162  1  0.15237800  0.11453900  0.65026200  1
  H  163  1  0.75562900  0.15985900  0.64761200  1
  H  164  1  0.19937200  0.34357700  0.83340300  1
  H  177  1  0.80162300  0.52872700  0.65280300  1
  H  184  1  0.15240800  0.52741900  0.87875300  1
  H  185  1  0.75594200  0.47918000  0.83324800  1
  H  186  1  0.19947900  0.48155200  0.64972600  1
  H  199  1  0.80219700  0.11553900  0.46462000  1
  H  206  1  0.15244800  0.34279800  0.46571300  1
  H  207  1  0.75604300  0.34555200  0.51413400  1
  H  208  1  0.20017300  0.15963100  0.51158400  1
  N  85  1  0.09631600  0.71098500  0.20231900  1
  N  95  1  0.85949800  0.79150300  0.28414700  1
  N  99  1  0.20544800  0.80820500  0.25323200  1
  N  100  1  0.74801800  0.74148400  0.18759400  1
  N  107  1  0.09644600  0.48260900  0.28214000  1
  N  117  1  0.85953700  0.48402100  0.20168100  1
  N  121  1  0.20552900  0.43641100  0.18493100  1
  N  122  1  0.74801800  0.43749800  0.25168800  1
  N  129  1  0.09652900  0.79078400  0.51036700  1
  N  139  1  0.85931300  0.70893600  0.50890000  1
  N  143  1  0.20515700  0.73984000  0.55665400  1
  N  144  1  0.74787600  0.80547100  0.55530400  1
  N  151  1  0.09596500  0.27884500  0.79418400  1
  N  161  1  0.85900100  0.19826100  0.71247400  1
  N  165  1  0.20542300  0.18172300  0.74310900  1
  N  166  1  0.74798800  0.24821700  0.80911500  1
  N  173  1  0.09601600  0.50701500  0.71444000  1
  N  183  1  0.85911400  0.50580500  0.79500000  1
  N  187  1  0.20532300  0.55316300  0.81161600  1
  N  188  1  0.74785700  0.55237400  0.74499900  1
  N  195  1  0.09646800  0.19889700  0.48619000  1
  N  205  1  0.85936500  0.28067800  0.48756400  1
  N  209  1  0.20536800  0.24988500  0.43993200  1
  N  210  1  0.74807700  0.18410800  0.44104100  1
  O  3  1  0.05859900  0.96151700  0.55644100  1
  O  32  1  0.97275700  0.17758100  0.58810100  1
  O  34  1  0.97332100  0.81213900  0.40843900  1
  O  35  1  0.05888200  0.02821800  0.44019100  1
  O  46  1  0.97242400  0.40208100  0.81558800  1
  O  53  1  0.97302300  0.58775100  0.18104900  1
  O  55  1  0.05838400  0.40336000  0.96488200  1
  O  56  1  0.05845800  0.58639000  0.03169600  1
  O  68  1  0.97255400  0.40510100  0.59128700  1
  O  75  1  0.97289600  0.58456300  0.40529900  1
  O  77  1  0.05825700  0.55301800  0.58979900  1
  O  78  1  0.05852200  0.43667100  0.40681300  1
  O  101  1  0.30222200  0.79999800  0.27387400  1
  O  102  1  0.65317200  0.72013800  0.19584800  1
  O  103  1  0.71675500  0.74637300  0.15159500  1
  O  104  1  0.23386100  0.84476000  0.24890700  1
  O  123  1  0.30232000  0.46526400  0.19318000  1
  O  124  1  0.65322400  0.46713300  0.27302300  1
  O  125  1  0.71665600  0.39663400  0.24683900  1
  O  126  1  0.23391200  0.39556000  0.14833200  1
  O  145  1  0.30204600  0.71919700  0.52786500  1
  O  146  1  0.65322400  0.79722300  0.52563100  1
  O  147  1  0.71643300  0.84146300  0.59617300  1
  O  148  1  0.23332700  0.74417300  0.59755200  1
  O  167  1  0.30194500  0.18995600  0.72238700  1
  O  168  1  0.65295700  0.26952500  0.80089900  1
  O  169  1  0.71700500  0.24333200  0.84513600  1
  O  170  1  0.23413500  0.14518300  0.74742000  1
  O  189  1  0.30191600  0.52423300  0.80337300  1
  O  190  1  0.65292200  0.52281200  0.72366500  1
  O  191  1  0.71671600  0.59327700  0.74989900  1
  O  192  1  0.23396300  0.59401300  0.84816900  1
  O  211  1  0.30216700  0.27051100  0.46877600  1
  O  212  1  0.65329300  0.19237700  0.47067000  1
  O  213  1  0.71678600  0.14807800  0.40017500  1
  O  214  1  0.23368300  0.24563000  0.39907600  1
