# generated using pymatgen
data_SiH40(C11N)6
_symmetry_space_group_name_H-M   'P 1'
_cell_length_a   27.03070000
_cell_length_b   27.03080000
_cell_length_c   36.02760000
_cell_angle_alpha   89.98770000
_cell_angle_beta   90.01230000
_cell_angle_gamma   90.00000000
_symmetry_Int_Tables_number   1
_chemical_formula_structural   SiH40(C11N)6
_chemical_formula_sum   'Si4 H160 C264 N24'
_cell_volume   26323.97708290
_cell_formula_units_Z   4
loop_
 _symmetry_equiv_pos_site_id
 _symmetry_equiv_pos_as_xyz
  1  'x, y, z'
loop_
 _atom_site_type_symbol
 _atom_site_label
 _atom_site_symmetry_multiplicity
 _atom_site_fract_x
 _atom_site_fract_y
 _atom_site_fract_z
 _atom_site_occupancy
  Si  7  1  0.96797800  0.00328800  0.75335200  1
  Si  48  1  0.96811600  0.00341300  0.25334800  1
  Si  233  1  0.70901300  0.78131900  0.67008300  1
  Si  274  1  0.70915100  0.78144400  0.17007900  1
  H  26  1  0.85355800  0.92520100  0.83559400  1
  H  27  1  0.91639200  0.92489500  0.78943000  1
  H  28  1  0.85271600  0.08126200  0.83499700  1
  H  29  1  0.91554500  0.08164500  0.78885100  1
  H  30  1  0.01959200  0.08160400  0.78946700  1
  H  31  1  0.08243000  0.08123200  0.83563500  1
  H  32  1  0.08325200  0.92518000  0.83498900  1
  H  33  1  0.02041400  0.92486200  0.78881700  1
  H  34  1  0.04634100  0.95182000  0.71721100  1
  H  35  1  0.04606200  0.88901500  0.67105500  1
  H  36  1  0.89001300  0.88795000  0.67171000  1
  H  37  1  0.88959900  0.95076200  0.71788300  1
  H  38  1  0.88956700  0.05476600  0.71723600  1
  H  39  1  0.04631200  0.05589100  0.71790000  1
  H  40  1  0.04585100  0.11871800  0.67173000  1
  H  41  1  0.88980000  0.11757500  0.67105800  1
  H  67  1  0.88994300  0.11787000  0.33549900  1
  H  68  1  0.88969900  0.05500000  0.28937000  1
  H  69  1  0.04601400  0.11882500  0.33497100  1
  H  70  1  0.04644400  0.05596600  0.28884000  1
  H  71  1  0.04642200  0.95183100  0.28953100  1
  H  72  1  0.04606600  0.88895900  0.33566000  1
  H  73  1  0.89000300  0.88806600  0.33491900  1
  H  74  1  0.88968600  0.95093700  0.28878200  1
  H  75  1  0.91660900  0.92502900  0.21722300  1
  H  76  1  0.85375600  0.92528900  0.17108600  1
  H  77  1  0.85272100  0.08133700  0.17168000  1
  H  78  1  0.91558200  0.08176800  0.21783100  1
  H  79  1  0.01969500  0.08174200  0.21721200  1
  H  80  1  0.02064200  0.92500900  0.21795000  1
  H  81  1  0.08348700  0.92534800  0.17182200  1
  H  82  1  0.08252500  0.08140700  0.17107200  1
  H  107  1  0.74588200  0.00337800  0.84328600  1
  H  108  1  0.69807700  0.00344700  0.89926900  1
  H  109  1  0.87748700  0.00324500  0.90652800  1
  H  110  1  0.83061800  0.00333100  0.96209200  1
  H  111  1  0.83064200  0.00323700  0.04457500  1
  H  112  1  0.87754200  0.00321400  0.10013800  1
  H  113  1  0.69813600  0.00338500  0.10739600  1
  H  114  1  0.74597200  0.00337300  0.16338100  1
  H  115  1  0.59310200  0.00325500  0.06189200  1
  H  116  1  0.50730300  0.00320400  0.06214500  1
  H  117  1  0.50726300  0.00323000  0.94453400  1
  H  118  1  0.59306200  0.00328300  0.94478000  1
  H  143  1  0.19011000  0.00312200  0.84331000  1
  H  144  1  0.23792400  0.00306300  0.89930200  1
  H  145  1  0.05851500  0.00320000  0.90652200  1
  H  146  1  0.10539600  0.00312800  0.96210000  1
  H  147  1  0.10543700  0.00332100  0.04464100  1
  H  148  1  0.05861000  0.00345300  0.10023200  1
  H  149  1  0.23802600  0.00307600  0.10740700  1
  H  150  1  0.19026700  0.00319100  0.16341100  1
  H  151  1  0.34298600  0.00311800  0.06190300  1
  H  152  1  0.42878100  0.00316000  0.06214700  1
  H  153  1  0.42873800  0.00319800  0.94453700  1
  H  154  1  0.34293900  0.00315400  0.94479100  1
  H  179  1  0.96801100  0.22556800  0.34326800  1
  H  180  1  0.96794700  0.27333800  0.39926900  1
  H  181  1  0.96791500  0.09392600  0.40646700  1
  H  182  1  0.96786100  0.14076000  0.46204900  1
  H  183  1  0.96761500  0.14071400  0.54457400  1
  H  184  1  0.96762200  0.09382600  0.60014800  1
  H  185  1  0.96794400  0.27323000  0.60738200  1
  H  186  1  0.96796700  0.22540900  0.66337200  1
  H  187  1  0.96777500  0.37825700  0.56189200  1
  H  188  1  0.96784500  0.46405500  0.56214700  1
  H  189  1  0.96782800  0.46410000  0.44453700  1
  H  190  1  0.96775500  0.37830500  0.44478200  1
  H  215  1  0.96794100  0.78125100  0.34329600  1
  H  216  1  0.96794100  0.73342900  0.39928600  1
  H  217  1  0.96808300  0.91283700  0.40651600  1
  H  218  1  0.96807200  0.86595100  0.46208800  1
  H  219  1  0.96814200  0.86594100  0.54457700  1
  H  220  1  0.96814600  0.91281800  0.60013700  1
  H  221  1  0.96795900  0.73340800  0.60741000  1
  H  222  1  0.96795300  0.78122000  0.66338900  1
  H  223  1  0.96805200  0.62837900  0.56190300  1
  H  224  1  0.96797400  0.54258000  0.56215000  1
  H  225  1  0.96793100  0.54262100  0.44454000  1
  H  226  1  0.96801300  0.62842000  0.44479300  1
  H  252  1  0.59459300  0.70323200  0.75232500  1
  H  253  1  0.65742700  0.70292600  0.70616100  1
  H  254  1  0.59375100  0.85929300  0.75172800  1
  H  255  1  0.65658000  0.85967600  0.70558200  1
  H  256  1  0.76062700  0.85963500  0.70619800  1
  H  257  1  0.82346500  0.85926300  0.75236600  1
  H  258  1  0.82428700  0.70321100  0.75172000  1
  H  259  1  0.76144900  0.70289300  0.70554800  1
  H  260  1  0.78737600  0.72985100  0.63394200  1
  H  261  1  0.78709700  0.66704600  0.58778600  1
  H  262  1  0.63104800  0.66598100  0.58844100  1
  H  263  1  0.63063400  0.72879300  0.63461400  1
  H  264  1  0.63060200  0.83279700  0.63396700  1
  H  265  1  0.78734700  0.83392200  0.63463100  1
  H  266  1  0.78688600  0.89674900  0.58846100  1
  H  267  1  0.63083500  0.89560600  0.58778900  1
  H  293  1  0.63097800  0.89590100  0.25223000  1
  H  294  1  0.63073400  0.83303100  0.20610100  1
  H  295  1  0.78704900  0.89685600  0.25170200  1
  H  296  1  0.78747900  0.83399700  0.20557100  1
  H  297  1  0.78745700  0.72986200  0.20626200  1
  H  298  1  0.78710100  0.66699000  0.25239100  1
  H  299  1  0.63103800  0.66609700  0.25165000  1
  H  300  1  0.63072100  0.72896800  0.20551300  1
  H  301  1  0.65764400  0.70306000  0.13395400  1
  H  302  1  0.59479100  0.70332000  0.08781700  1
  H  303  1  0.59375600  0.85936800  0.08841100  1
  H  304  1  0.65661700  0.85979900  0.13456200  1
  H  305  1  0.76073000  0.85977300  0.13394300  1
  H  306  1  0.76167700  0.70304000  0.13468100  1
  H  307  1  0.82452200  0.70337900  0.08855300  1
  H  308  1  0.82356000  0.85943800  0.08780300  1
  H  333  1  0.48691700  0.78140900  0.76001700  1
  H  334  1  0.43911200  0.78147800  0.81600000  1
  H  335  1  0.61852200  0.78127600  0.82325900  1
  H  336  1  0.57165300  0.78136200  0.87882300  1
  H  337  1  0.57167700  0.78126800  0.96130550  1
  H  338  1  0.61857700  0.78124500  0.01686900  1
  H  339  1  0.43917100  0.78141600  0.02412700  1
  H  340  1  0.48700700  0.78140400  0.08011200  1
  H  341  1  0.33413700  0.78128600  0.97862250  1
  H  342  1  0.24833800  0.78123500  0.97887550  1
  H  343  1  0.24829800  0.78126100  0.86126500  1
  H  344  1  0.33409700  0.78131400  0.86151100  1
  H  369  1  0.93114520  0.78115300  0.76004100  1
  H  370  1  0.97895920  0.78109400  0.81603300  1
  H  371  1  0.79955000  0.78123100  0.82325300  1
  H  372  1  0.84643100  0.78115900  0.87883100  1
  H  373  1  0.84647200  0.78135200  0.96137150  1
  H  374  1  0.79964500  0.78148400  0.01696300  1
  H  375  1  0.97906120  0.78110700  0.02413800  1
  H  376  1  0.93130220  0.78122200  0.08014200  1
  H  377  1  0.08402100  0.78114900  0.97863350  1
  H  378  1  0.16981600  0.78119100  0.97887750  1
  H  379  1  0.16977300  0.78122900  0.86126800  1
  H  380  1  0.08397400  0.78118500  0.86152200  1
  H  405  1  0.70904600  0.00359900  0.25999900  1
  H  406  1  0.70898200  0.05136900  0.31600000  1
  H  407  1  0.70895000  0.87195700  0.32319800  1
  H  408  1  0.70889600  0.91879100  0.37878000  1
  H  409  1  0.70865000  0.91874500  0.46130500  1
  H  410  1  0.70865700  0.87185700  0.51687900  1
  H  411  1  0.70897900  0.05126100  0.52411300  1
  H  412  1  0.70900200  0.00344000  0.58010300  1
  H  413  1  0.70881000  0.15628800  0.47862300  1
  H  414  1  0.70888000  0.24208600  0.47887800  1
  H  415  1  0.70886300  0.24213100  0.36126800  1
  H  416  1  0.70879000  0.15633600  0.36151300  1
  H  441  1  0.70897600  0.55928200  0.26002700  1
  H  442  1  0.70897600  0.51146000  0.31601700  1
  H  443  1  0.70911800  0.69086800  0.32324700  1
  H  444  1  0.70910700  0.64398200  0.37881900  1
  H  445  1  0.70917700  0.64397200  0.46130800  1
  H  446  1  0.70918100  0.69084900  0.51686800  1
  H  447  1  0.70899400  0.51143900  0.52414100  1
  H  448  1  0.70898800  0.55925100  0.58012000  1
  H  449  1  0.70908700  0.40641000  0.47863400  1
  H  450  1  0.70900900  0.32061100  0.47888100  1
  H  451  1  0.70896600  0.32065200  0.36127100  1
  H  452  1  0.70904800  0.40645100  0.36152400  1
  C  1  1  0.96778900  0.12614000  0.66897100  1
  C  2  1  0.01284000  0.10739000  0.68278800  1
  C  3  1  0.01284400  0.07007000  0.70993100  1
  C  4  1  0.96792100  0.05133100  0.72454800  1
  C  5  1  0.92294400  0.06942200  0.70955100  1
  C  6  1  0.92281900  0.10664700  0.68234100  1
  C  8  1  0.96799800  0.95528600  0.72452600  1
  C  9  1  0.92305400  0.93657700  0.70991100  1
  C  10  1  0.92303600  0.89934300  0.68271800  1
  C  11  1  0.96806700  0.88049000  0.66896500  1
  C  12  1  0.01305800  0.89988800  0.68238300  1
  C  13  1  0.01295500  0.93717600  0.70953100  1
  C  14  1  0.01602000  0.00326500  0.78215500  1
  C  15  1  0.91996800  0.00324500  0.78216900  1
  C  16  1  0.90180700  0.95828800  0.79714500  1
  C  17  1  0.86456300  0.95820100  0.82432800  1
  C  18  1  0.84515700  0.00319500  0.83770100  1
  C  19  1  0.86398700  0.04824000  0.82393000  1
  C  20  1  0.90129900  0.04819600  0.79679400  1
  C  21  1  0.03421500  0.04820300  0.79713700  1
  C  22  1  0.07150600  0.04825400  0.82429800  1
  C  23  1  0.09084000  0.00322100  0.83770000  1
  C  24  1  0.07199100  0.95821000  0.82391400  1
  C  25  1  0.03468100  0.95829400  0.79676500  1
  C  42  1  0.09100400  0.00340100  0.16904600  1
  C  43  1  0.07221400  0.95837900  0.18287400  1
  C  44  1  0.03491300  0.95844800  0.21001400  1
  C  45  1  0.01615700  0.00340700  0.22456400  1
  C  46  1  0.03435400  0.04834900  0.20957900  1
  C  47  1  0.07161100  0.04841600  0.18240200  1
  C  49  1  0.92013600  0.00337700  0.22449200  1
  C  50  1  0.90138600  0.04830800  0.20987600  1
  C  51  1  0.86412200  0.04831900  0.18269400  1
  C  52  1  0.84524800  0.00328200  0.16896300  1
  C  53  1  0.86464900  0.95829700  0.18239100  1
  C  54  1  0.90196700  0.95841500  0.20953200  1
  C  55  1  0.96808700  0.95541500  0.28218700  1
  C  56  1  0.96805200  0.05143600  0.28215100  1
  C  57  1  0.92308400  0.06960700  0.29709500  1
  C  58  1  0.92295100  0.10690100  0.32423800  1
  C  59  1  0.96793900  0.12629000  0.33764700  1
  C  60  1  0.01299600  0.10744100  0.32394700  1
  C  61  1  0.01298500  0.07017300  0.29677600  1
  C  62  1  0.01301800  0.93720200  0.29718400  1
  C  63  1  0.01307400  0.89991100  0.32434300  1
  C  64  1  0.96805200  0.88052500  0.33769700  1
  C  65  1  0.92304200  0.89938600  0.32390500  1
  C  66  1  0.92312200  0.93669100  0.29675300  1
  C  83  1  0.73160200  0.00338600  0.97016200  1
  C  85  1  0.65527400  0.00331300  0.00333400  1
  C  87  1  0.73162200  0.00332900  0.03650600  1
  C  89  1  0.60262400  0.00327700  0.00333500  1
  C  90  1  0.57538200  0.00326700  0.96989900  1
  C  91  1  0.52338600  0.00323500  0.97001500  1
  C  92  1  0.49502700  0.00321200  0.00334000  1
  C  93  1  0.52340700  0.00321900  0.03666100  1
  C  94  1  0.57540400  0.00325000  0.03677200  1
  C  95  1  0.75926000  0.00339500  0.93656500  1
  C  96  1  0.73582000  0.00342000  0.90134800  1
  C  97  1  0.76374000  0.00338200  0.86834400  1
  C  98  1  0.81585300  0.00330400  0.86995500  1
  C  99  1  0.83966000  0.00329500  0.90473800  1
  C  100  1  0.81171900  0.00335100  0.93749800  1
  C  101  1  0.75929900  0.00331000  0.07010200  1
  C  102  1  0.81175600  0.00326200  0.06917000  1
  C  103  1  0.83971600  0.00324200  0.10192800  1
  C  104  1  0.81592800  0.00327700  0.13671000  1
  C  105  1  0.76381600  0.00334200  0.13832200  1
  C  106  1  0.73587800  0.00334500  0.10531700  1
  C  119  1  0.20441500  0.00308800  0.97018800  1
  C  121  1  0.28077000  0.00311000  0.00335100  1
  C  123  1  0.20444800  0.00313600  0.03653100  1
  C  125  1  0.33342100  0.00312900  0.00334800  1
  C  126  1  0.36063700  0.00315300  0.96990800  1
  C  127  1  0.41263400  0.00318000  0.97002000  1
  C  128  1  0.44101500  0.00318400  0.00334200  1
  C  129  1  0.41265900  0.00316000  0.03666700  1
  C  130  1  0.36066300  0.00313400  0.03678400  1
  C  131  1  0.17674800  0.00309600  0.93658600  1
  C  132  1  0.20018200  0.00308900  0.90137500  1
  C  133  1  0.17225600  0.00312200  0.86836400  1
  C  134  1  0.12014600  0.00318900  0.86996400  1
  C  135  1  0.09634200  0.00317600  0.90474100  1
  C  136  1  0.12429000  0.00312800  0.93750800  1
  C  137  1  0.17681100  0.00319400  0.07013800  1
  C  138  1  0.12435200  0.00329900  0.06922800  1
  C  139  1  0.09643800  0.00339000  0.10200300  1
  C  140  1  0.12027600  0.00336900  0.13677300  1
  C  141  1  0.17238800  0.00322400  0.13836100  1
  C  142  1  0.20028000  0.00315900  0.10534500  1
  C  155  1  0.96783800  0.23976700  0.47015100  1
  C  157  1  0.96776200  0.31608900  0.50333100  1
  C  159  1  0.96777400  0.23973700  0.53649500  1
  C  161  1  0.96776300  0.36874000  0.50333700  1
  C  162  1  0.96777200  0.39598500  0.46989800  1
  C  163  1  0.96781800  0.44798100  0.47001800  1
  C  164  1  0.96786000  0.47633200  0.50334200  1
  C  165  1  0.96782800  0.44795500  0.53666400  1
  C  166  1  0.96778100  0.39595900  0.53677500  1
  C  167  1  0.96789700  0.21213000  0.43654300  1
  C  168  1  0.96795000  0.23559100  0.40133400  1
  C  169  1  0.96799500  0.20769200  0.36832100  1
  C  170  1  0.96797600  0.15558100  0.36991400  1
  C  171  1  0.96793100  0.13175300  0.40468700  1
  C  172  1  0.96789900  0.15967100  0.43745900  1
  C  173  1  0.96777200  0.21206200  0.57009400  1
  C  174  1  0.96768500  0.15960400  0.56916900  1
  C  175  1  0.96768100  0.13165200  0.60193300  1
  C  176  1  0.96777800  0.15544900  0.63671200  1
  C  177  1  0.96789400  0.20755900  0.63831600  1
  C  178  1  0.96787200  0.23548900  0.60530800  1
  C  191  1  0.96802900  0.76693400  0.47017300  1
  C  193  1  0.96805100  0.69059100  0.50335100  1
  C  195  1  0.96805400  0.76692400  0.53651400  1
  C  197  1  0.96803600  0.63794000  0.50334800  1
  C  198  1  0.96800800  0.61072200  0.46991000  1
  C  199  1  0.96795600  0.55872500  0.47002300  1
  C  200  1  0.96793000  0.53034800  0.50334500  1
  C  201  1  0.96797900  0.55870300  0.53666900  1
  C  202  1  0.96802900  0.61069900  0.53678600  1
  C  203  1  0.96801300  0.79460200  0.43657100  1
  C  204  1  0.96796800  0.77117200  0.40135900  1
  C  205  1  0.96796300  0.79910100  0.36835100  1
  C  206  1  0.96802600  0.85121200  0.36995300  1
  C  207  1  0.96805400  0.87501000  0.40473200  1
  C  208  1  0.96804400  0.84706000  0.43749800  1
  C  209  1  0.96805500  0.79458700  0.57011000  1
  C  210  1  0.96810400  0.84704500  0.56917200  1
  C  211  1  0.96811100  0.87499100  0.60193000  1
  C  212  1  0.96806000  0.85118700  0.63671500  1
  C  213  1  0.96798900  0.79907500  0.63833000  1
  C  214  1  0.96799900  0.77115100  0.60532800  1
  C  227  1  0.70882400  0.90417100  0.58570200  1
  C  228  1  0.75387500  0.88542100  0.59951900  1
  C  229  1  0.75387900  0.84810100  0.62666200  1
  C  230  1  0.70895600  0.82936200  0.64127900  1
  C  231  1  0.66397900  0.84745300  0.62628200  1
  C  232  1  0.66385400  0.88467800  0.59907200  1
  C  234  1  0.70903300  0.73331700  0.64125700  1
  C  235  1  0.66408900  0.71460800  0.62664200  1
  C  236  1  0.66407100  0.67737400  0.59944900  1
  C  237  1  0.70910200  0.65852100  0.58569600  1
  C  238  1  0.75409300  0.67791900  0.59911400  1
  C  239  1  0.75399000  0.71520700  0.62626200  1
  C  240  1  0.75705500  0.78129600  0.69888600  1
  C  241  1  0.66100300  0.78127600  0.69890000  1
  C  242  1  0.64284200  0.73631900  0.71387600  1
  C  243  1  0.60559800  0.73623200  0.74105900  1
  C  244  1  0.58619200  0.78122600  0.75443200  1
  C  245  1  0.60502200  0.82627100  0.74066100  1
  C  246  1  0.64233400  0.82622700  0.71352500  1
  C  247  1  0.77525000  0.82623400  0.71386800  1
  C  248  1  0.81254100  0.82628500  0.74102900  1
  C  249  1  0.83187500  0.78125200  0.75443100  1
  C  250  1  0.81302600  0.73624100  0.74064500  1
  C  251  1  0.77571600  0.73632500  0.71349600  1
  C  268  1  0.83203900  0.78143200  0.08577700  1
  C  269  1  0.81324900  0.73641000  0.09960500  1
  C  270  1  0.77594800  0.73647900  0.12674500  1
  C  271  1  0.75719200  0.78143800  0.14129500  1
  C  272  1  0.77538900  0.82638000  0.12631000  1
  C  273  1  0.81264600  0.82644700  0.09913300  1
  C  275  1  0.66117100  0.78140800  0.14122300  1
  C  276  1  0.64242100  0.82633900  0.12660700  1
  C  277  1  0.60515700  0.82635000  0.09942500  1
  C  278  1  0.58628300  0.78131300  0.08569400  1
  C  279  1  0.60568400  0.73632800  0.09912200  1
  C  280  1  0.64300200  0.73644600  0.12626300  1
  C  281  1  0.70912200  0.73344600  0.19891800  1
  C  282  1  0.70908700  0.82946700  0.19888200  1
  C  283  1  0.66411900  0.84763800  0.21382600  1
  C  284  1  0.66398600  0.88493200  0.24096900  1
  C  285  1  0.70897400  0.90432100  0.25437800  1
  C  286  1  0.75403100  0.88547200  0.24067800  1
  C  287  1  0.75402000  0.84820400  0.21350700  1
  C  288  1  0.75405300  0.71523300  0.21391500  1
  C  289  1  0.75410900  0.67794200  0.24107400  1
  C  290  1  0.70908700  0.65855600  0.25442800  1
  C  291  1  0.66407700  0.67741700  0.24063600  1
  C  292  1  0.66415700  0.71472200  0.21348400  1
  C  309  1  0.47263700  0.78141700  0.88689300  1
  C  311  1  0.39630900  0.78134400  0.92006450  1
  C  313  1  0.47265700  0.78136000  0.95323650  1
  C  315  1  0.34365900  0.78130800  0.92006550  1
  C  316  1  0.31641700  0.78129800  0.88663000  1
  C  317  1  0.26442100  0.78126600  0.88674600  1
  C  318  1  0.23606200  0.78124300  0.92007050  1
  C  319  1  0.26444200  0.78125000  0.95339150  1
  C  320  1  0.31643900  0.78128100  0.95350250  1
  C  321  1  0.50029500  0.78142600  0.85329600  1
  C  322  1  0.47685500  0.78145100  0.81807900  1
  C  323  1  0.50477500  0.78141300  0.78507500  1
  C  324  1  0.55688800  0.78133500  0.78668600  1
  C  325  1  0.58069500  0.78132600  0.82146900  1
  C  326  1  0.55275400  0.78138200  0.85422900  1
  C  327  1  0.50033400  0.78134100  0.98683250  1
  C  328  1  0.55279100  0.78129300  0.98590050  1
  C  329  1  0.58075100  0.78127300  0.01865900  1
  C  330  1  0.55696300  0.78130800  0.05344100  1
  C  331  1  0.50485100  0.78137300  0.05505300  1
  C  332  1  0.47691300  0.78137600  0.02204800  1
  C  345  1  0.94545020  0.78111900  0.88691900  1
  C  347  1  0.02180500  0.78114100  0.92008150  1
  C  349  1  0.94548320  0.78116700  0.95326150  1
  C  351  1  0.07445600  0.78116000  0.92007850  1
  C  352  1  0.10167200  0.78118400  0.88663900  1
  C  353  1  0.15366900  0.78121100  0.88675100  1
  C  354  1  0.18205000  0.78121500  0.92007250  1
  C  355  1  0.15369400  0.78119100  0.95339750  1
  C  356  1  0.10169800  0.78116500  0.95351450  1
  C  357  1  0.91778320  0.78112700  0.85331700  1
  C  358  1  0.94121720  0.78112000  0.81810600  1
  C  359  1  0.91329120  0.78115300  0.78509500  1
  C  360  1  0.86118100  0.78122000  0.78669500  1
  C  361  1  0.83737700  0.78120700  0.82147200  1
  C  362  1  0.86532500  0.78115900  0.85423900  1
  C  363  1  0.91784620  0.78122500  0.98686850  1
  C  364  1  0.86538700  0.78133000  0.98595850  1
  C  365  1  0.83747300  0.78142100  0.01873400  1
  C  366  1  0.86131100  0.78140000  0.05350400  1
  C  367  1  0.91342320  0.78125500  0.05509200  1
  C  368  1  0.94131520  0.78119000  0.02207600  1
  C  381  1  0.70887300  0.01779800  0.38688200  1
  C  383  1  0.70879700  0.09412000  0.42006200  1
  C  385  1  0.70880900  0.01776800  0.45322600  1
  C  387  1  0.70879800  0.14677100  0.42006800  1
  C  388  1  0.70880700  0.17401600  0.38662900  1
  C  389  1  0.70885300  0.22601200  0.38674900  1
  C  390  1  0.70889500  0.25436300  0.42007300  1
  C  391  1  0.70886300  0.22598600  0.45339500  1
  C  392  1  0.70881600  0.17399000  0.45350600  1
  C  393  1  0.70893200  0.99016099  0.35327400  1
  C  394  1  0.70898500  0.01362200  0.31806500  1
  C  395  1  0.70903000  0.98572300  0.28505200  1
  C  396  1  0.70901100  0.93361200  0.28664500  1
  C  397  1  0.70896600  0.90978400  0.32141800  1
  C  398  1  0.70893400  0.93770200  0.35419000  1
  C  399  1  0.70880700  0.99009299  0.48682500  1
  C  400  1  0.70872000  0.93763500  0.48590000  1
  C  401  1  0.70871600  0.90968300  0.51866400  1
  C  402  1  0.70881300  0.93348000  0.55344300  1
  C  403  1  0.70892900  0.98559000  0.55504700  1
  C  404  1  0.70890700  0.01352000  0.52203900  1
  C  417  1  0.70906400  0.54496500  0.38690400  1
  C  419  1  0.70908600  0.46862200  0.42008200  1
  C  421  1  0.70908900  0.54495500  0.45324500  1
  C  423  1  0.70907100  0.41597100  0.42007900  1
  C  424  1  0.70904300  0.38875300  0.38664100  1
  C  425  1  0.70899100  0.33675600  0.38675400  1
  C  426  1  0.70896500  0.30837900  0.42007600  1
  C  427  1  0.70901400  0.33673400  0.45340000  1
  C  428  1  0.70906400  0.38873000  0.45351700  1
  C  429  1  0.70904800  0.57263300  0.35330200  1
  C  430  1  0.70900300  0.54920300  0.31809000  1
  C  431  1  0.70899800  0.57713200  0.28508200  1
  C  432  1  0.70906100  0.62924300  0.28668400  1
  C  433  1  0.70908900  0.65304100  0.32146300  1
  C  434  1  0.70907900  0.62509100  0.35422900  1
  C  435  1  0.70909000  0.57261800  0.48684100  1
  C  436  1  0.70913900  0.62507600  0.48590300  1
  C  437  1  0.70914600  0.65302200  0.51866100  1
  C  438  1  0.70909500  0.62921800  0.55344600  1
  C  439  1  0.70902400  0.57710600  0.55506100  1
  C  440  1  0.70903400  0.54918200  0.52205900  1
  N  84  1  0.68137700  0.00335200  0.97100700  1
  N  86  1  0.68139600  0.00330200  0.03565900  1
  N  88  1  0.75523200  0.00336900  0.00333300  1
  N  120  1  0.25464400  0.00309000  0.97102900  1
  N  122  1  0.25467200  0.00313500  0.03567900  1
  N  124  1  0.18080600  0.00311500  0.00336200  1
  N  156  1  0.96781000  0.28999500  0.47100300  1
  N  158  1  0.96775000  0.28996100  0.53565400  1
  N  160  1  0.96781900  0.21612900  0.50332000  1
  N  192  1  0.96803500  0.71670900  0.47102300  1
  N  194  1  0.96805800  0.71669800  0.53567300  1
  N  196  1  0.96803900  0.79054900  0.50334200  1
  N  310  1  0.42241200  0.78138300  0.88773800  1
  N  312  1  0.42243100  0.78133300  0.95238950  1
  N  314  1  0.49626700  0.78140000  0.92006350  1
  N  346  1  0.99567919  0.78112100  0.88776000  1
  N  348  1  0.99570719  0.78116600  0.95240950  1
  N  350  1  0.92184120  0.78114600  0.92009250  1
  N  382  1  0.70884500  0.06802600  0.38773400  1
  N  384  1  0.70878500  0.06799200  0.45238500  1
  N  386  1  0.70885400  0.99415999  0.42005100  1
  N  418  1  0.70907000  0.49474000  0.38775400  1
  N  420  1  0.70909300  0.49472900  0.45240400  1
  N  422  1  0.70907400  0.56858000  0.42007300  1
