# generated using pymatgen
data_VH18C18O5
_symmetry_space_group_name_H-M   'P 1'
_cell_length_a   7.13683000
_cell_length_b   17.71284000
_cell_length_c   19.15119000
_cell_angle_alpha   70.85892000
_cell_angle_beta   90.03396000
_cell_angle_gamma   90.08592000
_symmetry_Int_Tables_number   1
_chemical_formula_structural   VH18C18O5
_chemical_formula_sum   'V4 H72 C72 O20'
_cell_volume   2287.12133310
_cell_formula_units_Z   4
loop_
 _symmetry_equiv_pos_site_id
 _symmetry_equiv_pos_as_xyz
  1  'x, y, z'
loop_
 _atom_site_type_symbol
 _atom_site_label
 _atom_site_symmetry_multiplicity
 _atom_site_fract_x
 _atom_site_fract_y
 _atom_site_fract_z
 _atom_site_occupancy
  V  V0  1  0.93607000  0.49056000  0.50162000  1
  V  V1  1  0.43607000  0.50944000  0.49838000  1
  V  V2  1  0.29285000  0.00944000  0.99838000  1
  V  V3  1  0.79285000  0.99056000  0.00162000  1
  H  H4  1  0.41978000  0.66473000  0.90177000  1
  H  H5  1  0.92557000  0.33365000  0.10006000  1
  H  H6  1  0.44617000  0.59226000  0.81694000  1
  H  H7  1  0.95216000  0.40586000  0.18512000  1
  H  H8  1  0.35574000  0.56877000  0.70389000  1
  H  H9  1  0.86100000  0.42935000  0.29817000  1
  H  H10  1  0.92632000  0.70807000  0.56611000  1
  H  H11  1  0.42341000  0.29249000  0.43320000  1
  H  H12  1  0.76732000  0.90432000  0.67914000  1
  H  H13  1  0.26629000  0.09547000  0.32058000  1
  H  H14  1  0.05399000  0.88157000  0.26093000  1
  H  H15  1  0.53557000  0.11811000  0.74008000  1
  H  H16  1  0.84079000  0.83845000  0.24174000  1
  H  H17  1  0.33195000  0.16657000  0.76007000  1
  H  H18  1  0.87721000  0.73205000  0.34779000  1
  H  H19  1  0.37435000  0.26882000  0.65117000  1
  H  H20  1  0.08727000  0.77553000  0.36831000  1
  H  H21  1  0.58201000  0.22284000  0.63243000  1
  H  H22  1  0.37166000  0.84695000  0.21215000  1
  H  H23  1  0.86419000  0.14938000  0.78431000  1
  H  H24  1  0.39394000  0.74862000  0.32255000  1
  H  H25  1  0.88964000  0.24912000  0.67495000  1
  H  H26  1  0.06478000  0.72382000  0.12955000  1
  H  H27  1  0.59255000  0.27959000  0.86766000  1
  H  H28  1  0.84992000  0.74362000  0.16638000  1
  H  H29  1  0.36522000  0.25893000  0.84010000  1
  H  H30  1  0.88498000  0.64454000  0.27348000  1
  H  H31  1  0.38362000  0.35172000  0.72824000  1
  H  H32  1  0.37394000  0.77672000  0.16314000  1
  H  H33  1  0.88049000  0.21865000  0.83415000  1
  H  H34  1  0.42607000  0.67859000  0.27558000  1
  H  H35  1  0.93026000  0.31667000  0.72353000  1
  H  H36  1  0.13675000  0.04068000  0.72357000  1
  H  H37  1  0.00434000  0.00579000  0.65984000  1
  H  H38  1  0.91812000  0.08776000  0.68618000  1
  H  H39  1  0.73907000  0.96678000  0.75807000  1
  H  H40  1  0.88140000  0.00325000  0.81375000  1
  H  H41  1  0.63457000  0.95938000  0.27668000  1
  H  H42  1  0.49933000  0.99303000  0.34042000  1
  H  H43  1  0.41546000  0.91151000  0.31261000  1
  H  H44  1  0.23747000  0.03333000  0.24134000  1
  H  H45  1  0.37968000  0.99667000  0.18588000  1
  H  H46  1  0.20014000  0.61227000  0.12409000  1
  H  H47  1  0.36837000  0.63481000  0.18451000  1
  H  H48  1  0.32495000  0.53345000  0.19013000  1
  H  H49  1  0.14725000  0.53929000  0.29113000  1
  H  H50  1  0.98103000  0.55534000  0.21905000  1
  H  H51  1  0.84241000  0.36504000  0.82591000  1
  H  H52  1  0.89275000  0.43592000  0.73470000  1
  H  H53  1  0.81305000  0.47053000  0.80703000  1
  H  H54  1  0.57198000  0.46807000  0.70737000  1
  H  H55  1  0.50231000  0.42893000  0.80165000  1
  H  H56  1  0.58832000  0.76333000  0.92121000  1
  H  H57  1  0.52076000  0.86014000  0.92248000  1
  H  H58  1  0.57427000  0.78186000  0.00789000  1
  H  H59  1  0.23648000  0.79250000  0.00294000  1
  H  H60  1  0.29173000  0.70353000  0.98821000  1
  H  H61  1  0.09201000  0.23459000  0.08108000  1
  H  H62  1  0.02241000  0.13816000  0.07922000  1
  H  H63  1  0.07895000  0.21649000  0.99418000  1
  H  H64  1  0.74075000  0.20700000  0.99788000  1
  H  H65  1  0.79765000  0.29566000  0.01298000  1
  H  H66  1  0.61015000  0.71278000  0.60834000  1
  H  H67  1  0.48827000  0.78234000  0.64329000  1
  H  H68  1  0.47462000  0.79285000  0.54656000  1
  H  H69  1  0.68713000  0.89362000  0.56766000  1
  H  H70  1  0.81175000  0.83063000  0.52932000  1
  H  H71  1  0.10786000  0.28620000  0.39097000  1
  H  H72  1  0.98706000  0.21569000  0.35667000  1
  H  H73  1  0.97353000  0.20589000  0.45325000  1
  H  H74  1  0.18771000  0.10561000  0.43251000  1
  H  H75  1  0.31095000  0.16939000  0.47052000  1
  C  C76  1  0.65460000  0.38279000  0.61510000  1
  C  C77  1  0.15468000  0.61701000  0.38468000  1
  C  C78  1  0.65514000  0.41473000  0.41949000  1
  C  C79  1  0.15528000  0.58512000  0.58067000  1
  C  C80  1  0.98302000  0.89046000  0.80022000  1
  C  C81  1  0.48289000  0.10926000  0.19982000  1
  C  C82  1  0.08342000  0.86630000  0.86846000  1
  C  C83  1  0.58422000  0.13338000  0.13181000  1
  C  C84  1  0.19811000  0.79648000  0.88783000  1
  C  C85  1  0.70062000  0.20282000  0.11294000  1
  C  C86  1  0.21261000  0.75163000  0.83842000  1
  C  C87  1  0.71542000  0.24747000  0.16252000  1
  C  C88  1  0.10248000  0.77280000  0.77312000  1
  C  C89  1  0.60389000  0.22656000  0.22742000  1
  C  C90  1  0.98303000  0.84003000  0.75544000  1
  C  C91  1  0.48324000  0.15958000  0.24471000  1
  C  C92  1  0.33354000  0.68498000  0.85297000  1
  C  C93  1  0.83806000  0.31366000  0.14853000  1
  C  C94  1  0.34930000  0.64206000  0.80413000  1
  C  C95  1  0.85396000  0.35644000  0.19749000  1
  C  C96  1  0.24049000  0.66199000  0.74026000  1
  C  C97  1  0.74335000  0.33694000  0.26084000  1
  C  C98  1  0.11321000  0.72650000  0.72484000  1
  C  C99  1  0.61445000  0.27288000  0.27571000  1
  C  C100  1  0.99791000  0.74446000  0.66112000  1
  C  C101  1  0.49765000  0.25528000  0.33896000  1
  C  C102  1  0.87109000  0.80922000  0.64586000  1
  C  C103  1  0.37049000  0.19049000  0.35406000  1
  C  C104  1  0.86654000  0.85577000  0.69261000  1
  C  C105  1  0.36602000  0.14394000  0.30730000  1
  C  C106  1  0.25736000  0.61779000  0.69187000  1
  C  C107  1  0.76016000  0.38109000  0.30931000  1
  C  C108  1  0.14374000  0.63470000  0.62926000  1
  C  C109  1  0.64375000  0.36501000  0.37104000  1
  C  C110  1  0.01312000  0.69696000  0.61468000  1
  C  C111  1  0.51183000  0.30312000  0.38514000  1
  C  C112  1  0.99281000  0.82694000  0.25337000  1
  C  C113  1  0.48432000  0.17438000  0.74736000  1
  C  C114  1  0.01801000  0.75482000  0.32572000  1
  C  C115  1  0.51375000  0.24517000  0.67411000  1
  C  C116  1  0.30131000  0.79261000  0.20779000  1
  C  C117  1  0.80099000  0.20436000  0.79001000  1
  C  C118  1  0.00227000  0.73400000  0.17859000  1
  C  C119  1  0.51453000  0.26720000  0.82237000  1
  C  C120  1  0.08919000  0.81058000  0.18727000  1
  C  C121  1  0.58970000  0.18928000  0.81260000  1
  C  C122  1  0.13590000  0.68663000  0.31210000  1
  C  C123  1  0.63557000  0.31273000  0.68717000  1
  C  C124  1  0.32736000  0.72414000  0.28190000  1
  C  C125  1  0.82672000  0.27333000  0.71641000  1
  C  C126  1  0.02903000  0.66098000  0.25104000  1
  C  C127  1  0.53063000  0.33851000  0.74830000  1
  C  C128  1  0.57361000  0.08448000  0.08151000  1
  C  C129  1  0.07340000  0.91545000  0.91854000  1
  C  C130  1  0.56865000  0.11803000  0.88402000  1
  C  C131  1  0.06852000  0.88202000  0.11601000  1
  C  C132  1  0.88794000  0.97260000  0.77219000  1
  C  C133  1  0.99332000  0.02979000  0.70635000  1
  C  C134  1  0.38636000  0.02727000  0.22750000  1
  C  C135  1  0.49038000  0.96969000  0.29343000  1
  C  C136  1  0.10150000  0.58344000  0.23802000  1
  C  C137  1  0.25824000  0.59253000  0.18099000  1
  C  C138  1  0.59489000  0.41770000  0.75939000  1
  C  C139  1  0.79825000  0.42141000  0.78330000  1
  C  C140  1  0.30246000  0.76925000  0.96171000  1
  C  C141  1  0.50848000  0.79517000  0.95260000  1
  C  C142  1  0.80663000  0.22987000  0.03943000  1
  C  C143  1  0.01197000  0.20322000  0.04924000  1
  C  C144  1  0.73847000  0.83132000  0.58020000  1
  C  C145  1  0.56790000  0.77614000  0.59568000  1
  C  C146  1  0.23795000  0.16815000  0.41972000  1
  C  C147  1  0.06655000  0.22263000  0.40406000  1
  O  O148  1  0.49423000  0.43967000  0.43769000  1
  O  O149  1  0.99423000  0.56033000  0.56231000  1
  O  O150  1  0.83085000  0.40533000  0.58835000  1
  O  O151  1  0.33085000  0.59467000  0.41165000  1
  O  O152  1  0.82439000  0.43001000  0.43986000  1
  O  O153  1  0.32439000  0.56999000  0.56014000  1
  O  O154  1  0.98790000  0.58520000  0.41276000  1
  O  O155  1  0.48790000  0.41480000  0.58724000  1
  O  O156  1  0.65858000  0.55089000  0.49128000  1
  O  O157  1  0.15858000  0.44911000  0.50872000  1
  O  O158  1  0.72818000  0.08523000  0.91278000  1
  O  O159  1  0.22818000  0.91477000  0.08722000  1
  O  O160  1  0.40446000  0.06999000  0.06014000  1
  O  O161  1  0.90446000  0.93001000  0.93986000  1
  O  O162  1  0.39807000  0.09468000  0.91166000  1
  O  O163  1  0.89807000  0.90532000  0.08834000  1
  O  O164  1  0.23459000  0.93966000  0.93769000  1
  O  O165  1  0.73459000  0.06034000  0.06231000  1
  O  O166  1  0.57037000  0.94913000  0.00873000  1
  O  O167  1  0.07037000  0.05087000  0.99127000  1
