# generated using pymatgen
data_H8C15N4
_symmetry_space_group_name_H-M   'P 1'
_cell_length_a   9.91526667
_cell_length_b   55.68705000
_cell_length_c   55.68700000
_cell_angle_alpha   119.99991090
_cell_angle_beta   90.00000000
_cell_angle_gamma   90.00000000
_symmetry_Int_Tables_number   1
_chemical_formula_structural   H8C15N4
_chemical_formula_sum   'H144 C270 N72'
_cell_volume   26628.30081076
_cell_formula_units_Z   18
loop_
 _symmetry_equiv_pos_site_id
 _symmetry_equiv_pos_as_xyz
  1  'x, y, z'
loop_
 _atom_site_type_symbol
 _atom_site_label
 _atom_site_symmetry_multiplicity
 _atom_site_fract_x
 _atom_site_fract_y
 _atom_site_fract_z
 _atom_site_occupancy
  C  1  1  0.98682300  0.85040000  0.09852400  1
  C  3  1  0.98638000  0.85041300  0.14104300  1
  C  5  1  0.98457300  0.89291000  0.14102300  1
  C  7  1  0.98681900  0.24327900  0.14106400  1
  C  9  1  0.98636400  0.28578700  0.14105200  1
  C  11  1  0.98457000  0.24326600  0.09855400  1
  C  13  1  0.98681900  0.89293300  0.74819000  1
  C  15  1  0.98640000  0.85041300  0.70568400  1
  C  17  1  0.98456900  0.85043500  0.74820400  1
  C  19  1  0.98681300  0.14067200  0.89332500  1
  C  21  1  0.98639900  0.14066000  0.85080500  1
  C  23  1  0.98456500  0.09816300  0.85082600  1
  C  25  1  0.98680700  0.74779200  0.85078700  1
  C  27  1  0.98638100  0.70528600  0.85080100  1
  C  29  1  0.98457000  0.74780400  0.89329700  1
  C  31  1  0.98680300  0.09813900  0.24366300  1
  C  33  1  0.98635500  0.14066000  0.28616900  1
  C  35  1  0.98455500  0.14063700  0.24365000  1
  C  37  1  0.98305100  0.70553500  0.24385100  1
  C  39  1  0.98724500  0.74793600  0.24379200  1
  C  41  1  0.98492700  0.74800800  0.28626800  1
  C  43  1  0.98309200  0.53347100  0.28591700  1
  C  45  1  0.98722200  0.49101500  0.24351000  1
  C  47  1  0.98510900  0.53342700  0.24345000  1
  C  49  1  0.98294100  0.74758400  0.45800500  1
  C  51  1  0.98731900  0.74763300  0.50045800  1
  C  53  1  0.98489700  0.70516100  0.45804600  1
  C  55  1  0.98295100  0.28553400  0.74799900  1
  C  57  1  0.98735600  0.24312500  0.74804200  1
  C  59  1  0.98495800  0.24307000  0.70557400  1
  C  61  1  0.98287000  0.45761400  0.70591600  1
  C  63  1  0.98732300  0.50006100  0.74833000  1
  C  65  1  0.98522100  0.45764000  0.74837300  1
  C  67  1  0.98311300  0.24344100  0.53383400  1
  C  69  1  0.98735300  0.24342300  0.49139300  1
  C  71  1  0.98534100  0.28587900  0.53382200  1
  C  73  1  0.98907100  0.76255400  0.22908700  1
  C  74  1  0.11005500  0.77043000  0.22114600  1
  C  76  1  0.98431800  0.79182000  0.19970500  1
  C  77  1  0.86081500  0.78439500  0.20720300  1
  C  78  1  0.86494000  0.76976000  0.22187000  1
  C  80  1  0.98355500  0.80649900  0.18499300  1
  C  81  1  0.10474000  0.82792500  0.16338700  1
  C  82  1  0.98419700  0.83578500  0.15568300  1
  C  83  1  0.86085600  0.82854400  0.16308500  1
  C  85  1  0.85887000  0.81386000  0.17774400  1
  C  86  1  0.73673900  0.80637500  0.18530700  1
  C  87  1  0.73769700  0.79178100  0.19987700  1
  C  92  1  0.24804400  0.76454300  0.22700400  1
  C  96  1  0.98903400  0.46169300  0.22888800  1
  C  97  1  0.11002400  0.44587400  0.22101300  1
  C  99  1  0.98429100  0.40304300  0.19962800  1
  C  100  1  0.86078400  0.41796600  0.20705100  1
  C  101  1  0.86490500  0.44726700  0.22168400  1
  C  103  1  0.98353100  0.37365100  0.18495200  1
  C  104  1  0.10471900  0.33062000  0.16353400  1
  C  105  1  0.98417600  0.31505400  0.15567600  1
  C  106  1  0.86083500  0.32969700  0.16291600  1
  C  108  1  0.85884900  0.35904100  0.17759600  1
  C  109  1  0.73671400  0.37408800  0.18507800  1
  C  110  1  0.73767100  0.40325300  0.19966800  1
  C  115  1  0.24801300  0.45761900  0.22690000  1
  C  119  1  0.98914500  0.76233300  0.52978100  1
  C  120  1  0.11012600  0.77027900  0.54560000  1
  C  122  1  0.98438300  0.79172700  0.58843100  1
  C  123  1  0.86087700  0.78422500  0.57350500  1
  C  124  1  0.86501200  0.76955400  0.54420300  1
  C  126  1  0.98360700  0.80644700  0.61782100  1
  C  127  1  0.10477900  0.82806400  0.66085600  1
  C  128  1  0.98423100  0.83577100  0.67641700  1
  C  129  1  0.86089200  0.82836300  0.66177300  1
  C  131  1  0.85891900  0.81369800  0.63242900  1
  C  132  1  0.73679100  0.80613100  0.61738100  1
  C  133  1  0.73775900  0.79155200  0.58821400  1
  C  138  1  0.24811500  0.76442300  0.53385500  1
  C  142  1  0.98917500  0.22850200  0.76274100  1
  C  143  1  0.11015500  0.22062400  0.77068400  1
  C  145  1  0.98440300  0.19924000  0.79213000  1
  C  146  1  0.86090100  0.20666600  0.78463000  1
  C  147  1  0.86504100  0.22130100  0.76996400  1
  C  149  1  0.98362500  0.18456300  0.80684500  1
  C  150  1  0.10478400  0.16313900  0.82845600  1
  C  151  1  0.98423200  0.15528600  0.83616300  1
  C  152  1  0.86089700  0.16252800  0.82875900  1
  C  154  1  0.85893000  0.17720800  0.81409600  1
  C  155  1  0.73680600  0.18469400  0.80653100  1
  C  156  1  0.73777800  0.19928600  0.79195800  1
  C  161  1  0.24814500  0.22650900  0.76482500  1
  C  165  1  0.98913200  0.52938200  0.76295800  1
  C  166  1  0.11011600  0.54520100  0.77084500  1
  C  168  1  0.98436300  0.58803200  0.79222400  1
  C  169  1  0.86086100  0.57310700  0.78478800  1
  C  170  1  0.86500000  0.54380400  0.77014900  1
  C  172  1  0.98358700  0.61742300  0.80690000  1
  C  173  1  0.10475900  0.66045600  0.82832800  1
  C  174  1  0.98420700  0.67601700  0.83617600  1
  C  175  1  0.86087100  0.66137300  0.82892900  1
  C  177  1  0.85889900  0.63203000  0.81424800  1
  C  178  1  0.73677300  0.61697900  0.80675600  1
  C  179  1  0.73774200  0.58781500  0.79216400  1
  C  184  1  0.24810500  0.53345800  0.76496200  1
  C  188  1  0.98914100  0.22873800  0.46207300  1
  C  189  1  0.11011700  0.22079800  0.44625200  1
  C  191  1  0.98435200  0.19934800  0.40342400  1
  C  192  1  0.86085700  0.20684300  0.41835000  1
  C  193  1  0.86500100  0.22151100  0.44765300  1
  C  195  1  0.98357100  0.18462900  0.37403200  1
  C  196  1  0.10473600  0.16301600  0.33099800  1
  C  197  1  0.98418100  0.15530400  0.31543700  1
  C  198  1  0.86084700  0.16270600  0.33008300  1
  C  200  1  0.85888000  0.17737300  0.35942700  1
  C  201  1  0.73675600  0.18493500  0.37447800  1
  C  202  1  0.73773300  0.19951100  0.40364200  1
  C  207  1  0.24811500  0.22665600  0.45799200  1
  C  211  1  0.98320300  0.76248800  0.92262500  1
  C  212  1  0.86236800  0.77042800  0.93849500  1
  C  214  1  0.98847900  0.79185100  0.98127600  1
  C  215  1  0.11185900  0.78438100  0.96631100  1
  C  216  1  0.10746300  0.76971400  0.93700700  1
  C  218  1  0.98944100  0.80654000  0.01066600  1
  C  219  1  0.86846100  0.82803000  0.05371800  1
  C  220  1  0.98908100  0.83577700  0.06925700  1
  C  221  1  0.11236400  0.82847200  0.05459100  1
  C  223  1  0.11420900  0.81383100  0.02524500  1
  C  224  1  0.23623200  0.80631500  0.01015700  1
  C  225  1  0.23506900  0.79174100  0.98099000  1
  C  230  1  0.72424000  0.76459200  0.92681800  1
  C  234  1  0.98319200  0.15528200  0.22896600  1
  C  235  1  0.86235800  0.16321300  0.22102700  1
  C  237  1  0.98847000  0.18457300  0.19960500  1
  C  238  1  0.11185000  0.17707400  0.20707200  1
  C  239  1  0.10745200  0.16243600  0.22173800  1
  C  241  1  0.98943400  0.19927600  0.18492000  1
  C  242  1  0.86846000  0.22084400  0.16343500  1
  C  243  1  0.98907800  0.22863500  0.15568600  1
  C  244  1  0.11235900  0.22127400  0.16299200  1
  C  246  1  0.11419900  0.20656400  0.17762900  1
  C  247  1  0.23622400  0.19898900  0.18514300  1
  C  248  1  0.23506300  0.18439400  0.19971300  1
  C  253  1  0.72422900  0.15737300  0.22686400  1
  C  257  1  0.98319300  0.06883400  0.83618200  1
  C  258  1  0.86235900  0.05296300  0.82825100  1
  C  260  1  0.98847000  0.01018200  0.80689200  1
  C  261  1  0.11185000  0.02514700  0.81438800  1
  C  262  1  0.10745300  0.05445200  0.82902500  1
  C  264  1  0.98943400  0.98079100  0.79219000  1
  C  265  1  0.86845500  0.93773800  0.77062500  1
  C  266  1  0.98907400  0.92219900  0.76283300  1
  C  267  1  0.11235800  0.93686500  0.77019400  1
  C  269  1  0.11419900  0.96621300  0.78490000  1
  C  270  1  0.23622300  0.98130100  0.79247400  1
  C  271  1  0.23506300  0.01046900  0.80706900  1
  C  276  1  0.72423700  0.06464100  0.83409200  1
  C  280  1  0.98320200  0.22858400  0.06922600  1
  C  281  1  0.86236800  0.22064300  0.05335600  1
  C  283  1  0.98847300  0.19922000  0.01057300  1
  C  284  1  0.11185400  0.20668800  0.02553700  1
  C  285  1  0.10746200  0.22135700  0.05484300  1
  C  287  1  0.98943400  0.18453200  0.98118400  1
  C  288  1  0.86845400  0.16304400  0.93813100  1
  C  289  1  0.98907100  0.15529600  0.92259200  1
  C  290  1  0.11235500  0.16260000  0.93725800  1
  C  292  1  0.11419900  0.17724000  0.96660500  1
  C  293  1  0.23622400  0.18475500  0.98169300  1
  C  294  1  0.23506400  0.19932800  0.01086000  1
  C  299  1  0.72424000  0.22648000  0.06503400  1
  C  303  1  0.98319800  0.83578900  0.76288600  1
  C  304  1  0.86236000  0.82785800  0.77082400  1
  C  306  1  0.98847000  0.80649800  0.79224600  1
  C  307  1  0.11185000  0.81399500  0.78477800  1
  C  308  1  0.10745700  0.82863200  0.77011100  1
  C  310  1  0.98943000  0.79179400  0.80693100  1
  C  311  1  0.86845000  0.77022700  0.82841700  1
  C  312  1  0.98906700  0.76243400  0.83616200  1
  C  313  1  0.11235300  0.76979600  0.82885900  1
  C  315  1  0.11419500  0.78450500  0.81422100  1
  C  316  1  0.23622300  0.79207900  0.80670800  1
  C  317  1  0.23506300  0.80667400  0.79213800  1
  C  322  1  0.72423800  0.83369800  0.76498800  1
  C  326  1  0.98320200  0.92223800  0.15566900  1
  C  327  1  0.86236500  0.93810700  0.16360000  1
  C  329  1  0.98847300  0.98089000  0.18496000  1
  C  330  1  0.11185100  0.96592600  0.17746400  1
  C  331  1  0.10746200  0.93662100  0.16282500  1
  C  333  1  0.98943000  0.01028100  0.19966400  1
  C  334  1  0.86844900  0.05333300  0.22122900  1
  C  335  1  0.98906400  0.06887200  0.22902100  1
  C  336  1  0.11235000  0.05420700  0.22166000  1
  C  338  1  0.11419500  0.02486100  0.20695300  1
  C  339  1  0.23622300  0.00977300  0.19937900  1
  C  340  1  0.23506300  0.98060500  0.18478300  1
  C  345  1  0.72423900  0.92643100  0.15775900  1
  C  349  1  0.98319200  0.76003100  0.44132700  1
  C  350  1  0.86280300  0.76224200  0.42869500  1
  C  352  1  0.98996900  0.76627200  0.39404500  1
  C  353  1  0.11309100  0.76467400  0.40617600  1
  C  354  1  0.10790100  0.76162700  0.42985900  1
  C  356  1  0.99084300  0.76638000  0.36869800  1
  C  357  1  0.86851200  0.76263900  0.32992000  1
  C  358  1  0.98855100  0.76046300  0.31533000  1
  C  359  1  0.11235400  0.76175600  0.32851300  1
  C  361  1  0.11525000  0.76477600  0.35527300  1
  C  362  1  0.23741500  0.76409500  0.36794500  1
  C  363  1  0.23635500  0.76407700  0.39319000  1
  C  368  1  0.72448000  0.75980600  0.43729100  1
  C  372  1  0.98339000  0.67640800  0.23141800  1
  C  373  1  0.86293800  0.66159000  0.22922000  1
  C  375  1  0.99013700  0.62290100  0.22517100  1
  C  376  1  0.11328200  0.63661200  0.22672900  1
  C  377  1  0.10811900  0.66334400  0.22977900  1
  C  379  1  0.99102100  0.59745000  0.22507600  1
  C  380  1  0.86857300  0.56240100  0.22879000  1
  C  381  1  0.98871500  0.55004500  0.23099700  1
  C  382  1  0.11259600  0.56189400  0.22970100  1
  C  384  1  0.11545500  0.58561800  0.22665400  1
  C  385  1  0.23761600  0.59895700  0.22730400  1
  C  386  1  0.23654500  0.62421600  0.22731200  1
  C  391  1  0.72462200  0.67263000  0.23167700  1
  C  395  1  0.98340300  0.55015600  0.31504500  1
  C  396  1  0.86292300  0.56274700  0.32986500  1
  C  398  1  0.99003600  0.59738800  0.36857200  1
  C  399  1  0.11320700  0.58526700  0.35485100  1
  C  400  1  0.10811700  0.56157800  0.32811800  1
  C  402  1  0.99085900  0.62273800  0.39402800  1
  C  403  1  0.86837100  0.66149700  0.42906500  1
  C  404  1  0.98841500  0.67609300  0.44143600  1
  C  405  1  0.11232500  0.66293400  0.42960000  1
  C  407  1  0.11524800  0.63617700  0.40585400  1
  C  408  1  0.23743500  0.62351500  0.39250600  1
  C  409  1  0.23643400  0.59826900  0.36724500  1
  C  414  1  0.72462200  0.55415600  0.31881700  1
  C  418  1  0.98305700  0.23096400  0.55048400  1
  C  419  1  0.86273100  0.22876500  0.56313200  1
  C  421  1  0.98990400  0.22474900  0.59778800  1
  C  422  1  0.11301900  0.22636900  0.58566400  1
  C  423  1  0.10780500  0.22939300  0.56196400  1
  C  425  1  0.99083300  0.22466600  0.62314700  1
  C  426  1  0.86843600  0.22835100  0.66190200  1
  C  427  1  0.98850300  0.23061600  0.67650700  1
  C  428  1  0.11237000  0.22936100  0.66336400  1
  C  430  1  0.11523800  0.22632300  0.63659700  1
  C  431  1  0.23738300  0.22702100  0.62392600  1
  C  432  1  0.23630000  0.22699500  0.59865900  1
  C  437  1  0.72443100  0.23122500  0.55454400  1
  C  441  1  0.98302100  0.31467000  0.76046000  1
  C  442  1  0.86266700  0.32949200  0.76264300  1
  C  444  1  0.99007700  0.36815700  0.76668200  1
  C  445  1  0.11315700  0.35440400  0.76507400  1
  C  446  1  0.10787100  0.32766000  0.76200400  1
  C  448  1  0.99110100  0.39360900  0.76678300  1
  C  449  1  0.86895500  0.42866300  0.76303200  1
  C  450  1  0.98911100  0.44102700  0.76082100  1
  C  451  1  0.11283800  0.42915200  0.76216300  1
  C  453  1  0.11557300  0.40540800  0.76517600  1
  C  454  1  0.23768100  0.39204800  0.76452300  1
  C  455  1  0.23649000  0.36678400  0.76450200  1
  C  460  1  0.72434400  0.31845800  0.76018800  1
  C  464  1  0.98277100  0.44095600  0.67678400  1
  C  465  1  0.86250000  0.42828300  0.66194200  1
  C  467  1  0.98989800  0.39364000  0.62329900  1
  C  468  1  0.11295900  0.40579000  0.63705600  1
  C  469  1  0.10761000  0.42947100  0.66378900  1
  C  471  1  0.99096300  0.36828600  0.59785100  1
  C  472  1  0.86871400  0.32950900  0.56275900  1
  C  473  1  0.98891700  0.31495100  0.55045300  1
  C  474  1  0.11272800  0.32809500  0.56234900  1
  C  476  1  0.11545500  0.35487200  0.58606500  1
  C  477  1  0.23752400  0.36756600  0.59945200  1
  C  478  1  0.23631300  0.39283400  0.62469100  1
  C  483  1  0.72417800  0.43686400  0.67297400  1
  H  79  1  0.77629800  0.76431000  0.22737200  1
  H  88  1  0.64606500  0.81148400  0.18026600  1
  H  89  1  0.64769100  0.78661100  0.20510800  1
  H  90  1  0.77183100  0.83399100  0.15773100  1
  H  91  1  0.19660900  0.83268600  0.15852000  1
  H  93  1  0.24903300  0.75324800  0.23831900  1
  H  94  1  0.30207200  0.78402400  0.23935600  1
  H  95  1  0.30192500  0.75215700  0.20751000  1
  H  102  1  0.77626100  0.45821900  0.22713500  1
  H  111  1  0.64604100  0.36393800  0.17997100  1
  H  112  1  0.64766000  0.41365400  0.20483800  1
  H  113  1  0.77181100  0.31889700  0.15747200  1
  H  114  1  0.19658900  0.32099300  0.15877400  1
  H  116  1  0.24900200  0.48022800  0.23819100  1
  H  117  1  0.30204200  0.45048800  0.20741900  1
  H  118  1  0.30188500  0.45051500  0.23928900  1
  H  125  1  0.77637100  0.76404900  0.53325100  1
  H  134  1  0.64611600  0.81117400  0.62752900  1
  H  135  1  0.64775600  0.78631900  0.57781400  1
  H  136  1  0.77186300  0.83371900  0.67257200  1
  H  137  1  0.19664800  0.83293400  0.67048500  1
  H  139  1  0.24910700  0.75310300  0.51124700  1
  H  140  1  0.30215600  0.75207600  0.54098900  1
  H  141  1  0.30198500  0.78391700  0.54095800  1
  H  148  1  0.77640100  0.22675200  0.76446200  1
  H  157  1  0.64612700  0.17958900  0.81157600  1
  H  158  1  0.64778000  0.20445700  0.78672800  1
  H  159  1  0.77186700  0.15708300  0.83411300  1
  H  160  1  0.19664900  0.15837600  0.83332200  1
  H  162  1  0.24914200  0.23780200  0.75351000  1
  H  163  1  0.30217200  0.20702700  0.75247400  1
  H  164  1  0.30202700  0.23889500  0.78431900  1
  H  171  1  0.77636000  0.53285200  0.76469200  1
  H  180  1  0.64609500  0.62712800  0.81185600  1
  H  181  1  0.64774000  0.57741300  0.78698500  1
  H  182  1  0.77184200  0.67217200  0.83436700  1
  H  183  1  0.19662800  0.67008400  0.83309300  1
  H  185  1  0.24910300  0.51085000  0.75366500  1
  H  186  1  0.30211200  0.54058600  0.78444700  1
  H  187  1  0.30200600  0.54057000  0.75258100  1
  H  194  1  0.77636700  0.22700800  0.45860500  1
  H  203  1  0.64607600  0.17988700  0.36432900  1
  H  204  1  0.64773200  0.20473900  0.41404400  1
  H  205  1  0.77181600  0.15734700  0.31928400  1
  H  206  1  0.19659900  0.15815100  0.32136800  1
  H  208  1  0.24912300  0.23797200  0.48060100  1
  H  209  1  0.30213800  0.23900500  0.45086000  1
  H  210  1  0.30199100  0.20716100  0.45088500  1
  H  217  1  0.19600300  0.76422400  0.92602200  1
  H  226  1  0.32697300  0.81138100  0.02028100  1
  H  227  1  0.32500500  0.78653900  0.97056500  1
  H  228  1  0.20143400  0.83386300  0.06537500  1
  H  229  1  0.77663100  0.83284300  0.06336200  1
  H  231  1  0.72297900  0.75327900  0.90421200  1
  H  232  1  0.67039800  0.78409700  0.93395400  1
  H  233  1  0.67034100  0.75224900  0.93397400  1
  H  240  1  0.19599200  0.15694000  0.22722800  1
  H  249  1  0.32696700  0.20404600  0.18007500  1
  H  250  1  0.32499500  0.17916800  0.20491300  1
  H  251  1  0.20142900  0.22666300  0.15759800  1
  H  252  1  0.77662700  0.22567700  0.15862400  1
  H  254  1  0.72296800  0.14607900  0.23817600  1
  H  255  1  0.67038300  0.14500600  0.20735900  1
  H  256  1  0.67033300  0.17687300  0.23920900  1
  H  263  1  0.19599300  0.06543700  0.83452100  1
  H  272  1  0.32696300  0.97117600  0.78741500  1
  H  273  1  0.32499500  0.02089400  0.81229100  1
  H  274  1  0.20142800  0.92608300  0.76480300  1
  H  275  1  0.77662300  0.92809500  0.76579500  1
  H  277  1  0.72297300  0.08724700  0.84538700  1
  H  278  1  0.67039300  0.05750500  0.84646200  1
  H  279  1  0.67033200  0.05748400  0.81459300  1
  H  286  1  0.19600200  0.22684500  0.06582800  1
  H  295  1  0.32696300  0.17968700  0.97156800  1
  H  296  1  0.32499600  0.20453000  0.02128500  1
  H  297  1  0.20142300  0.15720900  0.92647500  1
  H  298  1  0.77662300  0.15823200  0.92848700  1
  H  300  1  0.72297900  0.23779300  0.08764000  1
  H  301  1  0.67040100  0.20697500  0.05789800  1
  H  302  1  0.67033800  0.23882300  0.05787700  1
  H  309  1  0.19599800  0.83413000  0.76462400  1
  H  318  1  0.32696200  0.78702000  0.81177300  1
  H  319  1  0.32499500  0.81189800  0.78693600  1
  H  320  1  0.20141900  0.76440400  0.83425000  1
  H  321  1  0.77661800  0.76539400  0.83322700  1
  H  323  1  0.72297800  0.84499400  0.75367800  1
  H  324  1  0.67039200  0.84606700  0.78449400  1
  H  325  1  0.67034100  0.81420000  0.75264400  1
  H  332  1  0.19600300  0.92563600  0.15732900  1
  H  341  1  0.32696200  0.01989800  0.20443700  1
  H  342  1  0.32499600  0.97017900  0.17955800  1
  H  343  1  0.20141800  0.06499100  0.22705100  1
  H  344  1  0.77661300  0.06297600  0.22606100  1
  H  346  1  0.72297900  0.90382500  0.14646400  1
  H  347  1  0.67039300  0.93356800  0.14539200  1
  H  348  1  0.67034200  0.93358400  0.17725800  1
  H  355  1  0.19581600  0.75831000  0.43747600  1
  H  364  1  0.32781000  0.76251000  0.35837700  1
  H  365  1  0.32601300  0.76247700  0.40140200  1
  H  366  1  0.20065200  0.75827700  0.31767700  1
  H  367  1  0.77641100  0.76009100  0.32067500  1
  H  369  1  0.72284100  0.75829700  0.45607300  1
  H  370  1  0.67583900  0.74138200  0.42068500  1
  H  371  1  0.66592500  0.77802900  0.44128300  1
  H  378  1  0.19602800  0.67427600  0.23308300  1
  H  387  1  0.32802100  0.59097100  0.22887800  1
  H  388  1  0.32620600  0.63401700  0.22889100  1
  H  389  1  0.20090000  0.55450200  0.23313300  1
  H  390  1  0.77648700  0.55575400  0.23141200  1
  H  392  1  0.72297300  0.69292000  0.23318300  1
  H  393  1  0.67605200  0.67445400  0.25011000  1
  H  394  1  0.66599600  0.65840200  0.21346600  1
  H  401  1  0.19604400  0.55401100  0.31717700  1
  H  410  1  0.32779900  0.63310300  0.40048200  1
  H  411  1  0.32609500  0.59007700  0.35742500  1
  H  412  1  0.20059300  0.67379200  0.43692100  1
  H  413  1  0.77625500  0.67075400  0.43569900  1
  H  415  1  0.72301400  0.53538500  0.29851800  1
  H  416  1  0.67600000  0.57077300  0.31701200  1
  H  417  1  0.66602500  0.55014800  0.33303100  1
  H  424  1  0.19573000  0.23276300  0.55439200  1
  H  433  1  0.32776000  0.22867000  0.63352300  1
  H  434  1  0.32591400  0.22866900  0.59048400  1
  H  435  1  0.20067300  0.23287700  0.67420600  1
  H  436  1  0.77632400  0.23093700  0.67115100  1
  H  438  1  0.72283600  0.23273800  0.53576300  1
  H  439  1  0.67584900  0.24965600  0.57115700  1
  H  440  1  0.66580300  0.21301100  0.55055300  1
  H  447  1  0.19578100  0.31673500  0.75873200  1
  H  456  1  0.32810200  0.39998300  0.76287600  1
  H  457  1  0.32608000  0.35692500  0.76283200  1
  H  458  1  0.20117100  0.43645200  0.75862700  1
  H  459  1  0.77687500  0.43531300  0.76041100  1
  H  461  1  0.72270000  0.29816800  0.75867800  1
  H  462  1  0.67577800  0.31664000  0.74175600  1
  H  463  1  0.66573800  0.33268800  0.77840300  1
  H  470  1  0.19552900  0.43712700  0.67471100  1
  H  479  1  0.32796600  0.35800200  0.59150700  1
  H  480  1  0.32588400  0.40103000  0.63455400  1
  H  481  1  0.20108100  0.31727800  0.55499700  1
  H  482  1  0.77665300  0.32024200  0.55608000  1
  H  484  1  0.72254000  0.45565200  0.69326100  1
  H  485  1  0.67561500  0.42025600  0.67480200  1
  H  486  1  0.66556700  0.44084100  0.65873900  1
  N  2  1  0.98718500  0.83649400  0.11283100  1
  N  4  1  0.98463600  0.87862100  0.15494700  1
  N  6  1  0.98579400  0.87860800  0.11281200  1
  N  8  1  0.98717100  0.27149200  0.15497000  1
  N  10  1  0.98462500  0.27148000  0.11284200  1
  N  12  1  0.98579500  0.22936000  0.11285600  1
  N  14  1  0.98719800  0.87862500  0.71997800  1
  N  16  1  0.98465000  0.83651000  0.71999000  1
  N  18  1  0.98577900  0.87864600  0.76211100  1
  N  20  1  0.98719500  0.15457700  0.87901700  1
  N  22  1  0.98464600  0.11245100  0.83690200  1
  N  24  1  0.98577500  0.11246500  0.87903800  1
  N  26  1  0.98717700  0.71957900  0.83688200  1
  N  28  1  0.98464200  0.71959100  0.87900900  1
  N  30  1  0.98577900  0.76171200  0.87899500  1
  N  32  1  0.98716100  0.11244700  0.27187600  1
  N  34  1  0.98461600  0.15456300  0.27186300  1
  N  36  1  0.98577500  0.11242600  0.22974200  1
  N  38  1  0.98542100  0.71964300  0.22975600  1
  N  40  1  0.98751800  0.76203200  0.27208900  1
  N  42  1  0.98322400  0.71996200  0.27189700  1
  N  44  1  0.98539100  0.50526700  0.27180200  1
  N  46  1  0.98757800  0.50522400  0.22942000  1
  N  48  1  0.98335500  0.54709600  0.27149700  1
  N  50  1  0.98541200  0.76167300  0.48620600  1
  N  52  1  0.98755500  0.71933500  0.48625000  1
  N  54  1  0.98311300  0.71953800  0.44437800  1
  N  56  1  0.98539300  0.27141700  0.76208500  1
  N  58  1  0.98763300  0.22903900  0.71974600  1
  N  60  1  0.98313800  0.27111600  0.71995200  1
  N  62  1  0.98519900  0.48581700  0.72004000  1
  N  64  1  0.98786100  0.48584300  0.76241000  1
  N  66  1  0.98326400  0.44397800  0.72032900  1
  N  68  1  0.98537300  0.22936900  0.50563100  1
  N  70  1  0.98781100  0.27172200  0.50561900  1
  N  72  1  0.98344500  0.27148800  0.54747800  1
  N  75  1  0.10157300  0.78450300  0.20701100  1
  N  84  1  0.10034200  0.81385700  0.17749600  1
  N  98  1  0.10154200  0.41766600  0.20694400  1
  N  107  1  0.10031700  0.35879600  0.17759700  1
  N  121  1  0.10163900  0.78442000  0.57380800  1
  N  130  1  0.10039200  0.81394800  0.63267700  1
  N  144  1  0.10166300  0.20655300  0.78482000  1
  N  153  1  0.10040200  0.17720500  0.81434400  1
  N  167  1  0.10162300  0.57340900  0.78491600  1
  N  176  1  0.10037100  0.63227800  0.81426300  1
  N  190  1  0.10161800  0.20665900  0.41804300  1
  N  199  1  0.10035200  0.17713200  0.35917500  1
  N  213  1  0.87110400  0.78454500  0.96669700  1
  N  222  1  0.87272700  0.81396200  0.02554300  1
  N  236  1  0.87109400  0.17730000  0.20691100  1
  N  245  1  0.87272100  0.20673300  0.17749900  1
  N  259  1  0.87109700  0.02476200  0.81416700  1
  N  268  1  0.87272100  0.96591500  0.78473500  1
  N  282  1  0.87110300  0.20652600  0.02515300  1
  N  291  1  0.87272100  0.17710900  0.96630600  1
  N  305  1  0.87109800  0.81377100  0.78493900  1
  N  314  1  0.87271700  0.78433600  0.81435000  1
  N  328  1  0.87109800  0.96631100  0.17768700  1
  N  337  1  0.87271600  0.02515700  0.20712000  1
  N  351  1  0.87217300  0.76513200  0.40589400  1
  N  360  1  0.87365500  0.76527300  0.35548400  1
  N  374  1  0.87232800  0.63589900  0.22633400  1
  N  383  1  0.87379600  0.58535100  0.22619000  1
  N  397  1  0.87226700  0.58554000  0.35556500  1
  N  406  1  0.87363000  0.63594100  0.40612400  1
  N  420  1  0.87210600  0.22588400  0.58593800  1
  N  429  1  0.87363500  0.22573600  0.63634600  1
  N  443  1  0.87220200  0.35518100  0.76552700  1
  N  452  1  0.87398900  0.40572700  0.76565900  1
  N  466  1  0.87201100  0.40546800  0.63626100  1
  N  475  1  0.87381700  0.35506400  0.58570800  1
