# generated using pymatgen
data_ErH3(C3O2)3
_symmetry_space_group_name_H-M   'P 1'
_cell_length_a   10.45434000
_cell_length_b   10.46707000
_cell_length_c   19.79915000
_cell_angle_alpha   77.70630000
_cell_angle_beta   77.97440000
_cell_angle_gamma   65.57239000
_symmetry_Int_Tables_number   1
_chemical_formula_structural   ErH3(C3O2)3
_chemical_formula_sum   'Er4 H12 C36 O24'
_cell_volume   1909.67159405
_cell_formula_units_Z   4
loop_
 _symmetry_equiv_pos_site_id
 _symmetry_equiv_pos_as_xyz
  1  'x, y, z'
loop_
 _atom_site_type_symbol
 _atom_site_label
 _atom_site_symmetry_multiplicity
 _atom_site_fract_x
 _atom_site_fract_y
 _atom_site_fract_z
 _atom_site_occupancy
  Er  Er0  1  0.74054000  0.43132000  0.90756000  1
  Er  Er1  1  0.56525000  0.25699000  0.59424000  1
  Er  Er2  1  0.25942000  0.56870000  0.09245000  1
  Er  Er3  1  0.43478000  0.74300000  0.40577000  1
  H  H4  1  0.70871000  0.81340000  0.72261000  1
  H  H5  1  0.61902000  0.82216000  0.51849000  1
  H  H6  1  0.68362000  0.44581000  0.67205000  1
  H  H7  1  0.18259000  0.28419000  0.77958000  1
  H  H8  1  0.17604000  0.37292000  0.98338000  1
  H  H9  1  0.54782000  0.31804000  0.82927000  1
  H  H10  1  0.29193000  0.18623000  0.27754000  1
  H  H11  1  0.38167000  0.17811000  0.48152000  1
  H  H12  1  0.31615000  0.55450000  0.32796000  1
  H  H13  1  0.81763000  0.71555000  0.22049000  1
  H  H14  1  0.82417000  0.62701000  0.01666000  1
  H  H15  1  0.45223000  0.68213000  0.17080000  1
  C  C16  1  0.71102000  0.55264000  0.77749000  1
  C  C17  1  0.65642000  0.98003000  0.59998000  1
  C  C18  1  0.63576000  0.54693000  0.53742000  1
  C  C19  1  0.69609000  0.62295000  0.70452000  1
  C  C20  1  0.69356000  0.76034000  0.68508000  1
  C  C21  1  0.66687000  0.83096000  0.61785000  1
  C  C22  1  0.64475000  0.76385000  0.56968000  1
  C  C23  1  0.65539000  0.62272000  0.58818000  1
  C  C24  1  0.67999000  0.55310000  0.65592000  1
  C  C25  1  0.44232000  0.28591000  0.72418000  1
  C  C26  1  0.01806000  0.33320000  0.90265000  1
  C  C27  1  0.44846000  0.36300000  0.96350000  1
  C  C28  1  0.37211000  0.30083000  0.79705000  1
  C  C29  1  0.23572000  0.30057000  0.81679000  1
  C  C30  1  0.16614000  0.32554000  0.88415000  1
  C  C31  1  0.23311000  0.34894000  0.93203000  1
  C  C32  1  0.37296000  0.34155000  0.91319000  1
  C  C33  1  0.44161000  0.31869000  0.84541000  1
  C  C34  1  0.28885000  0.44732000  0.22251000  1
  C  C35  1  0.34430000  0.01997000  0.40005000  1
  C  C36  1  0.36462000  0.45321000  0.46250000  1
  C  C37  1  0.30395000  0.37713000  0.29549000  1
  C  C38  1  0.30696000  0.23958000  0.31497000  1
  C  C39  1  0.33385000  0.16904000  0.38219000  1
  C  C40  1  0.35588000  0.23629000  0.43031000  1
  C  C41  1  0.34483000  0.37754000  0.41178000  1
  C  C42  1  0.31995000  0.44714000  0.34407000  1
  C  C43  1  0.55792000  0.71375000  0.27592000  1
  C  C44  1  0.98201000  0.66726000  0.09734000  1
  C  C45  1  0.55172000  0.63702000  0.03653000  1
  C  C46  1  0.62812000  0.69897000  0.20306000  1
  C  C47  1  0.76451000  0.69923000  0.18327000  1
  C  C48  1  0.83407000  0.67448000  0.11588000  1
  C  C49  1  0.76707000  0.65113000  0.06800000  1
  C  C50  1  0.62719000  0.65850000  0.08688000  1
  C  C51  1  0.55849000  0.68141000  0.15466000  1
  O  O52  1  0.73466000  0.61314000  0.82136000  1
  O  O53  1  0.69782000  0.43342000  0.79764000  1
  O  O54  1  0.70212000  0.03044000  0.63933000  1
  O  O55  1  0.59490000  0.06126000  0.54765000  1
  O  O56  1  0.59303000  0.61605000  0.47978000  1
  O  O57  1  0.66379000  0.41352000  0.55402000  1
  O  O58  1  0.38233000  0.26134000  0.68035000  1
  O  O59  1  0.56117000  0.30005000  0.70409000  1
  O  O60  1  0.96612000  0.29086000  0.86255000  1
  O  O61  1  0.93862000  0.38957000  0.95634000  1
  O  O62  1  0.37978000  0.40654000  0.02072000  1
  O  O63  1  0.58157000  0.33612000  0.94687000  1
  O  O64  1  0.26528000  0.38678000  0.17865000  1
  O  O65  1  0.30194000  0.56661000  0.20240000  1
  O  O66  1  0.29829000  0.96965000  0.36078000  1
  O  O67  1  0.40598000  0.93859000  0.45229000  1
  O  O68  1  0.40799000  0.38368000  0.51994000  1
  O  O69  1  0.33621000  0.58670000  0.44611000  1
  O  O70  1  0.61804000  0.73812000  0.31976000  1
  O  O71  1  0.43877000  0.70012000  0.29586000  1
  O  O72  1  0.03392000  0.70897000  0.13772000  1
  O  O73  1  0.06131000  0.61201000  0.04335000  1
  O  O74  1  0.62047000  0.59362000  0.97927000  1
  O  O75  1  0.41863000  0.66370000  0.05318000  1
