# generated using pymatgen
data_HC2N
_symmetry_space_group_name_H-M   'P 1'
_cell_length_a   11.04253333
_cell_length_b   11.04253333
_cell_length_c   38.25240000
_cell_angle_alpha   90.00000000
_cell_angle_beta   90.00000000
_cell_angle_gamma   90.00000000
_symmetry_Int_Tables_number   1
_chemical_formula_structural   HC2N
_chemical_formula_sum   'H24 C48 N24'
_cell_volume   4664.40364758
_cell_formula_units_Z   24
loop_
 _symmetry_equiv_pos_site_id
 _symmetry_equiv_pos_as_xyz
  1  'x, y, z'
loop_
 _atom_site_type_symbol
 _atom_site_label
 _atom_site_symmetry_multiplicity
 _atom_site_fract_x
 _atom_site_fract_y
 _atom_site_fract_z
 _atom_site_occupancy
  C  1  1  0.48186200  0.00525033  0.05099700  1
  C  2  1  0.48416300  0.11511667  0.06969167  1
  C  3  1  0.49007600  0.11655667  0.10644167  1
  C  4  1  0.49211300  0.00560267  0.12472700  1
  C  5  1  0.48933400  0.89419667  0.10682533  1
  C  6  1  0.48427100  0.89466067  0.06980700  1
  C  13  1  0.95189100  0.48288600  0.55034800  1
  C  14  1  0.84227900  0.48542200  0.56912300  1
  C  15  1  0.84122900  0.48660733  0.60588900  1
  C  16  1  0.95224400  0.48477900  0.62414200  1
  C  17  1  0.06355700  0.48308533  0.60618500  1
  C  18  1  0.06272100  0.48224767  0.56912100  1
  C  25  1  0.47983200  0.94661200  0.96003700  1
  C  26  1  0.47576900  0.05939667  0.94238600  1
  C  27  1  0.47058900  0.06535067  0.90551300  1
  C  28  1  0.47044300  0.95605400  0.88632400  1
  C  29  1  0.47437200  0.84296367  0.90321700  1
  C  30  1  0.47938900  0.83931433  0.94010900  1
  C  37  1  0.01209800  0.48035933  0.45951700  1
  C  38  1  0.12158300  0.48262400  0.44067300  1
  C  39  1  0.12234300  0.48836500  0.40394100  1
  C  40  1  0.01118200  0.49014800  0.38576400  1
  C  41  1  0.90000900  0.48752400  0.40379200  1
  C  42  1  0.90112400  0.48273100  0.44082600  1
  C  49  1  0.50097500  0.58977567  0.14768200  1
  C  51  1  0.50690800  0.38339267  0.16423067  1
  C  53  1  0.51587500  0.53582067  0.20760333  1
  C  55  1  0.50921900  0.56526733  0.24263600  1
  C  56  1  0.49359100  0.67465700  0.12054067  1
  C  57  1  0.50340700  0.26058567  0.15566833  1
  C  61  1  0.36806500  0.48502800  0.64738700  1
  C  63  1  0.57464100  0.48959667  0.66378900  1
  C  65  1  0.42308500  0.48061767  0.70743100  1
  C  67  1  0.39535600  0.46388667  0.74237000  1
  C  68  1  0.28315600  0.48470567  0.62013700  1
  C  69  1  0.69742100  0.49061633  0.65520900  1
  C  73  1  0.46280800  0.53921033  0.86288000  1
  C  75  1  0.45463200  0.33270767  0.84700033  1
  C  77  1  0.44905300  0.48431733  0.80318200  1
  C  79  1  0.45852400  0.51623867  0.76842600  1
  C  80  1  0.47059800  0.62496133  0.88961600  1
  C  81  1  0.45714800  0.21042667  0.85638600  1
  C  85  1  0.59541400  0.49936633  0.36283200  1
  C  87  1  0.38900800  0.50529133  0.34624000  1
  C  89  1  0.54139200  0.51294233  0.30285700  1
  C  91  1  0.57028500  0.50544433  0.26779000  1
  C  92  1  0.68020900  0.49228900  0.39003300  1
  C  93  1  0.26614300  0.50195167  0.35470200  1
  H  7  1  0.49654300  0.00546167  0.15142900  1
  H  8  1  0.48301400  0.81463467  0.05642100  1
  H  9  1  0.48318500  0.19563833  0.05631533  1
  H  19  1  0.95249800  0.48572833  0.65087200  1
  H  20  1  0.14267400  0.48115633  0.55569600  1
  H  21  1  0.76161600  0.48659100  0.55581100  1
  H  31  1  0.46639400  0.95789300  0.85964400  1
  H  32  1  0.48167300  0.75781067  0.95276700  1
  H  33  1  0.47557900  0.13805567  0.95655000  1
  H  43  1  0.01076700  0.49454867  0.35906300  1
  H  44  1  0.82126700  0.48193533  0.45429900  1
  H  45  1  0.20235300  0.48217200  0.45393500  1
  H  58  1  0.50707300  0.19762667  0.17522800  1
  H  59  1  0.48944400  0.64496067  0.09524000  1
  H  60  1  0.44652600  0.62566933  0.24942400  1
  H  70  1  0.76042000  0.48892633  0.67478400  1
  H  71  1  0.31290700  0.48770367  0.59482400  1
  H  72  1  0.33217300  0.40276500  0.74811300  1
  H  82  1  0.45389700  0.14718033  0.83692600  1
  H  83  1  0.47383900  0.59573933  0.91495800  1
  H  84  1  0.52230700  0.57666767  0.76252000  1
  H  94  1  0.20321400  0.50523733  0.33512400  1
  H  95  1  0.65042100  0.48860933  0.41533100  1
  H  96  1  0.63094100  0.44302367  0.26099500  1
  N  10  1  0.47889100  0.01465100  0.01646200  1
  N  11  1  0.49514000  0.22641367  0.12190667  1
  N  12  1  0.49357933  0.79435400  0.12735500  1
  N  22  1  0.94154900  0.48317600  0.51581100  1
  N  23  1  0.73140900  0.48918767  0.62137900  1
  N  24  1  0.16336600  0.48325800  0.62680000  1
  N  34  1  0.48289300  0.93383400  0.99454800  1
  N  35  1  0.46500800  0.17616833  0.89031600  1
  N  36  1  0.47058800  0.74430833  0.88229600  1
  N  46  1  0.02269200  0.47915333  0.49405100  1
  N  47  1  0.23203900  0.49370100  0.38844100  1
  N  48  1  0.79998700  0.49183333  0.38331200  1
  N  50  1  0.50088800  0.47046567  0.13925633  1
  N  52  1  0.51347500  0.41724267  0.19820000  1
  N  54  1  0.50678500  0.62154433  0.18211200  1
  N  62  1  0.48722500  0.48970467  0.63886200  1
  N  64  1  0.54136400  0.48425367  0.69778200  1
  N  66  1  0.33691300  0.47899767  0.68189500  1
  N  74  1  0.46118900  0.42040633  0.87171600  1
  N  76  1  0.44958900  0.36571667  0.81280500  1
  N  78  1  0.45836300  0.57033833  0.82848000  1
  N  86  1  0.47605700  0.49965800  0.37123500  1
  N  88  1  0.42286300  0.51101633  0.31228100  1
  N  90  1  0.62713800  0.50430267  0.32837400  1
