# generated using pymatgen
data_H25(C22N3)2
_symmetry_space_group_name_H-M   'P 1'
_cell_length_a   9.92980000
_cell_length_b   34.15840000
_cell_length_c   34.15870000
_cell_angle_alpha   89.93710000
_cell_angle_beta   90.00000000
_cell_angle_gamma   90.00000000
_symmetry_Int_Tables_number   1
_chemical_formula_structural   H25(C22N3)2
_chemical_formula_sum   'H50 C88 N12'
_cell_volume   11586.14858006
_cell_formula_units_Z   2
loop_
 _symmetry_equiv_pos_site_id
 _symmetry_equiv_pos_as_xyz
  1  'x, y, z'
loop_
 _atom_site_type_symbol
 _atom_site_label
 _atom_site_symmetry_multiplicity
 _atom_site_fract_x
 _atom_site_fract_y
 _atom_site_fract_z
 _atom_site_occupancy
  C  1  1  0.98820700  0.92342500  0.10028300  1
  C  2  1  0.98826000  0.89484900  0.07172100  1
  C  3  1  0.98839400  0.91323800  0.03515100  1
  C  5  1  0.98803700  0.95998900  0.08187900  1
  C  6  1  0.98795100  0.99667300  0.10162500  1
  C  7  1  0.98800500  0.03377700  0.08279300  1
  C  9  1  0.98801500  0.08020800  0.03635300  1
  C  10  1  0.98806200  0.09878600  0.07275900  1
  C  11  1  0.98784600  0.07019600  0.10135700  1
  C  12  1  0.98814800  0.09902600  0.99924600  1
  C  13  1  0.98814800  0.07925300  0.96257300  1
  C  15  1  0.98793500  0.03250600  0.91584700  1
  C  16  1  0.98798600  0.06907100  0.89744200  1
  C  17  1  0.98792700  0.09764400  0.92600300  1
  C  18  1  0.98797700  0.99582800  0.89608800  1
  C  19  1  0.98815900  0.95872800  0.91492000  1
  C  21  1  0.98827600  0.91229700  0.96136700  1
  C  22  1  0.98830000  0.89372300  0.92495200  1
  C  23  1  0.98802500  0.92231400  0.89635300  1
  C  24  1  0.98843900  0.89347200  0.99847400  1
  C  25  1  0.98850100  0.85170200  0.99880600  1
  C  26  1  0.86631300  0.83065600  0.99714300  1
  C  27  1  0.86665400  0.78943800  0.99703300  1
  C  28  1  0.98866900  0.76791600  0.99857900  1
  C  29  1  0.11059600  0.78946000  0.00035300  1
  C  30  1  0.11076900  0.83068400  0.00041900  1
  C  31  1  0.98869200  0.72591700  0.99831500  1
  C  32  1  0.07679100  0.70417200  0.02265500  1
  C  33  1  0.07678900  0.66294600  0.02239900  1
  C  34  1  0.98826700  0.64164300  0.99789500  1
  C  35  1  0.90006900  0.66330600  0.97357200  1
  C  36  1  0.90050200  0.70453500  0.97372700  1
  C  37  1  0.98776500  0.99618600  0.85432000  1
  C  38  1  0.86545500  0.99822200  0.83336300  1
  C  39  1  0.86546700  0.99856200  0.79214500  1
  C  40  1  0.98727100  0.99683700  0.77054300  1
  C  41  1  0.10933800  0.99479100  0.79199800  1
  C  42  1  0.10984100  0.99448500  0.83321800  1
  C  43  1  0.98696000  0.99710100  0.72854700  1
  C  44  1  0.89923500  0.02186800  0.70715400  1
  C  45  1  0.89845900  0.02199100  0.66592900  1
  C  46  1  0.98592200  0.99747800  0.64427800  1
  C  47  1  0.07393000  0.97278400  0.66559400  1
  C  48  1  0.07424100  0.97255300  0.70681900  1
  C  49  1  0.98815800  0.14079300  0.99888100  1
  C  50  1  0.11033700  0.16181600  0.99682400  1
  C  51  1  0.11007200  0.20303900  0.99655900  1
  C  52  1  0.98813800  0.22457100  0.99842000  1
  C  53  1  0.86622200  0.20304700  0.00047300  1
  C  54  1  0.86597000  0.16182800  0.00067000  1
  C  55  1  0.98806700  0.26656600  0.99826000  1
  C  56  1  0.90070400  0.28817100  0.02290100  1
  C  57  1  0.90020200  0.32939700  0.02265900  1
  C  58  1  0.98755200  0.35083800  0.99788100  1
  C  59  1  0.07521700  0.32930900  0.97331100  1
  C  60  1  0.07527900  0.28808100  0.97345300  1
  C  61  1  0.98771300  0.99635700  0.14339600  1
  C  62  1  0.10976200  0.99807900  0.16451000  1
  C  63  1  0.86531700  0.99466500  0.16434700  1
  C  64  1  0.86524500  0.99469300  0.20556600  1
  C  65  1  0.98701800  0.99647700  0.22718400  1
  C  66  1  0.10915800  0.99815200  0.20573200  1
  C  67  1  0.98657800  0.99668200  0.26917900  1
  C  68  1  0.07420300  0.02135000  0.29066300  1
  C  69  1  0.07388000  0.02154000  0.33188800  1
  C  70  1  0.98539000  0.99720000  0.35345300  1
  C  71  1  0.89752200  0.97259500  0.33204400  1
  C  72  1  0.89831800  0.97229400  0.29081900  1
  C  115  1  0.98744200  0.39274900  0.99774700  1
  C  116  1  0.86573900  0.41443900  0.99813300  1
  C  118  1  0.98234600  0.47557800  0.99761500  1
  C  119  1  0.10753600  0.45566200  0.99732400  1
  C  120  1  0.10913500  0.41443900  0.99726600  1
  C  122  1  0.98244800  0.51690600  0.99761400  1
  C  123  1  0.98797500  0.59973200  0.99771900  1
  C  124  1  0.10956000  0.57799200  0.99768400  1
  C  127  1  0.10775500  0.53676900  0.99751300  1
  C  131  1  0.86615000  0.57809800  0.99764300  1
  C  133  1  0.98552800  0.99766000  0.60237000  1
  C  134  1  0.86369400  0.99801100  0.58074100  1
  C  136  1  0.97997000  0.99769800  0.51953900  1
  C  137  1  0.10527000  0.99754600  0.53940200  1
  C  138  1  0.10709400  0.99742900  0.58062200  1
  C  140  1  0.97989100  0.99762800  0.47820500  1
  C  141  1  0.98513700  0.99737000  0.39536600  1
  C  142  1  0.10678200  0.99758700  0.41707900  1
  C  145  1  0.10511900  0.99760400  0.45830100  1
  C  149  1  0.86339200  0.99727900  0.41704100  1
  H  73  1  0.83378200  0.95387500  0.34632500  1
  H  74  1  0.83518400  0.95328800  0.27673300  1
  H  75  1  0.13724400  0.04043400  0.34604000  1
  H  76  1  0.13773700  0.04018200  0.27645600  1
  H  77  1  0.19976400  0.99876900  0.21995600  1
  H  78  1  0.19985200  0.99922900  0.15001200  1
  H  79  1  0.77438700  0.99422000  0.21966600  1
  H  80  1  0.77544500  0.99364200  0.14973100  1
  H  81  1  0.98824900  0.91787700  0.12969000  1
  H  82  1  0.98823900  0.86544500  0.07728400  1
  H  83  1  0.98817700  0.97205200  0.02306000  1
  H  84  1  0.98815600  0.02043900  0.97466300  1
  H  85  1  0.98771500  0.07556800  0.13078500  1
  H  86  1  0.98818000  0.12821400  0.07812000  1
  H  87  1  0.20034600  0.14724800  0.99568000  1
  H  88  1  0.20079600  0.21720800  0.99578900  1
  H  89  1  0.77597700  0.14726900  0.00202100  1
  H  90  1  0.77548400  0.21721400  0.00110400  1
  H  91  1  0.98778400  0.12704500  0.92043600  1
  H  92  1  0.98802500  0.07463100  0.86803800  1
  H  93  1  0.98839800  0.86429600  0.91959000  1
  H  94  1  0.98781700  0.91694700  0.86692700  1
  H  95  1  0.77552600  0.99929600  0.84797800  1
  H  96  1  0.77463900  0.99931700  0.77803100  1
  H  97  1  0.19992500  0.99315100  0.84772900  1
  H  98  1  0.19998600  0.99420500  0.77778000  1
  H  99  1  0.13735400  0.95345700  0.72083500  1
  H  100  1  0.13699200  0.95393900  0.65125500  1
  H  101  1  0.83499300  0.04093500  0.65183000  1
  H  102  1  0.83630100  0.04078800  0.72143400  1
  H  103  1  0.20078200  0.84526000  0.00140400  1
  H  104  1  0.20137500  0.77530700  0.00074600  1
  H  105  1  0.83705600  0.71881900  0.95492800  1
  H  106  1  0.83620000  0.64922800  0.95476000  1
  H  107  1  0.14049600  0.64859300  0.04108000  1
  H  108  1  0.14038700  0.71818100  0.04158900  1
  H  109  1  0.77592800  0.77526200  0.99643800  1
  H  110  1  0.77626100  0.84520700  0.99604800  1
  H  111  1  0.83790300  0.27405800  0.04201200  1
  H  112  1  0.83704800  0.34364800  0.04154400  1
  H  113  1  0.13820100  0.27389700  0.95446000  1
  H  114  1  0.13827100  0.34349000  0.95431300  1
  H  121  1  0.20002400  0.40031700  0.99767700  1
  H  125  1  0.77447700  0.40062100  0.99786700  1
  H  130  1  0.20049900  0.59207700  0.99705700  1
  H  132  1  0.77498000  0.59195400  0.99830700  1
  H  139  1  0.19806100  0.99784100  0.59470000  1
  H  143  1  0.77252300  0.99754300  0.59460300  1
  H  148  1  0.19768900  0.99697500  0.40297800  1
  H  150  1  0.77217100  0.99772700  0.40320500  1
  N  4  1  0.98819800  0.95217200  0.04294800  1
  N  8  1  0.98803700  0.04135300  0.04394000  1
  N  14  1  0.98808600  0.04032000  0.95477600  1
  N  20  1  0.98824000  0.95115000  0.95377600  1
  N  117  1  0.86695700  0.45421300  0.99793400  1
  N  126  1  0.86716800  0.53832400  0.99773900  1
  N  128  1  0.22307500  0.51536000  0.99727300  1
  N  129  1  0.22297500  0.47701800  0.99717700  1
  N  135  1  0.86470100  0.99785900  0.54096200  1
  N  144  1  0.86454100  0.99753100  0.45681700  1
  N  146  1  0.22053800  0.99752800  0.47966300  1
  N  147  1  0.22061100  0.99749300  0.51800500  1
