# generated using pymatgen
data_H32C51
_symmetry_space_group_name_H-M   'P 1'
_cell_length_a   17.27470000
_cell_length_b   17.27470000
_cell_length_c   34.54940000
_cell_angle_alpha   90.00000000
_cell_angle_beta   90.00000000
_cell_angle_gamma   90.00000000
_symmetry_Int_Tables_number   1
_chemical_formula_structural   H32C51
_chemical_formula_sum   'H128 C204'
_cell_volume   10310.06818695
_cell_formula_units_Z   4
loop_
 _symmetry_equiv_pos_site_id
 _symmetry_equiv_pos_as_xyz
  1  'x, y, z'
loop_
 _atom_site_type_symbol
 _atom_site_label
 _atom_site_symmetry_multiplicity
 _atom_site_fract_x
 _atom_site_fract_y
 _atom_site_fract_z
 _atom_site_occupancy
  C  1  1  0.95836200  0.06956400  0.00700100  1
  C  2  1  0.87621300  0.06961100  0.00895400  1
  C  3  1  0.87261800  0.92371600  0.00828300  1
  C  4  1  0.95467500  0.91978800  0.00683800  1
  C  5  1  0.98934700  0.84469900  0.00513000  1
  C  6  1  0.94451000  0.77595600  0.00360700  1
  C  7  1  0.86323400  0.78277900  0.00572900  1
  C  8  1  0.82787100  0.85538500  0.00821100  1
  C  9  1  0.83485500  0.13999900  0.01050300  1
  C  10  1  0.87379300  0.21091700  0.01058400  1
  C  11  1  0.95528200  0.21367800  0.00893100  1
  C  12  1  0.99670200  0.14291700  0.00668400  1
  C  13  1  0.05060600  0.99199000  0.04351700  1
  C  14  1  0.13268600  0.98866700  0.04181000  1
  C  15  1  0.13027900  0.98853900  0.96888300  1
  C  16  1  0.04813100  0.99210500  0.96854400  1
  C  17  1  0.17232300  0.98533200  0.93391000  1
  C  18  1  0.13403600  0.98372900  0.89830300  1
  C  19  1  0.05252800  0.98589100  0.89649400  1
  C  20  1  0.01049600  0.99175200  0.93167500  1
  C  21  1  0.01552500  0.99472200  0.08100600  1
  C  22  1  0.06011200  0.99582800  0.11549600  1
  C  23  1  0.14135800  0.99090700  0.11230100  1
  C  24  1  0.17707500  0.98725400  0.07607400  1
  C  37  1  0.00294800  0.99351800  0.00642600  1
  C  38  1  0.17598600  0.98686000  0.00497900  1
  C  41  1  0.82990800  0.99773200  0.00977000  1
  C  44  1  0.91804000  0.95632200  0.50777200  1
  C  45  1  0.91899800  0.87422800  0.50999800  1
  C  46  1  0.06494700  0.87258900  0.50949400  1
  C  47  1  0.06784700  0.95469200  0.50778100  1
  C  48  1  0.14249900  0.99027000  0.50591400  1
  C  49  1  0.21177300  0.94619400  0.50451900  1
  C  50  1  0.20597700  0.86488400  0.50696100  1
  C  51  1  0.13381600  0.82868100  0.50957500  1
  C  52  1  0.84908100  0.83207300  0.51160100  1
  C  53  1  0.77769900  0.87020100  0.51153800  1
  C  54  1  0.77400600  0.95163600  0.50964700  1
  C  55  1  0.84425600  0.99379000  0.50726000  1
  C  56  1  0.99355500  0.05027000  0.54399300  1
  C  57  1  0.99409600  0.13237300  0.54195500  1
  C  58  1  0.99428200  0.12866500  0.46901300  1
  C  59  1  0.99378100  0.04642900  0.46906200  1
  C  60  1  0.99457100  0.17010500  0.43381100  1
  C  61  1  0.99548300  0.13119200  0.39835700  1
  C  62  1  0.99615800  0.04964700  0.39702000  1
  C  63  1  0.99460000  0.00804200  0.43239300  1
  C  64  1  0.99068700  0.01575100  0.58159700  1
  C  65  1  0.98594000  0.06072600  0.61590400  1
  C  66  1  0.98822700  0.14204000  0.61239000  1
  C  67  1  0.99259700  0.17729100  0.57605100  1
  C  80  1  0.99344800  0.00192900  0.50712400  1
  C  81  1  0.99500600  0.17504800  0.50491800  1
  C  84  1  0.99148000  0.82890700  0.51104500  1
  C  87  1  0.97947400  0.02896300  0.65393100  1
  C  88  1  0.91811800  0.05240800  0.67844600  1
  C  89  1  0.91984900  0.03735500  0.71848500  1
  C  90  1  0.98306600  0.99836600  0.73578800  1
  C  91  1  0.04270400  0.97184400  0.71080300  1
  C  92  1  0.04110700  0.98684900  0.67063400  1
  C  95  1  0.98904300  0.99113800  0.77716000  1
  C  96  1  0.97175200  0.05415700  0.80209300  1
  C  97  1  0.98620900  0.05040000  0.84225600  1
  C  98  1  0.01794600  0.98295300  0.85904300  1
  C  99  1  0.03236700  0.91881300  0.83459400  1
  C  100  1  0.01787600  0.92272600  0.79452700  1
  C  107  1  0.02860400  0.00353800  0.15347400  1
  C  108  1  0.99095300  0.94085700  0.17190000  1
  C  109  1  0.97980400  0.94049200  0.21244500  1
  C  110  1  0.00750600  0.00190600  0.23581400  1
  C  111  1  0.04133800  0.06627600  0.21692900  1
  C  112  1  0.05159600  0.06715800  0.17655800  1
  C  115  1  0.00613700  0.99855400  0.27722200  1
  C  116  1  0.93644000  0.98723100  0.29801400  1
  C  117  1  0.93400300  0.99651600  0.33862600  1
  C  118  1  0.00166200  0.01480900  0.35979200  1
  C  119  1  0.07213000  0.02172000  0.33925400  1
  C  120  1  0.07431200  0.01346600  0.29874900  1
  C  127  1  0.99044400  0.28825400  0.00931500  1
  C  128  1  0.98325400  0.33551600  0.04254400  1
  C  129  1  0.99389100  0.41625900  0.04034000  1
  C  130  1  0.01134700  0.45327200  0.00477400  1
  C  131  1  0.02209600  0.40495300  0.97198300  1
  C  132  1  0.01145400  0.32406000  0.97408400  1
  C  135  1  0.00760500  0.53632400  0.00147700  1
  C  136  1  0.03550000  0.58636700  0.03093500  1
  C  137  1  0.02046900  0.66673900  0.03028200  1
  C  138  1  0.97655900  0.70007100  0.00007000  1
  C  139  1  0.95161800  0.65106300  0.96971700  1
  C  140  1  0.96700500  0.57108000  0.97035000  1
  C  147  1  0.69922000  0.98633400  0.51005800  1
  C  148  1  0.65178900  0.97793400  0.54314700  1
  C  149  1  0.57124900  0.98992000  0.54103700  1
  C  150  1  0.53461100  0.00984800  0.50569700  1
  C  151  1  0.58320000  0.02154700  0.47307700  1
  C  152  1  0.66396600  0.00987700  0.47510600  1
  C  155  1  0.45151800  0.00761100  0.50235900  1
  C  156  1  0.40201700  0.03470900  0.53222700  1
  C  157  1  0.32146600  0.02071400  0.53152900  1
  C  158  1  0.28734200  0.97883200  0.50082200  1
  C  159  1  0.33584600  0.95494700  0.47004300  1
  C  160  1  0.41604500  0.96925100  0.47073500  1
  C  665  1  0.42146800  0.53267000  0.03594510  1
  C  666  1  0.33931900  0.53271700  0.03789810  1
  C  667  1  0.33572400  0.38682200  0.03722710  1
  C  668  1  0.41778100  0.38289400  0.03578210  1
  C  669  1  0.45245300  0.30780500  0.03407410  1
  C  670  1  0.40761600  0.23906200  0.03255110  1
  C  671  1  0.32634000  0.24588500  0.03467310  1
  C  672  1  0.29097700  0.31849100  0.03715510  1
  C  673  1  0.29796100  0.60310500  0.03944710  1
  C  674  1  0.33689900  0.67402300  0.03952810  1
  C  675  1  0.41838800  0.67678400  0.03787510  1
  C  676  1  0.45980800  0.60602300  0.03562810  1
  C  677  1  0.51371200  0.45509600  0.07246110  1
  C  678  1  0.59579200  0.45177300  0.07075410  1
  C  679  1  0.59338500  0.45164500  0.99782700  1
  C  680  1  0.51123700  0.45521100  0.99748800  1
  C  681  1  0.63542900  0.44843800  0.96285400  1
  C  682  1  0.59714200  0.44683500  0.92724700  1
  C  683  1  0.51563400  0.44899700  0.92543800  1
  C  684  1  0.47360200  0.45485800  0.96061900  1
  C  685  1  0.47863100  0.45782800  0.10995000  1
  C  686  1  0.52321800  0.45893400  0.14444000  1
  C  687  1  0.60446400  0.45401300  0.14124500  1
  C  688  1  0.64018100  0.45036000  0.10501800  1
  C  701  1  0.46605400  0.45662400  0.03537010  1
  C  702  1  0.63909200  0.44996600  0.03392310  1
  C  705  1  0.29301400  0.46083800  0.03871410  1
  C  708  1  0.38114600  0.41942800  0.53671600  1
  C  709  1  0.38210400  0.33733400  0.53894200  1
  C  710  1  0.52805300  0.33569500  0.53843800  1
  C  711  1  0.53095300  0.41779800  0.53672500  1
  C  712  1  0.60560500  0.45337600  0.53485800  1
  C  713  1  0.67487900  0.40930000  0.53346300  1
  C  714  1  0.66908300  0.32799000  0.53590500  1
  C  715  1  0.59692200  0.29178700  0.53851900  1
  C  716  1  0.31218700  0.29517900  0.54054500  1
  C  717  1  0.24080500  0.33331867  0.54048200  1
  C  718  1  0.23711200  0.41474200  0.53859100  1
  C  719  1  0.30736200  0.45689600  0.53620400  1
  C  720  1  0.45666100  0.51337600  0.57293700  1
  C  721  1  0.45720200  0.59547900  0.57089900  1
  C  722  1  0.45738800  0.59177100  0.49795700  1
  C  723  1  0.45688700  0.50953500  0.49800600  1
  C  724  1  0.45767700  0.63321100  0.46275500  1
  C  725  1  0.45858900  0.59429800  0.42730100  1
  C  726  1  0.45926400  0.51275300  0.42596400  1
  C  727  1  0.45770600  0.47114800  0.46133700  1
  C  728  1  0.45379300  0.47885700  0.61054100  1
  C  729  1  0.44904600  0.52383200  0.64484800  1
  C  730  1  0.45133300  0.60514600  0.64133400  1
  C  731  1  0.45570300  0.64039700  0.60499500  1
  C  744  1  0.45655400  0.46503500  0.53606800  1
  C  745  1  0.45811200  0.63815400  0.53386200  1
  C  748  1  0.45458600  0.29201300  0.53998900  1
  C  751  1  0.44258000  0.49206900  0.68287500  1
  C  752  1  0.38122400  0.51551400  0.70739000  1
  C  753  1  0.38295500  0.50046100  0.74742900  1
  C  754  1  0.44617200  0.46147200  0.76473200  1
  C  755  1  0.50581000  0.43495000  0.73974700  1
  C  756  1  0.50421300  0.44995500  0.69957800  1
  C  759  1  0.45214900  0.45424400  0.80610400  1
  C  760  1  0.43485800  0.51726300  0.83103700  1
  C  761  1  0.44931500  0.51350600  0.87120000  1
  C  762  1  0.48105200  0.44605900  0.88798700  1
  C  763  1  0.49547300  0.38191900  0.86353800  1
  C  764  1  0.48098200  0.38583200  0.82347100  1
  C  771  1  0.49171000  0.46664400  0.18241800  1
  C  772  1  0.45405900  0.40396300  0.20084400  1
  C  773  1  0.44291000  0.40359800  0.24138900  1
  C  774  1  0.47061200  0.46501200  0.26475800  1
  C  775  1  0.50444400  0.52938200  0.24587300  1
  C  776  1  0.51470200  0.53026400  0.20550200  1
  C  779  1  0.46924300  0.46166000  0.30616600  1
  C  780  1  0.39954600  0.45033700  0.32695800  1
  C  781  1  0.39710900  0.45962200  0.36757000  1
  C  782  1  0.46476800  0.47791500  0.38873600  1
  C  783  1  0.53523600  0.48482600  0.36819800  1
  C  784  1  0.53741800  0.47657200  0.32769300  1
  C  791  1  0.45355000  0.75136000  0.03825910  1
  C  792  1  0.44636000  0.79862200  0.07148810  1
  C  793  1  0.45699700  0.87936500  0.06928410  1
  C  794  1  0.47445300  0.91637800  0.03371810  1
  C  795  1  0.48520200  0.86805900  0.00092706  1
  C  796  1  0.47456000  0.78716600  0.00302806  1
  C  799  1  0.47071100  0.99943000  0.03042110  1
  C  800  1  0.49860600  0.04947250  0.05987910  1
  C  801  1  0.48357500  0.12984450  0.05922610  1
  C  802  1  0.43966500  0.16317650  0.02901410  1
  C  803  1  0.41472400  0.11416850  0.99866100  1
  C  804  1  0.43011100  0.03418550  0.99929400  1
  C  811  1  0.16232550  0.44944000  0.53900200  1
  C  812  1  0.11489450  0.44104000  0.57209100  1
  C  813  1  0.03435450  0.45302600  0.56998100  1
  C  814  1  0.99771700  0.47295400  0.53464100  1
  C  815  1  0.04630550  0.48465300  0.50202100  1
  C  816  1  0.12707150  0.47298300  0.50405000  1
  C  819  1  0.91462400  0.47071700  0.53130300  1
  C  820  1  0.86512300  0.49781500  0.56117100  1
  C  821  1  0.78457200  0.48382000  0.56047300  1
  C  822  1  0.75044800  0.44193800  0.52976600  1
  C  823  1  0.79895200  0.41805300  0.49898700  1
  C  824  1  0.87915100  0.43235700  0.49967900  1
  H  25  1  0.17575100  0.99061800  0.13648400  1
  H  26  1  0.23632400  0.98467800  0.07492500  1
  H  27  1  0.23162200  0.98293000  0.93408600  1
  H  28  1  0.16667400  0.98090400  0.87355900  1
  H  29  1  0.95131700  0.99335000  0.93048900  1
  H  30  1  0.95656800  0.99845300  0.08319300  1
  H  31  1  0.04833900  0.84012300  0.00363900  1
  H  32  1  0.82860000  0.73460100  0.00550900  1
  H  33  1  0.76863100  0.85798400  0.00939200  1
  H  34  1  0.05588000  0.14478100  0.00561600  1
  H  35  1  0.77558000  0.14020500  0.01189800  1
  H  36  1  0.84171800  0.26079300  0.01182000  1
  H  39  1  0.21511300  0.03668000  0.00459700  1
  H  40  1  0.21099300  0.93404900  0.00475300  1
  H  42  1  0.79032400  0.99925400  0.98504800  1
  H  43  1  0.79539600  0.99799200  0.03633000  1
  H  68  1  0.98662300  0.17680800  0.63642000  1
  H  69  1  0.99325200  0.23657200  0.57467300  1
  H  70  1  0.99495900  0.22944600  0.43369500  1
  H  71  1  0.99669300  0.16330400  0.37340200  1
  H  72  1  0.99556700  0.94883400  0.43146400  1
  H  73  1  0.98911800  0.95671800  0.58396400  1
  H  74  1  0.14633000  0.04929200  0.50417100  1
  H  75  1  0.25457500  0.83084000  0.50681400  1
  H  76  1  0.13195100  0.76943000  0.51095900  1
  H  77  1  0.84169100  0.05293300  0.50603800  1
  H  78  1  0.84957300  0.77282200  0.51318700  1
  H  79  1  0.72817900  0.83759900  0.51286300  1
  H  82  1  0.94422000  0.21292000  0.50436800  1
  H  83  1  0.04690900  0.21135000  0.50452700  1
  H  85  1  0.99057700  0.78898700  0.48645200  1
  H  86  1  0.99155500  0.79474100  0.53771500  1
  H  93  1  0.09093100  0.94572200  0.72201000  1
  H  94  1  0.08816500  0.97195400  0.65420900  1
  H  101  1  0.95362700  0.10586700  0.79082200  1
  H  102  1  0.97891800  0.09932000  0.85861800  1
  H  103  1  0.05792900  0.86992900  0.84549100  1
  H  104  1  0.87328400  0.08459200  0.66758700  1
  H  105  1  0.03152200  0.87567500  0.77785200  1
  H  106  1  0.87519400  0.05752300  0.73515100  1
  H  113  1  0.06198300  0.11209600  0.23266200  1
  H  114  1  0.08133900  0.11243700  0.16447400  1
  H  121  1  0.88548700  0.97925400  0.28341000  1
  H  122  1  0.88130200  0.99617500  0.35220900  1
  H  123  1  0.12143800  0.03908700  0.35328000  1
  H  124  1  0.97686900  0.89232900  0.15639800  1
  H  125  1  0.12583900  0.02278700  0.28484700  1
  H  126  1  0.95668400  0.89217300  0.22512300  1
  H  133  1  0.03369100  0.42882900  0.94549600  1
  H  134  1  0.01291700  0.29242400  0.94901300  1
  H  141  1  0.06450000  0.56406700  0.05423600  1
  H  142  1  0.03696700  0.69972400  0.05349400  1
  H  143  1  0.91759200  0.67255100  0.94792700  1
  H  144  1  0.96359000  0.31228000  0.06799900  1
  H  145  1  0.94253300  0.53764000  0.94917200  1
  H  146  1  0.98189400  0.44839100  0.06450000  1
  H  153  1  0.55955500  0.03488000  0.44674600  1
  H  154  1  0.69573800  0.01232000  0.45010100  1
  H  161  1  0.42484800  0.06191900  0.55593500  1
  H  162  1  0.28898600  0.03585000  0.55514800  1
  H  163  1  0.31383500  0.92197400  0.44798200  1
  H  164  1  0.67469300  0.95697900  0.56842100  1
  H  165  1  0.44902300  0.94536600  0.44921200  1
  H  166  1  0.53887200  0.97710600  0.56501200  1
  H  689  1  0.63885700  0.45372400  0.16542800  1
  H  690  1  0.69943000  0.44778400  0.10386900  1
  H  691  1  0.69472800  0.44603600  0.96303000  1
  H  692  1  0.62978000  0.44401000  0.90250300  1
  H  693  1  0.41442300  0.45645600  0.95943300  1
  H  694  1  0.41967400  0.46155900  0.11213700  1
  H  695  1  0.51144500  0.30322900  0.03258310  1
  H  696  1  0.29170600  0.19770650  0.03445310  1
  H  697  1  0.23173700  0.32109000  0.03833610  1
  H  698  1  0.51898600  0.60788700  0.03456010  1
  H  699  1  0.23868600  0.60331100  0.04084210  1
  H  700  1  0.30482400  0.72389900  0.04076410  1
  H  703  1  0.67821900  0.49978600  0.03354110  1
  H  704  1  0.67409900  0.39715500  0.03369710  1
  H  706  1  0.25343000  0.46236000  0.01399210  1
  H  707  1  0.25850200  0.46109800  0.06527410  1
  H  732  1  0.44972900  0.63991400  0.66536400  1
  H  733  1  0.45635800  0.69967800  0.60361700  1
  H  734  1  0.45806500  0.69255200  0.46263900  1
  H  735  1  0.45979900  0.62641000  0.40234600  1
  H  736  1  0.45867300  0.41194000  0.46040800  1
  H  737  1  0.45222400  0.41982400  0.61290800  1
  H  738  1  0.60943600  0.51239800  0.53311500  1
  H  739  1  0.71768100  0.29394600  0.53575800  1
  H  740  1  0.59505700  0.23253600  0.53990300  1
  H  741  1  0.30479700  0.51603900  0.53498200  1
  H  742  1  0.31267900  0.23592800  0.54213100  1
  H  743  1  0.19128450  0.30070500  0.54180700  1
  H  746  1  0.40732600  0.67602600  0.53331200  1
  H  747  1  0.51001500  0.67445600  0.53347100  1
  H  749  1  0.45368300  0.25209300  0.51539600  1
  H  750  1  0.45466100  0.25784700  0.56665900  1
  H  757  1  0.55403700  0.40882800  0.75095400  1
  H  758  1  0.55127100  0.43506000  0.68315300  1
  H  765  1  0.41673300  0.56897300  0.81976600  1
  H  766  1  0.44202400  0.56242600  0.88756200  1
  H  767  1  0.52103500  0.33303500  0.87443500  1
  H  768  1  0.33639000  0.54769800  0.69653100  1
  H  769  1  0.49462800  0.33878100  0.80679600  1
  H  770  1  0.33830000  0.52062900  0.76409500  1
  H  777  1  0.52508900  0.57520200  0.26160600  1
  H  778  1  0.54444500  0.57554300  0.19341800  1
  H  785  1  0.34859300  0.44236000  0.31235400  1
  H  786  1  0.34440800  0.45928100  0.38115300  1
  H  787  1  0.58454400  0.50219300  0.38222400  1
  H  788  1  0.43997500  0.35543500  0.18534200  1
  H  789  1  0.58894500  0.48589300  0.31379100  1
  H  790  1  0.41979000  0.35527900  0.25406700  1
  H  797  1  0.49679700  0.89193500  0.97444000  1
  H  798  1  0.47602300  0.75553000  0.97795700  1
  H  805  1  0.52760600  0.02717250  0.08318010  1
  H  806  1  0.50007300  0.16282950  0.08243810  1
  H  807  1  0.38069800  0.13565650  0.97687100  1
  H  808  1  0.42669600  0.77538600  0.09694310  1
  H  809  1  0.40563900  0.00074550  0.97811600  1
  H  810  1  0.44500000  0.91149700  0.09344410  1
  H  817  1  0.02266050  0.49798600  0.47569000  1
  H  818  1  0.15884350  0.47542600  0.47904500  1
  H  825  1  0.88795400  0.52502500  0.58487900  1
  H  826  1  0.75209200  0.49895600  0.58409200  1
  H  827  1  0.77694100  0.38508000  0.47692600  1
  H  828  1  0.13779850  0.42008500  0.59736500  1
  H  829  1  0.91212900  0.40847200  0.47815600  1
  H  830  1  0.00197750  0.44021200  0.59395600  1
