# generated using pymatgen
data_CaH20(C17O4)2
_symmetry_space_group_name_H-M   'P 1'
_cell_length_a   4.71954000
_cell_length_b   10.85377000
_cell_length_c   14.76536126
_cell_angle_alpha   96.60163824
_cell_angle_beta   97.36567610
_cell_angle_gamma   94.64268000
_symmetry_Int_Tables_number   1
_chemical_formula_structural   CaH20(C17O4)2
_chemical_formula_sum   'Ca1 H20 C34 O8'
_cell_volume   741.61523476
_cell_formula_units_Z   1
loop_
 _symmetry_equiv_pos_site_id
 _symmetry_equiv_pos_as_xyz
  1  'x, y, z'
loop_
 _atom_site_type_symbol
 _atom_site_label
 _atom_site_symmetry_multiplicity
 _atom_site_fract_x
 _atom_site_fract_y
 _atom_site_fract_z
 _atom_site_occupancy
  Ca  Ca0  1  0.00000000  0.00000000  0.00000000  1
  H  H1  1  0.59776000  0.72826000  0.51161000  1
  H  H2  1  0.78949000  0.51779000  0.35960000  1
  H  H3  1  0.54075000  0.61679000  0.23142000  1
  H  H4  1  0.51751000  0.79054000  0.38155000  1
  H  H5  1  0.80157000  0.28159000  0.42509000  1
  H  H6  1  0.49245000  0.16738000  0.28341000  1
  H  H7  1  0.09698000  0.30381000  0.11680000  1
  H  H8  1  0.39232000  0.42531000  0.25692000  1
  H  H9  1  0.43207000  0.79608000  0.05681000  1
  H  H10  1  0.26627000  0.88733000  0.25173000  1
  H  H11  1  0.40223000  0.27174000  0.48839000  1
  H  H12  1  0.21050000  0.48220000  0.64040000  1
  H  H13  1  0.45924000  0.38320000  0.76858000  1
  H  H14  1  0.48248000  0.20946000  0.61845000  1
  H  H15  1  0.19842000  0.71841000  0.57491000  1
  H  H16  1  0.50756000  0.83262000  0.71660000  1
  H  H17  1  0.90301000  0.69619000  0.88320000  1
  H  H18  1  0.60768000  0.57469000  0.74308000  1
  H  H19  1  0.56792000  0.20392000  0.94319000  1
  H  H20  1  0.73374000  0.11267000  0.74828000  1
  C  C21  1  0.55949000  0.62730000  0.50416000  1
  C  C22  1  0.34251000  0.56681000  0.43612000  1
  C  C23  1  0.28739000  0.43494000  0.43097000  1
  C  C24  1  0.17805000  0.63959000  0.37391000  1
  C  C25  1  0.89344000  0.59954000  0.33733000  1
  C  C26  1  0.74540000  0.65841000  0.26856000  1
  C  C27  1  0.88829000  0.76024000  0.23616000  1
  C  C28  1  0.31002000  0.74910000  0.34644000  1
  C  C29  1  0.75886000  0.81347000  0.15478000  1
  C  C30  1  0.11235000  0.35963000  0.34975000  1
  C  C31  1  0.86198000  0.28737000  0.35725000  1
  C  C32  1  0.68382000  0.22752000  0.27861000  1
  C  C33  1  0.77474000  0.23351000  0.19155000  1
  C  C34  1  0.03496000  0.29997000  0.18469000  1
  C  C35  1  0.20682000  0.36292000  0.26327000  1
  C  C36  1  0.59862000  0.16772000  0.10691000  1
  C  C37  1  0.16409000  0.80743000  0.27738000  1
  C  C38  1  0.44050000  0.37269000  0.49584000  1
  C  C39  1  0.65749000  0.43319000  0.56388000  1
  C  C40  1  0.71260000  0.56506000  0.56903000  1
  C  C41  1  0.82194000  0.36041000  0.62609000  1
  C  C42  1  0.10655000  0.40046000  0.66267000  1
  C  C43  1  0.25459000  0.34159000  0.73144000  1
  C  C44  1  0.11171000  0.23975000  0.76384000  1
  C  C45  1  0.68999000  0.25089000  0.65357000  1
  C  C46  1  0.24114000  0.18653000  0.84523000  1
  C  C47  1  0.88764000  0.64037000  0.65025000  1
  C  C48  1  0.13801000  0.71263000  0.64275000  1
  C  C49  1  0.31618000  0.77248000  0.72140000  1
  C  C50  1  0.22525000  0.76648000  0.80845000  1
  C  C51  1  0.96505000  0.70003000  0.81532000  1
  C  C52  1  0.79319000  0.63708000  0.73674000  1
  C  C53  1  0.40138000  0.83227000  0.89309000  1
  C  C54  1  0.83591000  0.19257000  0.72262000  1
  O  O55  1  0.35589000  0.11307000  0.11204000  1
  O  O56  1  0.71304000  0.16722000  0.03093000  1
  O  O57  1  0.88763000  0.90144000  0.12433000  1
  O  O58  1  0.50484000  0.75830000  0.11648000  1
  O  O59  1  0.64411000  0.88693000  0.88797000  1
  O  O60  1  0.28696000  0.83278000  0.96907000  1
  O  O61  1  0.11236000  0.09856000  0.87567000  1
  O  O62  1  0.49515000  0.24170000  0.88352000  1
