# generated using pymatgen
data_Cr3H11C28N2O19
_symmetry_space_group_name_H-M   'P 1'
_cell_length_a   10.89084044
_cell_length_b   10.89071872
_cell_length_c   18.61373000
_cell_angle_alpha   90.17151236
_cell_angle_beta   90.17162260
_cell_angle_gamma   61.30175833
_symmetry_Int_Tables_number   1
_chemical_formula_structural   Cr3H11C28N2O19
_chemical_formula_sum   'Cr6 H22 C56 N4 O38'
_cell_volume   1936.54672785
_cell_formula_units_Z   2
loop_
 _symmetry_equiv_pos_site_id
 _symmetry_equiv_pos_as_xyz
  1  'x, y, z'
loop_
 _atom_site_type_symbol
 _atom_site_label
 _atom_site_symmetry_multiplicity
 _atom_site_fract_x
 _atom_site_fract_y
 _atom_site_fract_z
 _atom_site_occupancy
  C  C0  1  0.88506500  0.65035500  0.85182000  1
  C  C1  1  0.34964500  0.11493500  0.14818000  1
  C  C2  1  0.31459500  0.62455500  0.85281000  1
  C  C3  1  0.37545000  0.68541000  0.14719000  1
  C  C4  1  0.24879500  0.29838500  0.85988500  1
  C  C5  1  0.70161500  0.75120500  0.14011500  1
  C  C6  1  0.88277000  0.65249000  0.65045000  1
  C  C7  1  0.34751000  0.11723000  0.34955000  1
  C  C8  1  0.31183000  0.62587000  0.64705000  1
  C  C9  1  0.37413000  0.68817000  0.35295000  1
  C  C10  1  0.24709000  0.29811000  0.63809000  1
  C  C11  1  0.70188500  0.75291500  0.36191000  1
  C  C12  1  0.33635500  0.66065500  0.07513000  1
  C  C13  1  0.33935000  0.66366000  0.92486500  1
  C  C14  1  0.22018000  0.76676000  0.03764000  1
  C  C15  1  0.23322000  0.77982000  0.96236500  1
  C  C16  1  0.44795500  0.55599500  0.96332000  1
  C  C17  1  0.44403500  0.55205500  0.03667000  1
  C  C18  1  0.09393000  0.86233000  0.07251000  1
  C  C19  1  0.13762500  0.90607500  0.92750500  1
  C  C20  1  0.99805000  0.98204000  0.03588500  1
  C  C21  1  0.01792500  0.00193500  0.96414000  1
  C  C22  1  0.37634000  0.27591000  0.97499500  1
  C  C23  1  0.72413000  0.62363000  0.02501000  1
  C  C24  1  0.39882000  0.24114000  0.04795000  1
  C  C25  1  0.75890500  0.60115500  0.95205000  1
  C  C26  1  0.30960500  0.20400500  0.08378500  1
  C  C27  1  0.79600500  0.69039500  0.91621500  1
  C  C28  1  0.18064500  0.23796500  0.05270500  1
  C  C29  1  0.76202500  0.81935500  0.94729500  1
  C  C30  1  0.15274000  0.27620000  0.98099000  1
  C  C31  1  0.72379500  0.84724500  0.01901000  1
  C  C32  1  0.25912500  0.28263500  0.93904000  1
  C  C33  1  0.71737000  0.74086000  0.06096000  1
  C  C34  1  0.44426500  0.55744500  0.53657500  1
  C  C35  1  0.44255000  0.55573000  0.46342000  1
  C  C36  1  0.33765000  0.66745000  0.42538000  1
  C  C37  1  0.33255000  0.66235000  0.57461500  1
  C  C38  1  0.22346500  0.77557500  0.46220000  1
  C  C39  1  0.22442500  0.77653500  0.53780000  1
  C  C40  1  0.15204500  0.26817500  0.51648000  1
  C  C41  1  0.73182500  0.84795500  0.48352000  1
  C  C42  1  0.17756000  0.24102000  0.44371500  1
  C  C43  1  0.75898500  0.82243500  0.55628000  1
  C  C44  1  0.30705000  0.20641000  0.41367000  1
  C  C45  1  0.79360000  0.69296000  0.58633000  1
  C  C46  1  0.39828500  0.23829500  0.45116000  1
  C  C47  1  0.76170000  0.60172000  0.54884000  1
  C  C48  1  0.37355000  0.27405000  0.52389000  1
  C  C49  1  0.72594000  0.62646000  0.47611000  1
  C  C50  1  0.25734500  0.27767500  0.55930000  1
  C  C51  1  0.72231500  0.74265500  0.44070000  1
  C  C52  1  0.05222500  0.83090500  0.14321500  1
  C  C53  1  0.16903000  0.94780000  0.85680000  1
  C  C54  1  0.01318500  0.30275500  0.95416500  1
  C  C55  1  0.69716000  0.98681000  0.04583500  1
  Cr  Cr56  1  0.05836000  0.39764000  0.74989000  1
  Cr  Cr57  1  0.60236000  0.94164000  0.25011000  1
  Cr  Cr58  1  0.06169000  0.70839000  0.75074000  1
  Cr  Cr59  1  0.29161000  0.93831000  0.24926000  1
  Cr  Cr60  1  0.37271000  0.39395000  0.74916000  1
  Cr  Cr61  1  0.60605000  0.62729000  0.25084000  1
  H  H62  1  0.53377500  0.46837500  0.93664500  1
  H  H63  1  0.53167500  0.46625500  0.06334500  1
  H  H64  1  0.90611500  0.06070500  0.06301000  1
  H  H65  1  0.93924500  0.09387500  0.93703000  1
  H  H66  1  0.45369500  0.29152500  0.94608500  1
  H  H67  1  0.70854000  0.54626000  0.05392000  1
  H  H68  1  0.48812500  0.23702500  0.07534000  1
  H  H69  1  0.76304500  0.51182500  0.92466000  1
  H  H70  1  0.10371000  0.22468000  0.08359000  1
  H  H71  1  0.77527500  0.89631500  0.91641000  1
  H  H72  1  0.53040500  0.46984500  0.56309000  1
  H  H73  1  0.53014500  0.46958500  0.43691000  1
  H  H74  1  0.09968000  0.23160000  0.41149000  1
  H  H75  1  0.76842000  0.90032000  0.58851000  1
  H  H76  1  0.49052500  0.22939500  0.42488000  1
  H  H77  1  0.77059500  0.50948500  0.57512000  1
  H  H78  1  0.44935000  0.29176000  0.55335000  1
  H  H79  1  0.70822000  0.55066000  0.44665000  1
  H  H80  1  0.10565000  0.72534000  0.16460500  1
  H  H81  1  0.27460500  0.89443500  0.83542000  1
  H  H82  1  0.98170000  0.32380000  0.89893500  1
  H  H83  1  0.67590000  0.01832000  0.10103500  1
  N  N84  1  0.02098000  0.28046000  0.54208000  1
  N  N85  1  0.71954000  0.97902000  0.45792000  1
  N  N86  1  0.10793000  0.88187000  0.42285000  1
  N  N87  1  0.11813500  0.89207500  0.57715000  1
  O  O88  1  0.16977000  0.25515000  0.82953000  1
  O  O89  1  0.74485000  0.83023000  0.17047000  1
  O  O90  1  0.94218000  0.52650000  0.82495000  1
  O  O91  1  0.47350000  0.05782000  0.17505000  1
  O  O92  1  0.92083000  0.73879000  0.83145000  1
  O  O93  1  0.26121000  0.07917000  0.16855000  1
  O  O94  1  0.19197000  0.69487000  0.82484000  1
  O  O95  1  0.30513000  0.80803000  0.17516000  1
  O  O96  1  0.40457000  0.50359000  0.82968000  1
  O  O97  1  0.49641000  0.59543000  0.17032000  1
  O  O98  1  0.36077000  0.27645000  0.82329000  1
  O  O99  1  0.72355000  0.63923000  0.17671000  1
  O  O100  1  0.16822000  0.25678000  0.66901000  1
  O  O101  1  0.74322000  0.83178000  0.33099000  1
  O  O102  1  0.94076000  0.52802000  0.67614000  1
  O  O103  1  0.47198000  0.05924000  0.32386000  1
  O  O104  1  0.91929000  0.74043000  0.67092000  1
  O  O105  1  0.25957000  0.08071000  0.32908000  1
  O  O106  1  0.19054000  0.69638000  0.67603000  1
  O  O107  1  0.30362000  0.80946000  0.32397000  1
  O  O108  1  0.40303000  0.50523000  0.66916000  1
  O  O109  1  0.49477000  0.59697000  0.33084000  1
  O  O110  1  0.35936000  0.27796000  0.67449000  1
  O  O111  1  0.72204000  0.64064000  0.32551000  1
  O  O112  1  0.16425000  0.49999000  0.74993000  1
  O  O113  1  0.50001000  0.83575000  0.25007000  1
  O  O114  1  0.91767500  0.32092500  0.49672000  1
  O  O115  1  0.01816000  0.20598000  0.59557500  1
  O  O116  1  0.67908500  0.08232500  0.50328000  1
  O  O117  1  0.79401500  0.98184500  0.40442000  1
  O  O118  1  0.95812500  0.92242500  0.17840000  1
  O  O119  1  0.07745500  0.04186500  0.82160000  1
  O  O120  1  0.92606000  0.30356000  0.99570000  1
  O  O121  1  0.69649500  0.07391500  0.00433000  1
  O  O122  1  0.05844500  0.84704500  0.36729000  1
  O  O123  1  0.06174000  0.01363000  0.43737000  1
  O  O124  1  0.15296000  0.94156000  0.63271000  1
  O  O125  1  0.98637000  0.93828000  0.56263000  1
