# generated using pymatgen
data_H36C61N4
_symmetry_space_group_name_H-M   'P 1'
_cell_length_a   29.24200000
_cell_length_b   29.26840000
_cell_length_c   29.26500000
_cell_angle_alpha   90.00000000
_cell_angle_beta   90.03300000
_cell_angle_gamma   89.99340000
_symmetry_Int_Tables_number   1
_chemical_formula_structural   H36C61N4
_chemical_formula_sum   'H216 C366 N24'
_cell_volume   25046.93034713
_cell_formula_units_Z   6
loop_
 _symmetry_equiv_pos_site_id
 _symmetry_equiv_pos_as_xyz
  1  'x, y, z'
loop_
 _atom_site_type_symbol
 _atom_site_label
 _atom_site_symmetry_multiplicity
 _atom_site_fract_x
 _atom_site_fract_y
 _atom_site_fract_z
 _atom_site_occupancy
  H  19  1  0.69034700  0.84549000  0.43430500  1
  H  20  1  0.72595300  0.79084600  0.38552600  1
  H  21  1  0.56088600  0.79635600  0.39449300  1
  H  22  1  0.75181000  0.57007800  0.33027800  1
  H  23  1  0.82007500  0.68760800  0.37848700  1
  H  24  1  0.87669200  0.63985500  0.41359900  1
  H  25  1  0.80852000  0.52331400  0.36302100  1
  H  26  1  0.67235900  0.58018000  0.25124400  1
  H  27  1  0.58404100  0.67485400  0.14861000  1
  H  28  1  0.63523100  0.71022900  0.20118100  1
  H  29  1  0.62379900  0.54540000  0.19767900  1
  H  36  1  0.73708500  0.70791000  0.38424800  1
  H  37  1  0.73906500  0.62247700  0.26936000  1
  H  38  1  0.63781000  0.72267800  0.28173800  1
  H  39  1  0.59597600  0.74074800  0.34799700  1
  H  43  1  0.53209500  0.59876500  0.15818500  1
  H  44  1  0.87948300  0.51437500  0.40301100  1
  H  45  1  0.61236300  0.83822000  0.48491400  1
  H  64  1  0.69019700  0.01770300  0.70274800  1
  H  65  1  0.72573500  0.07229800  0.75167300  1
  H  66  1  0.56064600  0.06668600  0.74252300  1
  H  67  1  0.75111200  0.29316100  0.80669200  1
  H  68  1  0.81969200  0.17566100  0.75889000  1
  H  69  1  0.87619600  0.22343700  0.72371600  1
  H  70  1  0.80769900  0.33997600  0.77384900  1
  H  71  1  0.67147000  0.28283100  0.88582000  1
  H  72  1  0.58437300  0.18768800  0.98898500  1
  H  73  1  0.63549400  0.15261000  0.93621700  1
  H  74  1  0.62287500  0.31736900  0.93954900  1
  H  81  1  0.73667100  0.15526600  0.75292700  1
  H  82  1  0.73849700  0.24084000  0.86772400  1
  H  83  1  0.63761100  0.14025100  0.85549800  1
  H  84  1  0.59572300  0.12223300  0.78917900  1
  H  88  1  0.53196800  0.26374100  0.97910000  1
  H  89  1  0.87855300  0.34896800  0.73379100  1
  H  90  1  0.61223000  0.02467200  0.65189500  1
  H  109  1  0.20052900  0.84515100  0.70253800  1
  H  110  1  0.16479500  0.79065900  0.75140900  1
  H  111  1  0.32990200  0.79607200  0.74284100  1
  H  112  1  0.13877700  0.56999100  0.80678800  1
  H  113  1  0.07060400  0.68757100  0.75853700  1
  H  114  1  0.01397400  0.63986200  0.72340500  1
  H  115  1  0.08205400  0.52327100  0.77402300  1
  H  116  1  0.21807900  0.58003700  0.88597200  1
  H  117  1  0.30650900  0.67470700  0.98856500  1
  H  118  1  0.25531000  0.71007900  0.93598200  1
  H  119  1  0.26668900  0.54521600  0.93959600  1
  H  126  1  0.15359800  0.70781300  0.75285100  1
  H  127  1  0.15148700  0.62238000  0.86773800  1
  H  128  1  0.25276000  0.72254800  0.85547100  1
  H  129  1  0.29468600  0.74060700  0.78935500  1
  H  133  1  0.35849200  0.59885300  0.97919500  1
  H  134  1  0.01102400  0.51440600  0.73408800  1
  H  135  1  0.27859600  0.83796100  0.65200700  1
  H  154  1  0.20044200  0.01771500  0.43399200  1
  H  155  1  0.16490400  0.07235500  0.38514500  1
  H  156  1  0.32996500  0.06671200  0.39434700  1
  H  157  1  0.13941300  0.29326200  0.32997700  1
  H  158  1  0.07103400  0.17580900  0.37813400  1
  H  159  1  0.01457100  0.22362100  0.41332100  1
  H  160  1  0.08284600  0.34009100  0.36279200  1
  H  161  1  0.21940800  0.28287000  0.25121400  1
  H  162  1  0.30614400  0.18766800  0.14773400  1
  H  163  1  0.25496500  0.15262600  0.20054600  1
  H  164  1  0.26805100  0.31737200  0.19750900  1
  H  171  1  0.15394200  0.15536400  0.38390500  1
  H  172  1  0.15216900  0.24091400  0.26909300  1
  H  173  1  0.25304100  0.14030600  0.28137000  1
  H  174  1  0.29492900  0.12230900  0.34774500  1
  H  178  1  0.35874800  0.26376100  0.15793300  1
  H  179  1  0.01231200  0.34923500  0.40319200  1
  H  180  1  0.27825800  0.02479600  0.48471200  1
  H  205  1  0.35980800  0.34595600  0.20461900  1
  H  206  1  0.41647300  0.40292500  0.21667600  1
  H  207  1  0.47269100  0.46021300  0.21688200  1
  H  208  1  0.52965700  0.51694700  0.20523300  1
  H  209  1  0.51751300  0.50154600  0.06178700  1
  H  210  1  0.37362400  0.36055400  0.06124100  1
  H  211  1  0.51711300  0.36049600  0.07576900  1
  H  212  1  0.53098400  0.34602800  0.93238100  1
  H  213  1  0.47436600  0.40307600  0.92036200  1
  H  214  1  0.37315900  0.50145000  0.07531100  1
  H  215  1  0.41818700  0.46041400  0.92019300  1
  H  216  1  0.36115200  0.51708600  0.93188000  1
  H  246  1  0.52966000  0.79404100  0.48322600  1
  H  247  1  0.47266700  0.78303500  0.53952000  1
  H  248  1  0.41791300  0.78290100  0.59630700  1
  H  249  1  0.36108000  0.79363700  0.65280000  1
  H  250  1  0.37368900  0.93735200  0.64021500  1
  H  251  1  0.51733500  0.93769800  0.49683600  1
  H  252  1  0.51727000  0.92549400  0.64010600  1
  H  253  1  0.52956800  0.06919000  0.65334400  1
  H  254  1  0.47259100  0.08004500  0.59693000  1
  H  255  1  0.37358300  0.92544700  0.49663100  1
  H  256  1  0.41778000  0.08003100  0.54011100  1
  H  257  1  0.36085500  0.06911800  0.48365500  1
  H  287  1  0.08278800  0.52251300  0.64658400  1
  H  288  1  0.09387500  0.46266200  0.59303900  1
  H  289  1  0.09389500  0.39923800  0.54527900  1
  H  290  1  0.08292700  0.33974900  0.49130000  1
  H  291  1  0.93922600  0.35812100  0.49835700  1
  H  292  1  0.93904800  0.50501300  0.63815900  1
  H  293  1  0.95137900  0.35798300  0.63849700  1
  H  294  1  0.80765400  0.33993900  0.64577500  1
  H  295  1  0.79671800  0.39956100  0.59193000  1
  H  296  1  0.95163900  0.50497400  0.49879500  1
  H  297  1  0.79680000  0.46299400  0.54418700  1
  H  298  1  0.80792100  0.52281900  0.49062700  1
  H  322  1  0.10071600  0.84549000  0.43430500  1
  H  323  1  0.13632200  0.79084600  0.38552600  1
  H  324  1  0.97125500  0.79635600  0.39449300  1
  H  325  1  0.16217900  0.57007800  0.33027800  1
  H  326  1  0.23044400  0.68760800  0.37848700  1
  H  327  1  0.28706100  0.63985500  0.41359900  1
  H  328  1  0.21888900  0.52331400  0.36302100  1
  H  329  1  0.08272760  0.58018000  0.25124400  1
  H  330  1  0.99441000  0.67485400  0.14861000  1
  H  331  1  0.04559960  0.71022900  0.20118100  1
  H  332  1  0.03416760  0.54540000  0.19767900  1
  H  339  1  0.14745400  0.70791000  0.38424800  1
  H  340  1  0.14943400  0.62247700  0.26936000  1
  H  341  1  0.04817860  0.72267800  0.28173800  1
  H  342  1  0.00634465  0.74074800  0.34799700  1
  H  346  1  0.94246400  0.59876500  0.15818500  1
  H  347  1  0.28985200  0.51437500  0.40301100  1
  H  348  1  0.02273160  0.83822000  0.48491400  1
  H  367  1  0.10056600  0.01770300  0.70274800  1
  H  368  1  0.13610400  0.07229800  0.75167300  1
  H  369  1  0.97101500  0.06668600  0.74252300  1
  H  370  1  0.16148100  0.29316100  0.80669200  1
  H  371  1  0.23006100  0.17566100  0.75889000  1
  H  372  1  0.28656500  0.22343700  0.72371600  1
  H  373  1  0.21806800  0.33997600  0.77384900  1
  H  374  1  0.08183860  0.28283100  0.88582000  1
  H  375  1  0.99474200  0.18768800  0.98898500  1
  H  376  1  0.04586260  0.15261000  0.93621700  1
  H  377  1  0.03324360  0.31736900  0.93954900  1
  H  384  1  0.14704000  0.15526600  0.75292700  1
  H  385  1  0.14886600  0.24084000  0.86772400  1
  H  386  1  0.04797960  0.14025100  0.85549800  1
  H  387  1  0.00609165  0.12223300  0.78917900  1
  H  391  1  0.94233700  0.26374100  0.97910000  1
  H  392  1  0.28892200  0.34896800  0.73379100  1
  H  393  1  0.02259860  0.02467200  0.65189500  1
  H  412  1  0.61089800  0.84515100  0.70253800  1
  H  413  1  0.57516400  0.79065900  0.75140900  1
  H  414  1  0.74027100  0.79607200  0.74284100  1
  H  415  1  0.54914600  0.56999100  0.80678800  1
  H  416  1  0.48097300  0.68757100  0.75853700  1
  H  417  1  0.42434300  0.63986200  0.72340500  1
  H  418  1  0.49242300  0.52327100  0.77402300  1
  H  419  1  0.62844800  0.58003700  0.88597200  1
  H  420  1  0.71687800  0.67470700  0.98856500  1
  H  421  1  0.66567900  0.71007900  0.93598200  1
  H  422  1  0.67705800  0.54521600  0.93959600  1
  H  429  1  0.56396700  0.70781300  0.75285100  1
  H  430  1  0.56185600  0.62238000  0.86773800  1
  H  431  1  0.66312900  0.72254800  0.85547100  1
  H  432  1  0.70505500  0.74060700  0.78935500  1
  H  436  1  0.76886100  0.59885300  0.97919500  1
  H  437  1  0.42139300  0.51440600  0.73408800  1
  H  438  1  0.68896500  0.83796100  0.65200700  1
  H  457  1  0.61081100  0.01771500  0.43399200  1
  H  458  1  0.57527300  0.07235500  0.38514500  1
  H  459  1  0.74033400  0.06671200  0.39434700  1
  H  460  1  0.54978200  0.29326200  0.32997700  1
  H  461  1  0.48140300  0.17580900  0.37813400  1
  H  462  1  0.42494000  0.22362100  0.41332100  1
  H  463  1  0.49321500  0.34009100  0.36279200  1
  H  464  1  0.62977700  0.28287000  0.25121400  1
  H  465  1  0.71651300  0.18766800  0.14773400  1
  H  466  1  0.66533400  0.15262600  0.20054600  1
  H  467  1  0.67842000  0.31737200  0.19750900  1
  H  474  1  0.56431100  0.15536400  0.38390500  1
  H  475  1  0.56253800  0.24091400  0.26909300  1
  H  476  1  0.66341000  0.14030600  0.28137000  1
  H  477  1  0.70529800  0.12230900  0.34774500  1
  H  481  1  0.76911700  0.26376100  0.15793300  1
  H  482  1  0.42268100  0.34923500  0.40319200  1
  H  483  1  0.68862700  0.02479600  0.48471200  1
  H  508  1  0.77017700  0.34595600  0.20461900  1
  H  509  1  0.82684200  0.40292500  0.21667600  1
  H  510  1  0.88306000  0.46021300  0.21688200  1
  H  511  1  0.94002600  0.51694700  0.20523300  1
  H  512  1  0.92788200  0.50154600  0.06178700  1
  H  513  1  0.78399300  0.36055400  0.06124100  1
  H  514  1  0.92748200  0.36049600  0.07576900  1
  H  515  1  0.94135300  0.34602800  0.93238100  1
  H  516  1  0.88473500  0.40307600  0.92036200  1
  H  517  1  0.78352800  0.50145000  0.07531100  1
  H  518  1  0.82855600  0.46041400  0.92019300  1
  H  519  1  0.77152100  0.51708600  0.93188000  1
  H  549  1  0.94002900  0.79404100  0.48322600  1
  H  550  1  0.88303600  0.78303500  0.53952000  1
  H  551  1  0.82828200  0.78290100  0.59630700  1
  H  552  1  0.77144900  0.79363700  0.65280000  1
  H  553  1  0.78405800  0.93735200  0.64021500  1
  H  554  1  0.92770400  0.93769800  0.49683600  1
  H  555  1  0.92763900  0.92549400  0.64010600  1
  H  556  1  0.93993700  0.06919000  0.65334400  1
  H  557  1  0.88296000  0.08004500  0.59693000  1
  H  558  1  0.78395200  0.92544700  0.49663100  1
  H  559  1  0.82814900  0.08003100  0.54011100  1
  H  560  1  0.77122400  0.06911800  0.48365500  1
  H  590  1  0.49315700  0.52251300  0.64658400  1
  H  591  1  0.50424400  0.46266200  0.59303900  1
  H  592  1  0.50426400  0.39923800  0.54527900  1
  H  593  1  0.49329600  0.33974900  0.49130000  1
  H  594  1  0.34959500  0.35812100  0.49835700  1
  H  595  1  0.34941700  0.50501300  0.63815900  1
  H  596  1  0.36174800  0.35798300  0.63849700  1
  H  597  1  0.21802300  0.33993900  0.64577500  1
  H  598  1  0.20708700  0.39956100  0.59193000  1
  H  599  1  0.36200800  0.50497400  0.49879500  1
  H  600  1  0.20716900  0.46299400  0.54418700  1
  H  601  1  0.21829000  0.52281900  0.49062700  1
  C  1  1  0.78033100  0.63420800  0.34953800  1
  C  2  1  0.66496600  0.76007500  0.36074100  1
  C  3  1  0.66032200  0.64919100  0.23151700  1
  C  4  1  0.61672000  0.76422700  0.36349900  1
  C  5  1  0.59570200  0.79765700  0.39099700  1
  C  6  1  0.62182900  0.82892600  0.41721400  1
  C  7  1  0.67000300  0.82545700  0.41406400  1
  C  8  1  0.69101700  0.79228800  0.38596700  1
  C  9  1  0.81742100  0.65299200  0.37457300  1
  C  10  1  0.85130100  0.62490700  0.39474900  1
  C  11  1  0.84972800  0.57673200  0.39034000  1
  C  12  1  0.81262000  0.55800000  0.36549100  1
  C  13  1  0.77876400  0.58592800  0.34596000  1
  C  14  1  0.65693300  0.60097800  0.22775700  1
  C  15  1  0.62797800  0.58008200  0.19556200  1
  C  16  1  0.60071900  0.60634200  0.16534500  1
  C  17  1  0.60491200  0.65443800  0.16791600  1
  C  18  1  0.63454000  0.67533200  0.19982100  1
  C  30  1  0.68465300  0.66948100  0.26940600  1
  C  31  1  0.72460300  0.64878000  0.28728100  1
  C  32  1  0.74447800  0.66165700  0.32955400  1
  C  33  1  0.72470200  0.69939400  0.35268100  1
  C  34  1  0.68610700  0.72335100  0.33535200  1
  C  35  1  0.66674100  0.70727100  0.29383000  1
  C  40  1  0.56173400  0.58663900  0.14637800  1
  C  41  1  0.87778000  0.54646400  0.41445400  1
  C  42  1  0.60188500  0.85041700  0.45483500  1
  C  46  1  0.77977000  0.22905400  0.78757700  1
  C  47  1  0.66470900  0.10296200  0.77644300  1
  C  48  1  0.65998300  0.21377900  0.90568700  1
  C  49  1  0.61646300  0.09876200  0.77367400  1
  C  50  1  0.59545900  0.06538000  0.74609000  1
  C  51  1  0.62166800  0.03424800  0.71983800  1
  C  52  1  0.66983200  0.03762200  0.72306400  1
  C  53  1  0.69080200  0.07079100  0.75121900  1
  C  54  1  0.81692900  0.21028200  0.76267100  1
  C  55  1  0.85073000  0.23838700  0.74243700  1
  C  56  1  0.84895500  0.28657600  0.74661200  1
  C  57  1  0.81183300  0.30529300  0.77141200  1
  C  58  1  0.77809100  0.27733900  0.79104700  1
  C  59  1  0.65619400  0.26196400  0.90932700  1
  C  60  1  0.62734500  0.28273400  0.94166600  1
  C  61  1  0.60045200  0.25630900  0.97202200  1
  C  62  1  0.60502100  0.20822900  0.96960500  1
  C  63  1  0.63458500  0.18750400  0.93755300  1
  C  75  1  0.68432500  0.19357300  0.86779500  1
  C  76  1  0.72414100  0.21443100  0.84986100  1
  C  77  1  0.74398900  0.20157200  0.80759400  1
  C  78  1  0.72436000  0.16371000  0.78452800  1
  C  79  1  0.68581600  0.13970600  0.80185400  1
  C  80  1  0.66649100  0.15572200  0.84339700  1
  C  85  1  0.56143600  0.27553200  0.99155800  1
  C  86  1  0.87704800  0.31680300  0.72252800  1
  C  87  1  0.60181000  0.01284200  0.68210600  1
  C  91  1  0.11029300  0.63414200  0.78753000  1
  C  92  1  0.22572900  0.75994600  0.77642900  1
  C  93  1  0.23026300  0.64903800  0.90560700  1
  C  94  1  0.27398500  0.76412500  0.77385000  1
  C  95  1  0.29507300  0.79742500  0.74624500  1
  C  96  1  0.26897500  0.82861000  0.71990200  1
  C  97  1  0.22081100  0.82518200  0.72290500  1
  C  98  1  0.19973500  0.79208900  0.75103900  1
  C  99  1  0.07323100  0.65295500  0.76246800  1
  C  100  1  0.03934600  0.62489400  0.74227100  1
  C  101  1  0.04088500  0.57671900  0.74669000  1
  C  102  1  0.07797100  0.55796100  0.77155700  1
  C  103  1  0.11181200  0.58586400  0.79113600  1
  C  104  1  0.23365700  0.60082600  0.90936400  1
  C  105  1  0.26260400  0.57991900  0.94155200  1
  C  106  1  0.28985600  0.60618300  0.97173700  1
  C  107  1  0.28567300  0.65429000  0.96922300  1
  C  108  1  0.25603400  0.67518100  0.93731800  1
  C  120  1  0.20590300  0.66935800  0.86774900  1
  C  121  1  0.16597500  0.64867300  0.84982700  1
  C  122  1  0.14615700  0.66155700  0.80753000  1
  C  123  1  0.16594700  0.69929900  0.78443200  1
  C  124  1  0.20452800  0.72324500  0.80180600  1
  C  125  1  0.22383800  0.70715200  0.84335100  1
  C  130  1  0.32884600  0.58662200  0.99087400  1
  C  131  1  0.01281700  0.54647100  0.72258400  1
  C  132  1  0.28921700  0.84966500  0.68225800  1
  C  136  1  0.11084300  0.22916600  0.34923200  1
  C  137  1  0.22592700  0.10304000  0.36040700  1
  C  138  1  0.23070700  0.21383100  0.23119100  1
  C  139  1  0.27416600  0.09884900  0.36323000  1
  C  140  1  0.29515100  0.06542500  0.39078300  1
  C  141  1  0.26899100  0.03419300  0.41697700  1
  C  142  1  0.22081900  0.03766000  0.41372400  1
  C  143  1  0.19984100  0.07086500  0.38561600  1
  C  144  1  0.07374900  0.21042300  0.37425100  1
  C  145  1  0.03996900  0.23855200  0.39449400  1
  C  146  1  0.04160400  0.28673100  0.39013200  1
  C  147  1  0.07868800  0.30541200  0.36524300  1
  C  148  1  0.11246200  0.27744300  0.34566500  1
  C  149  1  0.23452500  0.26201600  0.22758800  1
  C  150  1  0.26348500  0.28274800  0.19532500  1
  C  151  1  0.29026900  0.25626300  0.16490600  1
  C  152  1  0.28560500  0.20820800  0.16723900  1
  C  153  1  0.25601300  0.18752000  0.19928000  1
  C  165  1  0.20633800  0.19364500  0.26906700  1
  C  166  1  0.16651400  0.21451200  0.28697900  1
  C  167  1  0.14662400  0.20165700  0.32923100  1
  C  168  1  0.16629400  0.16382600  0.35232900  1
  C  169  1  0.20482500  0.13979200  0.33500900  1
  C  170  1  0.22418000  0.15581100  0.29348600  1
  C  175  1  0.32929200  0.27555900  0.14545100  1
  C  176  1  0.01368800  0.31702600  0.41435600  1
  C  177  1  0.28888500  0.01271000  0.45465100  1
  C  181  1  0.41758500  0.45957700  0.03594400  1
  C  182  1  0.42953700  0.44842000  0.99098400  1
  C  183  1  0.46217800  0.41456400  0.99108400  1
  C  184  1  0.47348100  0.40298400  0.03612300  1
  C  185  1  0.50750000  0.36892600  0.04328000  1
  C  186  1  0.52791900  0.34651400  0.00518000  1
  C  187  1  0.51552600  0.36019200  0.96042000  1
  C  188  1  0.48256700  0.39384300  0.95300600  1
  C  189  1  0.40955900  0.46937700  0.95279300  1
  C  190  1  0.37636700  0.50283000  0.96002200  1
  C  191  1  0.36332400  0.51609500  0.00470900  1
  C  192  1  0.38330200  0.49340600  0.04289600  1
  C  193  1  0.41729800  0.40296600  0.10091300  1
  C  194  1  0.42863400  0.41448300  0.14595900  1
  C  195  1  0.46129900  0.44831100  0.14608300  1
  C  196  1  0.47319700  0.45954300  0.10113000  1
  C  197  1  0.48128400  0.46922500  0.18428700  1
  C  198  1  0.51443900  0.50271100  0.17708200  1
  C  199  1  0.52741000  0.51607900  0.13240200  1
  C  200  1  0.50742800  0.49341900  0.09419900  1
  C  201  1  0.38325400  0.36894400  0.09373500  1
  C  202  1  0.36283500  0.34650900  0.13181900  1
  C  203  1  0.37524500  0.36014700  0.17658700  1
  C  204  1  0.40824200  0.39374600  0.18402300  1
  C  217  1  0.44538700  0.43122600  0.06852700  1
  C  222  1  0.41689400  0.96413800  0.54038300  1
  C  223  1  0.42848400  0.00906900  0.55205900  1
  C  224  1  0.46206200  0.00907500  0.58489300  1
  C  225  1  0.47379500  0.96414700  0.59646600  1
  C  226  1  0.50824200  0.95779000  0.63043400  1
  C  227  1  0.53039500  0.99634400  0.65059400  1
  C  228  1  0.51577300  0.04077900  0.63820900  1
  C  229  1  0.48213600  0.04752800  0.60521900  1
  C  230  1  0.40830000  0.04750500  0.53179100  1
  C  231  1  0.37470100  0.04072000  0.49877000  1
  C  232  1  0.36016700  0.99627100  0.48633700  1
  C  233  1  0.38248800  0.95775100  0.50638400  1
  C  234  1  0.47384300  0.89893000  0.54029300  1
  C  235  1  0.46211700  0.85397500  0.55173400  1
  C  236  1  0.42855900  0.85390000  0.58454500  1
  C  237  1  0.41695200  0.89879800  0.59633800  1
  C  238  1  0.40841000  0.81540300  0.60469100  1
  C  239  1  0.37485900  0.82208800  0.63773800  1
  C  240  1  0.36030800  0.86649700  0.65030100  1
  C  241  1  0.38258700  0.90507900  0.63035900  1
  C  242  1  0.50830700  0.90537600  0.50640600  1
  C  243  1  0.53048800  0.86687700  0.48618600  1
  C  244  1  0.51585100  0.82241100  0.49841400  1
  C  245  1  0.48220400  0.81557500  0.53133200  1
  C  258  1  0.44538700  0.93150300  0.56838500  1
  C  263  1  0.91271600  0.46014500  0.54081600  1
  C  264  1  0.86769800  0.44869400  0.55248600  1
  C  265  1  0.86764000  0.41390600  0.58401200  1
  C  266  1  0.91261000  0.40257100  0.59602800  1
  C  267  1  0.91908300  0.36703700  0.62875000  1
  C  268  1  0.88045100  0.34392800  0.64758300  1
  C  269  1  0.83602100  0.35609600  0.63298100  1
  C  270  1  0.82922600  0.39129900  0.60165600  1
  C  271  1  0.82934200  0.47131400  0.53467900  1
  C  272  1  0.83624700  0.50663800  0.50352900  1
  C  273  1  0.88073400  0.51893200  0.48927200  1
  C  274  1  0.91930600  0.49580100  0.50825800  1
  C  275  1  0.97794700  0.46003200  0.59627400  1
  C  276  1  0.02295800  0.44852500  0.58462600  1
  C  277  1  0.02299200  0.41377100  0.55306300  1
  C  278  1  0.97801900  0.40259800  0.54091100  1
  C  279  1  0.06138800  0.39108700  0.53546300  1
  C  280  1  0.05457300  0.35595700  0.50407000  1
  C  281  1  0.01014600  0.34392900  0.48935100  1
  C  282  1  0.97152500  0.36708900  0.50816500  1
  C  283  1  0.97137800  0.49574300  0.62877700  1
  C  284  1  0.00996700  0.51880400  0.64780700  1
  C  285  1  0.05445300  0.50636900  0.63366500  1
  C  286  1  0.06133600  0.47101900  0.60253700  1
  C  299  1  0.94532300  0.43135300  0.56849900  1
  C  304  1  0.19070000  0.63420800  0.34953800  1
  C  305  1  0.07533460  0.76007500  0.36074100  1
  C  306  1  0.07069060  0.64919100  0.23151700  1
  C  307  1  0.02708860  0.76422700  0.36349900  1
  C  308  1  0.00607065  0.79765700  0.39099700  1
  C  309  1  0.03219760  0.82892600  0.41721400  1
  C  310  1  0.08037160  0.82545700  0.41406400  1
  C  311  1  0.10138600  0.79228800  0.38596700  1
  C  312  1  0.22779000  0.65299200  0.37457300  1
  C  313  1  0.26167000  0.62490700  0.39474900  1
  C  314  1  0.26009700  0.57673200  0.39034000  1
  C  315  1  0.22298900  0.55800000  0.36549100  1
  C  316  1  0.18913300  0.58592800  0.34596000  1
  C  317  1  0.06730160  0.60097800  0.22775700  1
  C  318  1  0.03834660  0.58008200  0.19556200  1
  C  319  1  0.01108760  0.60634200  0.16534500  1
  C  320  1  0.01528060  0.65443800  0.16791600  1
  C  321  1  0.04490860  0.67533200  0.19982100  1
  C  333  1  0.09502160  0.66948100  0.26940600  1
  C  334  1  0.13497200  0.64878000  0.28728100  1
  C  335  1  0.15484700  0.66165700  0.32955400  1
  C  336  1  0.13507100  0.69939400  0.35268100  1
  C  337  1  0.09647560  0.72335100  0.33535200  1
  C  338  1  0.07710960  0.70727100  0.29383000  1
  C  343  1  0.97210300  0.58663900  0.14637800  1
  C  344  1  0.28814900  0.54646400  0.41445400  1
  C  345  1  0.01225360  0.85041700  0.45483500  1
  C  349  1  0.19013900  0.22905400  0.78757700  1
  C  350  1  0.07507760  0.10296200  0.77644300  1
  C  351  1  0.07035160  0.21377900  0.90568700  1
  C  352  1  0.02683160  0.09876200  0.77367400  1
  C  353  1  0.00582765  0.06538000  0.74609000  1
  C  354  1  0.03203660  0.03424800  0.71983800  1
  C  355  1  0.08020060  0.03762200  0.72306400  1
  C  356  1  0.10117100  0.07079100  0.75121900  1
  C  357  1  0.22729800  0.21028200  0.76267100  1
  C  358  1  0.26109900  0.23838700  0.74243700  1
  C  359  1  0.25932400  0.28657600  0.74661200  1
  C  360  1  0.22220200  0.30529300  0.77141200  1
  C  361  1  0.18846000  0.27733900  0.79104700  1
  C  362  1  0.06656260  0.26196400  0.90932700  1
  C  363  1  0.03771360  0.28273400  0.94166600  1
  C  364  1  0.01082060  0.25630900  0.97202200  1
  C  365  1  0.01538960  0.20822900  0.96960500  1
  C  366  1  0.04495360  0.18750400  0.93755300  1
  C  378  1  0.09469360  0.19357300  0.86779500  1
  C  379  1  0.13451000  0.21443100  0.84986100  1
  C  380  1  0.15435800  0.20157200  0.80759400  1
  C  381  1  0.13472900  0.16371000  0.78452800  1
  C  382  1  0.09618460  0.13970600  0.80185400  1
  C  383  1  0.07685960  0.15572200  0.84339700  1
  C  388  1  0.97180500  0.27553200  0.99155800  1
  C  389  1  0.28741700  0.31680300  0.72252800  1
  C  390  1  0.01217860  0.01284200  0.68210600  1
  C  394  1  0.52066200  0.63414200  0.78753000  1
  C  395  1  0.63609800  0.75994600  0.77642900  1
  C  396  1  0.64063200  0.64903800  0.90560700  1
  C  397  1  0.68435400  0.76412500  0.77385000  1
  C  398  1  0.70544200  0.79742500  0.74624500  1
  C  399  1  0.67934400  0.82861000  0.71990200  1
  C  400  1  0.63118000  0.82518200  0.72290500  1
  C  401  1  0.61010400  0.79208900  0.75103900  1
  C  402  1  0.48360000  0.65295500  0.76246800  1
  C  403  1  0.44971500  0.62489400  0.74227100  1
  C  404  1  0.45125400  0.57671900  0.74669000  1
  C  405  1  0.48834000  0.55796100  0.77155700  1
  C  406  1  0.52218100  0.58586400  0.79113600  1
  C  407  1  0.64402600  0.60082600  0.90936400  1
  C  408  1  0.67297300  0.57991900  0.94155200  1
  C  409  1  0.70022500  0.60618300  0.97173700  1
  C  410  1  0.69604200  0.65429000  0.96922300  1
  C  411  1  0.66640300  0.67518100  0.93731800  1
  C  423  1  0.61627200  0.66935800  0.86774900  1
  C  424  1  0.57634400  0.64867300  0.84982700  1
  C  425  1  0.55652600  0.66155700  0.80753000  1
  C  426  1  0.57631600  0.69929900  0.78443200  1
  C  427  1  0.61489700  0.72324500  0.80180600  1
  C  428  1  0.63420700  0.70715200  0.84335100  1
  C  433  1  0.73921500  0.58662200  0.99087400  1
  C  434  1  0.42318600  0.54647100  0.72258400  1
  C  435  1  0.69958600  0.84966500  0.68225800  1
  C  439  1  0.52121200  0.22916600  0.34923200  1
  C  440  1  0.63629600  0.10304000  0.36040700  1
  C  441  1  0.64107600  0.21383100  0.23119100  1
  C  442  1  0.68453500  0.09884900  0.36323000  1
  C  443  1  0.70552000  0.06542500  0.39078300  1
  C  444  1  0.67936000  0.03419300  0.41697700  1
  C  445  1  0.63118800  0.03766000  0.41372400  1
  C  446  1  0.61021000  0.07086500  0.38561600  1
  C  447  1  0.48411800  0.21042300  0.37425100  1
  C  448  1  0.45033800  0.23855200  0.39449400  1
  C  449  1  0.45197300  0.28673100  0.39013200  1
  C  450  1  0.48905700  0.30541200  0.36524300  1
  C  451  1  0.52283100  0.27744300  0.34566500  1
  C  452  1  0.64489400  0.26201600  0.22758800  1
  C  453  1  0.67385400  0.28274800  0.19532500  1
  C  454  1  0.70063800  0.25626300  0.16490600  1
  C  455  1  0.69597400  0.20820800  0.16723900  1
  C  456  1  0.66638200  0.18752000  0.19928000  1
  C  468  1  0.61670700  0.19364500  0.26906700  1
  C  469  1  0.57688300  0.21451200  0.28697900  1
  C  470  1  0.55699300  0.20165700  0.32923100  1
  C  471  1  0.57666300  0.16382600  0.35232900  1
  C  472  1  0.61519400  0.13979200  0.33500900  1
  C  473  1  0.63454900  0.15581100  0.29348600  1
  C  478  1  0.73966100  0.27555900  0.14545100  1
  C  479  1  0.42405700  0.31702600  0.41435600  1
  C  480  1  0.69925400  0.01271000  0.45465100  1
  C  484  1  0.82795400  0.45957700  0.03594400  1
  C  485  1  0.83990600  0.44842000  0.99098400  1
  C  486  1  0.87254700  0.41456400  0.99108400  1
  C  487  1  0.88385000  0.40298400  0.03612300  1
  C  488  1  0.91786900  0.36892600  0.04328000  1
  C  489  1  0.93828800  0.34651400  0.00518000  1
  C  490  1  0.92589500  0.36019200  0.96042000  1
  C  491  1  0.89293600  0.39384300  0.95300600  1
  C  492  1  0.81992800  0.46937700  0.95279300  1
  C  493  1  0.78673600  0.50283000  0.96002200  1
  C  494  1  0.77369300  0.51609500  0.00470900  1
  C  495  1  0.79367100  0.49340600  0.04289600  1
  C  496  1  0.82766700  0.40296600  0.10091300  1
  C  497  1  0.83900300  0.41448300  0.14595900  1
  C  498  1  0.87166800  0.44831100  0.14608300  1
  C  499  1  0.88356600  0.45954300  0.10113000  1
  C  500  1  0.89165300  0.46922500  0.18428700  1
  C  501  1  0.92480800  0.50271100  0.17708200  1
  C  502  1  0.93777900  0.51607900  0.13240200  1
  C  503  1  0.91779700  0.49341900  0.09419900  1
  C  504  1  0.79362300  0.36894400  0.09373500  1
  C  505  1  0.77320400  0.34650900  0.13181900  1
  C  506  1  0.78561400  0.36014700  0.17658700  1
  C  507  1  0.81861100  0.39374600  0.18402300  1
  C  520  1  0.85575600  0.43122600  0.06852700  1
  C  525  1  0.82726300  0.96413800  0.54038300  1
  C  526  1  0.83885300  0.00906900  0.55205900  1
  C  527  1  0.87243100  0.00907500  0.58489300  1
  C  528  1  0.88416400  0.96414700  0.59646600  1
  C  529  1  0.91861100  0.95779000  0.63043400  1
  C  530  1  0.94076400  0.99634400  0.65059400  1
  C  531  1  0.92614200  0.04077900  0.63820900  1
  C  532  1  0.89250500  0.04752800  0.60521900  1
  C  533  1  0.81866900  0.04750500  0.53179100  1
  C  534  1  0.78507000  0.04072000  0.49877000  1
  C  535  1  0.77053600  0.99627100  0.48633700  1
  C  536  1  0.79285700  0.95775100  0.50638400  1
  C  537  1  0.88421200  0.89893000  0.54029300  1
  C  538  1  0.87248600  0.85397500  0.55173400  1
  C  539  1  0.83892800  0.85390000  0.58454500  1
  C  540  1  0.82732100  0.89879800  0.59633800  1
  C  541  1  0.81877900  0.81540300  0.60469100  1
  C  542  1  0.78522800  0.82208800  0.63773800  1
  C  543  1  0.77067700  0.86649700  0.65030100  1
  C  544  1  0.79295600  0.90507900  0.63035900  1
  C  545  1  0.91867600  0.90537600  0.50640600  1
  C  546  1  0.94085700  0.86687700  0.48618600  1
  C  547  1  0.92622000  0.82241100  0.49841400  1
  C  548  1  0.89257300  0.81557500  0.53133200  1
  C  561  1  0.85575600  0.93150300  0.56838500  1
  C  566  1  0.32308500  0.46014500  0.54081600  1
  C  567  1  0.27806700  0.44869400  0.55248600  1
  C  568  1  0.27800900  0.41390600  0.58401200  1
  C  569  1  0.32297900  0.40257100  0.59602800  1
  C  570  1  0.32945200  0.36703700  0.62875000  1
  C  571  1  0.29082000  0.34392800  0.64758300  1
  C  572  1  0.24639000  0.35609600  0.63298100  1
  C  573  1  0.23959500  0.39129900  0.60165600  1
  C  574  1  0.23971100  0.47131400  0.53467900  1
  C  575  1  0.24661600  0.50663800  0.50352900  1
  C  576  1  0.29110300  0.51893200  0.48927200  1
  C  577  1  0.32967500  0.49580100  0.50825800  1
  C  578  1  0.38831600  0.46003200  0.59627400  1
  C  579  1  0.43332700  0.44852500  0.58462600  1
  C  580  1  0.43336100  0.41377100  0.55306300  1
  C  581  1  0.38838800  0.40259800  0.54091100  1
  C  582  1  0.47175700  0.39108700  0.53546300  1
  C  583  1  0.46494200  0.35595700  0.50407000  1
  C  584  1  0.42051500  0.34392900  0.48935100  1
  C  585  1  0.38189400  0.36708900  0.50816500  1
  C  586  1  0.38174700  0.49574300  0.62877700  1
  C  587  1  0.42033600  0.51880400  0.64780700  1
  C  588  1  0.46482200  0.50636900  0.63366500  1
  C  589  1  0.47170500  0.47101900  0.60253700  1
  C  602  1  0.35569200  0.43135300  0.56849900  1
  N  218  1  0.56261600  0.54509600  0.13137300  1
  N  219  1  0.32804200  0.54502800  0.00573500  1
  N  220  1  0.56277700  0.31708600  0.00649800  1
  N  221  1  0.32796800  0.31709900  0.13047600  1
  N  259  1  0.33017400  0.86630000  0.68473800  1
  N  260  1  0.32990400  0.99630200  0.45199600  1
  N  261  1  0.56077000  0.99644600  0.68484300  1
  N  262  1  0.56090600  0.86690700  0.45201300  1
  N  300  1  0.01165900  0.31106400  0.45792600  1
  N  301  1  0.87930800  0.55203000  0.45809400  1
  N  302  1  0.87891500  0.31099200  0.67893100  1
  N  303  1  0.01140100  0.55195200  0.67893000  1
  N  521  1  0.97298500  0.54509600  0.13137300  1
  N  522  1  0.73841100  0.54502800  0.00573500  1
  N  523  1  0.97314600  0.31708600  0.00649800  1
  N  524  1  0.73833700  0.31709900  0.13047600  1
  N  562  1  0.74054300  0.86630000  0.68473800  1
  N  563  1  0.74027300  0.99630200  0.45199600  1
  N  564  1  0.97113900  0.99644600  0.68484300  1
  N  565  1  0.97127500  0.86690700  0.45201300  1
  N  603  1  0.42202800  0.31106400  0.45792600  1
  N  604  1  0.28967700  0.55203000  0.45809400  1
  N  605  1  0.28928400  0.31099200  0.67893100  1
  N  606  1  0.42177000  0.55195200  0.67893000  1
