# generated using pymatgen
data_CdH11C9N2O3
_symmetry_space_group_name_H-M   'P 1'
_cell_length_a   5.59783000
_cell_length_b   15.90303000
_cell_length_c   17.04127000
_cell_angle_alpha   90.00173000
_cell_angle_beta   89.98924000
_cell_angle_gamma   89.66094000
_symmetry_Int_Tables_number   1
_chemical_formula_structural   CdH11C9N2O3
_chemical_formula_sum   'Cd4 H44 C36 N8 O12'
_cell_volume   1517.02915953
_cell_formula_units_Z   4
loop_
 _symmetry_equiv_pos_site_id
 _symmetry_equiv_pos_as_xyz
  1  'x, y, z'
loop_
 _atom_site_type_symbol
 _atom_site_label
 _atom_site_symmetry_multiplicity
 _atom_site_fract_x
 _atom_site_fract_y
 _atom_site_fract_z
 _atom_site_occupancy
  Cd  Cd0  1  0.60226000  0.29427000  0.37410000  1
  Cd  Cd1  1  0.56056000  0.78542000  0.17639000  1
  Cd  Cd2  1  0.89655000  0.70568000  0.87449000  1
  Cd  Cd3  1  0.94049000  0.21449000  0.67587000  1
  H  H4  1  0.61058000  0.12188000  0.23719000  1
  H  H5  1  0.48380000  0.28668000  0.67737000  1
  H  H6  1  0.06103000  0.05694000  0.77857000  1
  H  H7  1  0.55806000  0.44165000  0.22267000  1
  H  H8  1  0.40057000  0.19142000  0.47349000  1
  H  H9  1  0.01126000  0.45153000  0.63819000  1
  H  H10  1  0.07442000  0.37530000  0.38813000  1
  H  H11  1  0.08460000  0.44952000  0.53840000  1
  H  H12  1  0.77701000  0.57455000  0.18965000  1
  H  H13  1  0.41534000  0.55046000  0.03847000  1
  H  H14  1  0.93516000  0.93617000  0.96199000  1
  H  H15  1  0.49561000  0.79590000  0.82086000  1
  H  H16  1  0.56565000  0.93359000  0.88893000  1
  H  H17  1  0.72301000  0.42557000  0.68961000  1
  H  H18  1  0.48684000  0.05761000  0.36104000  1
  H  H19  1  0.14628000  0.68195000  0.30069000  1
  H  H20  1  0.00422000  0.20423000  0.32077000  1
  H  H21  1  0.80405000  0.99493000  0.63518000  1
  H  H22  1  0.48904000  0.54838000  0.13821000  1
  H  H23  1  0.11704000  0.37858000  0.76418000  1
  H  H24  1  0.35365000  0.31801000  0.80055000  1
  H  H25  1  0.66400000  0.81645000  0.69607000  1
  H  H26  1  0.43917000  0.94317000  0.27859000  1
  H  H27  1  0.30602000  0.50397000  0.36253000  1
  H  H28  1  0.21718000  0.07679000  0.31099000  1
  H  H29  1  0.28300000  0.92336000  0.81104000  1
  H  H30  1  0.09953000  0.80847000  0.97346000  1
  H  H31  1  0.01632000  0.71339000  0.17748000  1
  H  H32  1  0.93456000  0.06659000  0.38890000  1
  H  H33  1  0.90442000  0.31597000  0.52984000  1
  H  H34  1  0.59538000  0.68409000  0.03006000  1
  H  H35  1  0.69634000  0.00508000  0.13518000  1
  H  H36  1  0.01333000  0.94231000  0.86102000  1
  H  H37  1  0.06904000  0.56780000  0.10726000  1
  H  H38  1  0.83609000  0.18354000  0.19595000  1
  H  H39  1  0.42500000  0.62464000  0.88820000  1
  H  H40  1  0.92989000  0.87446000  0.11686000  1
  H  H41  1  0.19356000  0.49603000  0.86250000  1
  H  H42  1  0.43101000  0.43232000  0.60721000  1
  H  H43  1  0.57059000  0.12552000  0.61679000  1
  H  H44  1  0.38280000  0.62137000  0.26430000  1
  H  H45  1  0.56550000  0.06375000  0.46186000  1
  H  H46  1  0.88960000  0.87807000  0.73733000  1
  H  H47  1  0.94179000  0.55842000  0.72272000  1
  C  C48  1  0.71911000  0.45936000  0.25433000  1
  C  C49  1  0.06551000  0.40959000  0.59024000  1
  C  C50  1  0.99519000  0.92363000  0.15652000  1
  C  C51  1  0.90022000  0.17663000  0.46350000  1
  C  C52  1  0.69772000  0.86476000  0.74109000  1
  C  C53  1  0.93740000  0.90144000  0.90655000  1
  C  C54  1  0.67802000  0.87619000  0.89015000  1
  C  C55  1  0.63768000  0.00289000  0.66761000  1
  C  C56  1  0.50525000  0.07641000  0.65650000  1
  C  C57  1  0.65911000  0.46695000  0.73612000  1
  C  C58  1  0.43464000  0.59035000  0.09032000  1
  C  C59  1  0.44469000  0.44650000  0.77425000  1
  C  C60  1  0.15667000  0.03689000  0.26296000  1
  C  C61  1  0.34359000  0.96324000  0.76299000  1
  C  C62  1  0.94431000  0.05618000  0.22319000  1
  C  C63  1  0.05507000  0.55354000  0.27429000  1
  C  C64  1  0.55600000  0.94389000  0.72323000  1
  C  C65  1  0.86274000  0.99715000  0.16759000  1
  C  C66  1  0.31689000  0.37611000  0.60813000  1
  C  C67  1  0.35912000  0.50550000  0.82998000  1
  C  C68  1  0.84074000  0.53312000  0.23613000  1
  C  C69  1  0.14049000  0.49451000  0.33002000  1
  C  C70  1  0.27857000  0.96253000  0.24655000  1
  C  C71  1  0.19098000  0.63380000  0.25594000  1
  C  C72  1  0.10558000  0.67784000  0.03761000  1
  C  C73  1  0.56284000  0.09853000  0.40648000  1
  C  C74  1  0.22170000  0.03758000  0.74654000  1
  C  C75  1  0.30892000  0.36622000  0.75586000  1
  C  C76  1  0.39475000  0.32222000  0.53759000  1
  C  C77  1  0.01145000  0.42182000  0.34524000  1
  C  C78  1  0.18336000  0.62396000  0.10820000  1
  C  C79  1  0.59932000  0.82356000  0.96360000  1
  C  C80  1  0.82198000  0.12392000  0.39006000  1
  C  C81  1  0.48813000  0.57817000  0.84527000  1
  C  C82  1  0.78072000  0.54070000  0.75437000  1
  C  C83  1  0.80240000  0.13528000  0.24101000  1
  N  N84  1  0.79990000  0.40394000  0.30956000  1
  N  N85  1  0.69983000  0.59609000  0.80964000  1
  N  N86  1  0.65802000  0.82445000  0.81841000  1
  N  N87  1  0.30000000  0.09381000  0.69338000  1
  N  N88  1  0.33675000  0.32551000  0.67944000  1
  N  N89  1  0.16342000  0.67456000  0.17953000  1
  N  N90  1  0.84191000  0.17562000  0.31830000  1
  N  N91  1  0.20036000  0.90626000  0.19342000  1
  O  O92  1  0.09292000  0.75624000  0.04815000  1
  O  O93  1  0.09420000  0.82819000  0.91458000  1
  O  O94  1  0.42850000  0.36174000  0.47223000  1
  O  O95  1  0.40595000  0.17174000  0.41462000  1
  O  O96  1  0.59193000  0.74197000  0.95419000  1
  O  O97  1  0.56897000  0.86296000  0.02483000  1
  O  O98  1  0.61639000  0.65086000  0.08041000  1
  O  O99  1  0.40723000  0.24382000  0.54814000  1
  O  O100  1  0.92996000  0.13730000  0.52483000  1
  O  O101  1  0.07177000  0.63832000  0.97228000  1
  O  O102  1  0.88402000  0.34899000  0.58036000  1
  O  O103  1  0.90814000  0.25817000  0.45393000  1
