# generated using pymatgen
data_ZnH17C13(NO)4
_symmetry_space_group_name_H-M   'P 1'
_cell_length_a   9.88631000
_cell_length_b   10.65759000
_cell_length_c   10.66759000
_cell_angle_alpha   91.17452000
_cell_angle_beta   89.87524000
_cell_angle_gamma   89.74699000
_symmetry_Int_Tables_number   1
_chemical_formula_structural   ZnH17C13(NO)4
_chemical_formula_sum   'Zn2 H34 C26 N8 O8'
_cell_volume   1123.73249912
_cell_formula_units_Z   2
loop_
 _symmetry_equiv_pos_site_id
 _symmetry_equiv_pos_as_xyz
  1  'x, y, z'
loop_
 _atom_site_type_symbol
 _atom_site_label
 _atom_site_symmetry_multiplicity
 _atom_site_fract_x
 _atom_site_fract_y
 _atom_site_fract_z
 _atom_site_occupancy
  Zn  Zn0  1  0.34688000  0.49998000  0.50000000  1
  Zn  Zn1  1  0.65312000  0.49998000  0.50000000  1
  H  H2  1  0.40024000  0.68758000  0.12559000  1
  H  H3  1  0.56935000  0.31443000  0.10521000  1
  H  H4  1  0.28917000  0.55780000  0.10959000  1
  H  H5  1  0.39178000  0.32977000  0.11765000  1
  H  H6  1  0.65381000  0.65574000  0.10289000  1
  H  H7  1  0.72553000  0.50065000  0.10810000  1
  H  H8  1  0.67069000  0.63800000  0.89021000  1
  H  H9  1  0.71844000  0.47749000  0.89908000  1
  H  H10  1  0.67122000  0.11636000  0.62754000  1
  H  H11  1  0.33170000  0.11157000  0.37259000  1
  H  H12  1  0.67113000  0.88721000  0.62788000  1
  H  H13  1  0.32822000  0.88343000  0.37622000  1
  H  H14  1  0.87335000  0.66487000  0.61322000  1
  H  H15  1  0.12428000  0.66624000  0.61109000  1
  H  H16  1  0.13429000  0.22523000  0.41034000  1
  H  H17  1  0.03901000  0.28797000  0.20114000  1
  H  H18  1  0.21061000  0.23743000  0.19878000  1
  H  H19  1  0.17046000  0.40351000  0.20022000  1
  H  H20  1  0.83066000  0.33733000  0.27494000  1
  H  H21  1  0.93943000  0.13808000  0.33385000  1
  H  H22  1  0.76716000  0.13847000  0.38189000  1
  H  H23  1  0.89606000  0.17437000  0.49661000  1
  H  H24  1  0.23755000  0.63010000  0.79983000  1
  H  H25  1  0.17822000  0.62412000  0.94385000  1
  H  H26  1  0.31849000  0.31889000  0.79802000  1
  H  H27  1  0.25660000  0.36701000  0.94139000  1
  H  H28  1  0.47500000  0.74257000  0.81361000  1
  H  H29  1  0.39842000  0.92544000  0.94028000  1
  H  H30  1  0.28059000  0.82439000  0.01552000  1
  H  H31  1  0.26759000  0.85023000  0.84927000  1
  H  H32  1  0.60224000  0.29213000  0.78757000  1
  H  H33  1  0.47352000  0.10812000  0.83597000  1
  H  H34  1  0.52212000  0.12867000  0.99879000  1
  H  H35  1  0.64829000  0.09446000  0.88119000  1
  C  C36  1  0.50021000  0.26009000  0.50026000  1
  C  C37  1  0.63936000  0.54651000  0.92910000  1
  C  C38  1  0.59673000  0.06538000  0.57255000  1
  C  C39  1  0.40357000  0.06294000  0.43055000  1
  C  C40  1  0.59674000  0.93649000  0.57264000  1
  C  C41  1  0.40227000  0.93431000  0.43195000  1
  C  C42  1  0.49927000  0.87213000  0.50245000  1
  C  C43  1  0.50025000  0.12758000  0.50124000  1
  C  C44  1  0.92778000  0.59136000  0.56280000  1
  C  C45  1  0.07104000  0.59172000  0.56222000  1
  C  C46  1  0.07261000  0.40855000  0.43503000  1
  C  C47  1  0.92717000  0.40769000  0.43646000  1
  C  C48  1  0.50072000  0.50503000  0.25827000  1
  C  C49  1  0.49977000  0.73978000  0.50124000  1
  C  C50  1  0.49918000  0.50443000  0.74246000  1
  C  C51  1  0.38793000  0.59460000  0.07774000  1
  C  C52  1  0.48169000  0.37160000  0.07346000  1
  C  C53  1  0.38896000  0.60681000  0.93310000  1
  C  C54  1  0.46938000  0.36669000  0.92862000  1
  C  C55  1  0.63891000  0.55634000  0.07199000  1
  C  C56  1  0.50232000  0.50712000  0.12233000  1
  C  C57  1  0.49627000  0.50555000  0.87987000  1
  C  C58  1  0.14109000  0.31100000  0.23628000  1
  C  C59  1  0.86551000  0.18560000  0.39722000  1
  C  C60  1  0.33926000  0.83823000  0.92822000  1
  C  C61  1  0.55227000  0.14579000  0.90040000  1
  N  N62  1  0.14280000  0.49997000  0.49997000  1
  N  N63  1  0.85720000  0.49997000  0.49997000  1
  N  N64  1  0.14671000  0.31215000  0.37178000  1
  N  N65  1  0.85193000  0.31682000  0.36679000  1
  N  N66  1  0.25108000  0.58372000  0.88411000  1
  N  N67  1  0.33426000  0.31866000  0.89464000  1
  N  N68  1  0.43120000  0.73447000  0.90090000  1
  N  N69  1  0.57177000  0.27838000  0.87850000  1
  O  O70  1  0.38538000  0.31675000  0.49999000  1
  O  O71  1  0.61462000  0.31675000  0.49999000  1
  O  O72  1  0.38533000  0.49997000  0.31479000  1
  O  O73  1  0.61467000  0.49997000  0.31479000  1
  O  O74  1  0.38529000  0.68322000  0.50001000  1
  O  O75  1  0.61471000  0.68322000  0.50001000  1
  O  O76  1  0.38534000  0.50001000  0.68520000  1
  O  O77  1  0.61466000  0.50001000  0.68520000  1
