# generated using pymatgen
data_CdH5C4N9
_symmetry_space_group_name_H-M   'P 1'
_cell_length_a   11.62205000
_cell_length_b   12.75382000
_cell_length_c   12.75271000
_cell_angle_alpha   111.18982000
_cell_angle_beta   107.68876000
_cell_angle_gamma   107.68245000
_symmetry_Int_Tables_number   1
_chemical_formula_structural   CdH5C4N9
_chemical_formula_sum   'Cd6 H30 C24 N54'
_cell_volume   1486.06053337
_cell_formula_units_Z   6
loop_
 _symmetry_equiv_pos_site_id
 _symmetry_equiv_pos_as_xyz
  1  'x, y, z'
loop_
 _atom_site_type_symbol
 _atom_site_label
 _atom_site_symmetry_multiplicity
 _atom_site_fract_x
 _atom_site_fract_y
 _atom_site_fract_z
 _atom_site_occupancy
  Cd  Cd0  1  0.76294000  0.94221000  0.44338000  1
  Cd  Cd1  1  0.31965000  0.55657000  0.49871000  1
  Cd  Cd2  1  0.82083000  0.50136000  0.05789000  1
  Cd  Cd3  1  0.23706000  0.05779000  0.55662000  1
  Cd  Cd4  1  0.68035000  0.44343000  0.50129000  1
  Cd  Cd5  1  0.17917000  0.49864000  0.94211000  1
  H  H6  1  0.37705000  0.43964000  0.24630000  1
  H  H7  1  0.25045000  0.31172000  0.09540000  1
  H  H8  1  0.55102000  0.59874000  0.12882000  1
  H  H9  1  0.54075000  0.60392000  0.26485000  1
  H  H10  1  0.38575000  0.40809000  0.03888000  1
  H  H11  1  0.13104000  0.75397000  0.19337000  1
  H  H12  1  0.15523000  0.90483000  0.21643000  1
  H  H13  1  0.42225000  0.87104000  0.46968000  1
  H  H14  1  0.27601000  0.73524000  0.33898000  1
  H  H15  1  0.34694000  0.96138000  0.36939000  1
  H  H16  1  0.93776000  0.80668000  0.56048000  1
  H  H17  1  0.93908000  0.78386000  0.68842000  1
  H  H18  1  0.95230000  0.53005000  0.40132000  1
  H  H19  1  0.93672000  0.66077000  0.39594000  1
  H  H20  1  0.97768000  0.63076000  0.59197000  1
  H  H21  1  0.62294000  0.56035000  0.75369000  1
  H  H22  1  0.74954000  0.68827000  0.90460000  1
  H  H23  1  0.44897000  0.40126000  0.87118000  1
  H  H24  1  0.45924000  0.39607000  0.73515000  1
  H  H25  1  0.61424000  0.59191000  0.96111000  1
  H  H26  1  0.86896000  0.24603000  0.80663000  1
  H  H27  1  0.84476000  0.09516000  0.78357000  1
  H  H28  1  0.57774000  0.12896000  0.53032000  1
  H  H29  1  0.72399000  0.26476000  0.66101000  1
  H  H30  1  0.65306000  0.03861000  0.63060000  1
  H  H31  1  0.06224000  0.19332000  0.43951000  1
  H  H32  1  0.06091000  0.21614000  0.31157000  1
  H  H33  1  0.04770000  0.46995000  0.59868000  1
  H  H34  1  0.06327000  0.33923000  0.60406000  1
  H  H35  1  0.02231000  0.36924000  0.40803000  1
  C  C36  1  0.29875000  0.41556000  0.15490000  1
  C  C37  1  0.48322000  0.59448000  0.17286000  1
  C  C38  1  0.19318000  0.45136000  0.17503000  1
  C  C39  1  0.45377000  0.70445000  0.19335000  1
  C  C40  1  0.14400000  0.84528000  0.26070000  1
  C  C41  1  0.31043000  0.82716000  0.42155000  1
  C  C42  1  0.01831000  0.82522000  0.27634000  1
  C  C43  1  0.26063000  0.80673000  0.51112000  1
  C  C44  1  0.88347000  0.73943000  0.58458000  1
  C  C45  1  0.88874000  0.57834000  0.40558000  1
  C  C46  1  0.74217000  0.72382000  0.54885000  1
  C  C47  1  0.74937000  0.48886000  0.29566000  1
  C  C48  1  0.70125000  0.58444000  0.84509000  1
  C  C49  1  0.51678000  0.40552000  0.82713000  1
  C  C50  1  0.80681000  0.54863000  0.82497000  1
  C  C51  1  0.54622000  0.29554000  0.80665000  1
  C  C52  1  0.85599000  0.15472000  0.73930000  1
  C  C53  1  0.68956000  0.17284000  0.57845000  1
  C  C54  1  0.98168000  0.17478000  0.72366000  1
  C  C55  1  0.73936000  0.19327000  0.48888000  1
  C  C56  1  0.11652000  0.26056000  0.41541000  1
  C  C57  1  0.11125000  0.42166000  0.59442000  1
  C  C58  1  0.25782000  0.27618000  0.45114000  1
  C  C59  1  0.25062000  0.51114000  0.70434000  1
  N  N60  1  0.35832000  0.47065000  0.08814000  1
  N  N61  1  0.17868000  0.48201000  0.28139000  1
  N  N62  1  0.06708000  0.50005000  0.25784000  1
  N  N63  1  0.01804000  0.48216000  0.14156000  1
  N  N64  1  0.09422000  0.45066000  0.08635000  1
  N  N65  1  0.33470000  0.69384000  0.12199000  1
  N  N66  1  0.34816000  0.81330000  0.16550000  1
  N  N67  1  0.47111000  0.89328000  0.26093000  1
  N  N68  1  0.54039000  0.82706000  0.28023000  1
  N  N69  1  0.27024000  0.91193000  0.38256000  1
  N  N70  1  0.89751000  0.71885000  0.20063000  1
  N  N71  1  0.80940000  0.74232000  0.24215000  1
  N  N72  1  0.87656000  0.85859000  0.34051000  1
  N  N73  1  0.00797000  0.91387000  0.36425000  1
  N  N74  1  0.21269000  0.87794000  0.57169000  1
  N  N75  1  0.18285000  0.83458000  0.64781000  1
  N  N76  1  0.21070000  0.73936000  0.63265000  1
  N  N77  1  0.26065000  0.72004000  0.54710000  1
  N  N78  1  0.88772000  0.61750000  0.52944000  1
  N  N79  1  0.69702000  0.79954000  0.51825000  1
  N  N80  1  0.56732000  0.75781000  0.50006000  1
  N  N81  1  0.53614000  0.65932000  0.51777000  1
  N  N82  1  0.64389000  0.63568000  0.54933000  1
  N  N83  1  0.64085000  0.42797000  0.30615000  1
  N  N84  1  0.53495000  0.35201000  0.18662000  1
  N  N85  1  0.57797000  0.36765000  0.10673000  1
  N  N86  1  0.71343000  0.45327000  0.17306000  1
  N  N87  1  0.64167000  0.52934000  0.91186000  1
  N  N88  1  0.82131000  0.51798000  0.71861000  1
  N  N89  1  0.93291000  0.49995000  0.74216000  1
  N  N90  1  0.98195000  0.51783000  0.85844000  1
  N  N91  1  0.90577000  0.54934000  0.91365000  1
  N  N92  1  0.66529000  0.30616000  0.87801000  1
  N  N93  1  0.65183000  0.18670000  0.83449000  1
  N  N94  1  0.52889000  0.10671000  0.73907000  1
  N  N95  1  0.45960000  0.17294000  0.71977000  1
  N  N96  1  0.72975000  0.08807000  0.61744000  1
  N  N97  1  0.10248000  0.28115000  0.79937000  1
  N  N98  1  0.19060000  0.25767000  0.75784000  1
  N  N99  1  0.12343000  0.14141000  0.65948000  1
  N  N100  1  0.99202000  0.08612000  0.63574000  1
  N  N101  1  0.78731000  0.12206000  0.42831000  1
  N  N102  1  0.81714000  0.16542000  0.35218000  1
  N  N103  1  0.78929000  0.26063000  0.36734000  1
  N  N104  1  0.73934000  0.27996000  0.45290000  1
  N  N105  1  0.11227000  0.38250000  0.47056000  1
  N  N106  1  0.30297000  0.20046000  0.48174000  1
  N  N107  1  0.43267000  0.24218000  0.49994000  1
  N  N108  1  0.46385000  0.34068000  0.48223000  1
  N  N109  1  0.35610000  0.36431000  0.45066000  1
  N  N110  1  0.35914000  0.57203000  0.69385000  1
  N  N111  1  0.46504000  0.64798000  0.81338000  1
  N  N112  1  0.42202000  0.63235000  0.89327000  1
  N  N113  1  0.28656000  0.54673000  0.82694000  1
