# generated using pymatgen
data_Cr6H27C46(NO9)3
_symmetry_space_group_name_H-M   'P 1'
_cell_length_a   10.65658000
_cell_length_b   10.73922000
_cell_length_c   16.99648000
_cell_angle_alpha   80.59636000
_cell_angle_beta   80.43736000
_cell_angle_gamma   61.46291000
_symmetry_Int_Tables_number   1
_chemical_formula_structural   Cr6H27C46(NO9)3
_chemical_formula_sum   'Cr6 H27 C46 N3 O27'
_cell_volume   1677.12620274
_cell_formula_units_Z   1
loop_
 _symmetry_equiv_pos_site_id
 _symmetry_equiv_pos_as_xyz
  1  'x, y, z'
loop_
 _atom_site_type_symbol
 _atom_site_label
 _atom_site_symmetry_multiplicity
 _atom_site_fract_x
 _atom_site_fract_y
 _atom_site_fract_z
 _atom_site_occupancy
  Cr  Cr0  1  0.60844000  0.61092000  0.48032000  1
  Cr  Cr1  1  0.28864000  0.59991000  0.50924000  1
  Cr  Cr2  1  0.60294000  0.28920000  0.51049000  1
  Cr  Cr3  1  0.05253000  0.05244000  0.03579000  1
  Cr  Cr4  1  0.05997000  0.37320000  0.00708000  1
  Cr  Cr5  1  0.37332000  0.06156000  0.00463000  1
  H  H6  1  0.61814000  0.23127000  0.28388000  1
  H  H7  1  0.08228000  0.37355000  0.23757000  1
  H  H8  1  0.00902000  0.56807000  0.20586000  1
  H  H9  1  0.11772000  0.40557000  0.36626000  1
  H  H10  1  0.82278000  0.13692000  0.70130000  1
  H  H11  1  0.84327000  0.12072000  0.84476000  1
  H  H12  1  0.65765000  0.63717000  0.89252000  1
  H  H13  1  0.44405000  0.65738000  0.85191000  1
  H  H14  1  0.58048000  0.47772000  0.85107000  1
  H  H15  1  0.53749000  0.59164000  0.75825000  1
  H  H16  1  0.43620000  0.10786000  0.72972000  1
  H  H17  1  0.68487000  0.64600000  0.67520000  1
  H  H18  1  0.65419000  0.88146000  0.74439000  1
  H  H19  1  0.59667000  0.88526000  0.85212000  1
  H  H20  1  0.63706000  0.02081000  0.79778000  1
  H  H21  1  0.92332000  0.64600000  0.37159000  1
  H  H22  1  0.96420000  0.85106000  0.33204000  1
  H  H23  1  0.95464000  0.78307000  0.24459000  1
  H  H24  1  0.12685000  0.74418000  0.27359000  1
  H  H25  1  0.84462000  0.72718000  0.84242000  1
  H  H26  1  0.86549000  0.63438000  0.66027000  1
  H  H27  1  0.48485000  0.91240000  0.64462000  1
  H  H28  1  0.98462000  0.87948000  0.84876000  1
  H  H29  1  0.16794000  0.73055000  0.86544000  1
  H  H30  1  0.19696000  0.67117000  0.73354000  1
  H  H31  1  0.01515000  0.82331000  0.71482000  1
  H  H32  1  0.57926000  0.20344000  0.15138000  1
  C  C33  1  0.35837000  0.77694000  0.37381000  1
  C  C34  1  0.29389000  0.88980000  0.22816000  1
  C  C35  1  0.37174000  0.36805000  0.72556000  1
  C  C36  1  0.41326000  0.37903000  0.39828000  1
  C  C37  1  0.34532000  0.34919000  0.79651000  1
  C  C38  1  0.85573000  0.31797000  0.83574000  1
  C  C39  1  0.87016000  0.42349000  0.78274000  1
  C  C40  1  0.86646000  0.43131000  0.70252000  1
  C  C41  1  0.84065000  0.21584000  0.72317000  1
  C  C42  1  0.84845000  0.20814000  0.80522000  1
  C  C43  1  0.79517000  0.58063000  0.78598000  1
  C  C44  1  0.51249000  0.29447000  0.26341000  1
  C  C45  1  0.79359000  0.59247000  0.69561000  1
  C  C46  1  0.83938000  0.33427000  0.67231000  1
  C  C47  1  0.26339000  0.94482000  0.81958000  1
  C  C48  1  0.77729000  0.38107000  0.37326000  1
  C  C49  1  0.16342000  0.91915000  0.79111000  1
  C  C50  1  0.18318000  0.88261000  0.71504000  1
  C  C51  1  0.39572000  0.91274000  0.68610000  1
  C  C52  1  0.37167000  0.95841000  0.76284000  1
  C  C53  1  0.09904000  0.82215000  0.82493000  1
  C  C54  1  0.11832000  0.78428000  0.74063000  1
  C  C55  1  0.49020000  0.27959000  0.18740000  1
  C  C56  1  0.30828000  0.86214000  0.66522000  1
  C  C57  1  0.89065000  0.29835000  0.14386000  1
  C  C58  1  0.31589000  0.29383000  0.10138000  1
  C  C59  1  0.25244000  0.94145000  0.14881000  1
  C  C60  1  0.34919000  0.77684000  0.59896000  1
  C  C61  1  0.88958000  0.30687000  0.91551000  1
  C  C62  1  0.31729000  0.30358000  0.87779000  1
  C  C63  1  0.24657000  0.96190000  0.90480000  1
  C  C64  1  0.40394000  0.37569000  0.64077000  1
  C  C65  1  0.77382000  0.37690000  0.59902000  1
  C  C66  1  0.09154000  0.47231000  0.23738000  1
  C  C67  1  0.35026000  0.34805000  0.16344000  1
  C  C68  1  0.24076000  0.45101000  0.20981000  1
  C  C69  1  0.26370000  0.46805000  0.28427000  1
  C  C70  1  0.55027000  0.58699000  0.82209000  1
  C  C71  1  0.59040000  0.94936000  0.79363000  1
  C  C72  1  0.01757000  0.75849000  0.29591000  1
  C  C73  1  0.89009000  0.63362000  0.81013000  1
  C  C74  1  0.11593000  0.49156000  0.31922000  1
  C  C75  1  0.39568000  0.37965000  0.31513000  1
  C  C76  1  0.82266000  0.34358000  0.29394000  1
  C  C77  1  0.84973000  0.31558000  0.22610000  1
  C  C78  1  0.32989000  0.84352000  0.29454000  1
  N  N79  1  0.65370000  0.63358000  0.83273000  1
  N  N80  1  0.44269000  0.03373000  0.77729000  1
  N  N81  1  0.02294000  0.63305000  0.34579000  1
  O  O82  1  0.75402000  0.50241000  0.39007000  1
  O  O83  1  0.40618000  0.17307000  0.07934000  1
  O  O84  1  0.35862000  0.93713000  0.09805000  1
  O  O85  1  0.48142000  0.72861000  0.39937000  1
  O  O86  1  0.16391000  0.91454000  0.94979000  1
  O  O87  1  0.93520000  0.18483000  0.95423000  1
  O  O88  1  0.91612000  0.40331000  0.93057000  1
  O  O89  1  0.19231000  0.36880000  0.91383000  1
  O  O90  1  0.40677000  0.18052000  0.90358000  1
  O  O91  1  0.35917000  0.94404000  0.93512000  1
  O  O92  1  0.16194000  0.16240000  0.01584000  1
  O  O93  1  0.29508000  0.46638000  0.60211000  1
  O  O94  1  0.26381000  0.74545000  0.41041000  1
  O  O95  1  0.30082000  0.46880000  0.43911000  1
  O  O96  1  0.49148000  0.25598000  0.43573000  1
  O  O97  1  0.72629000  0.30620000  0.41699000  1
  O  O98  1  0.74783000  0.49981000  0.56591000  1
  O  O99  1  0.47568000  0.72620000  0.56237000  1
  O  O100  1  0.25762000  0.74284000  0.58625000  1
  O  O101  1  0.01986000  0.57114000  0.79363000  1
  O  O102  1  0.48528000  0.25338000  0.61156000  1
  O  O103  1  0.72055000  0.30378000  0.57999000  1
  O  O104  1  0.50001000  0.50001000  0.50002000  1
  O  O105  1  0.16332000  0.90710000  0.12555000  1
  O  O106  1  0.93465000  0.17792000  0.11716000  1
  O  O107  1  0.91552000  0.39586000  0.10633000  1
  O  O108  1  0.19176000  0.36189000  0.07677000  1
