# generated using pymatgen
data_H3C12N4O
_symmetry_space_group_name_H-M   'P 1'
_cell_length_a   13.09635000
_cell_length_b   13.09633333
_cell_length_c   26.94490000
_cell_angle_alpha   90.00000000
_cell_angle_beta   90.00000000
_cell_angle_gamma   119.99987371
_symmetry_Int_Tables_number   1
_chemical_formula_structural   H3C12N4O
_chemical_formula_sum   'H18 C72 N24 O6'
_cell_volume   4002.28262963
_cell_formula_units_Z   6
loop_
 _symmetry_equiv_pos_site_id
 _symmetry_equiv_pos_as_xyz
  1  'x, y, z'
loop_
 _atom_site_type_symbol
 _atom_site_label
 _atom_site_symmetry_multiplicity
 _atom_site_fract_x
 _atom_site_fract_y
 _atom_site_fract_z
 _atom_site_occupancy
  C  1  1  0.42196733  0.44293933  0.97449100  1
  C  2  1  0.36482733  0.48715933  0.94357800  1
  C  3  1  0.38602267  0.50838667  0.89185600  1
  C  4  1  0.45893067  0.46923367  0.86920300  1
  C  5  1  0.50612733  0.41016833  0.89684500  1
  C  6  1  0.49494833  0.40881733  0.94901300  1
  C  9  1  0.40135300  0.42662000  0.02805300  1
  C  10  1  0.35018200  0.48317000  0.05507100  1
  C  11  1  0.31989700  0.46195700  0.10597200  1
  C  12  1  0.34944033  0.38498433  0.13123800  1
  C  13  1  0.41773300  0.34083600  0.10894400  1
  C  14  1  0.43462433  0.35688433  0.05702000  1
  C  21  1  0.88456100  0.43842700  0.30798800  1
  C  22  1  0.98586500  0.49521800  0.27701700  1
  C  23  1  0.98560733  0.47387933  0.22528500  1
  C  24  1  0.87346833  0.40085333  0.20272800  1
  C  25  1  0.76738333  0.35402233  0.23044800  1
  C  26  1  0.77734733  0.36534933  0.28259500  1
  C  29  1  0.88898700  0.45947700  0.36151900  1
  C  30  1  0.99672800  0.51091900  0.38852600  1
  C  31  1  0.00578367  0.54157467  0.43938900  1
  C  32  1  0.89928767  0.51258467  0.46459200  1
  C  33  1  0.78685433  0.44390933  0.44235100  1
  C  34  1  0.78602700  0.42648400  0.39047100  1
  C  41  1  0.41869633  0.97648233  0.64127900  1
  C  42  1  0.37445067  0.87515567  0.61034200  1
  C  43  1  0.35351633  0.87528433  0.55859500  1
  C  44  1  0.39294833  0.98743433  0.53597500  1
  C  45  1  0.45163900  0.09359300  0.56369800  1
  C  46  1  0.45275667  0.08362967  0.61586000  1
  C  49  1  0.43495300  0.97218100  0.69483900  1
  C  50  1  0.37808833  0.86456333  0.72189800  1
  C  51  1  0.39929833  0.85556133  0.77280700  1
  C  52  1  0.47650933  0.96209233  0.79803600  1
  C  53  1  0.52107267  0.07456967  0.77568600  1
  C  54  1  0.50511100  0.07516900  0.72374200  1
  C  61  1  0.55864767  0.17654267  0.80636000  1
  C  63  1  0.51597600  0.22489400  0.88873300  1
  C  64  1  0.54640833  0.33993333  0.87274300  1
  C  66  1  0.60718800  0.29741400  0.79367400  1
  C  67  1  0.65921133  0.34797333  0.75251200  1
  C  68  1  0.45165033  0.16793033  0.92687500  1
  C  71  1  0.48261067  0.30415167  0.13976600  1
  C  73  1  0.57385633  0.34726933  0.22195600  1
  C  74  1  0.65695733  0.31439233  0.20638800  1
  C  76  1  0.55362267  0.25401367  0.12727400  1
  C  77  1  0.55100467  0.20086667  0.08628000  1
  C  78  1  0.58124933  0.41059733  0.26048300  1
  C  81  1  0.68526800  0.37936800  0.47318000  1
  C  83  1  0.63752600  0.28824200  0.55550800  1
  C  84  1  0.52209133  0.20419733  0.53971600  1
  C  86  1  0.56422800  0.30750500  0.46067000  1
  C  87  1  0.51351667  0.30938267  0.41961200  1
  C  88  1  0.69387400  0.28082600  0.59386000  1
  C  91  1  0.35239900  0.74619900  0.79857100  1
  C  93  1  0.32809100  0.66592900  0.88211600  1
  C  94  1  0.34409867  0.57298467  0.86392800  1
  C  96  1  0.33506100  0.63772300  0.77966000  1
  C  97  1  0.34975833  0.61639833  0.73391700  1
  C  98  1  0.33582000  0.70080500  0.92782800  1
  C  101  1  0.25721833  0.50858733  0.13175000  1
  C  103  1  0.20127700  0.53281400  0.21534300  1
  C  104  1  0.09189467  0.51567067  0.19720600  1
  C  106  1  0.16529400  0.52484300  0.11296700  1
  C  107  1  0.13052000  0.51174600  0.06706300  1
  C  108  1  0.22847367  0.52407267  0.26094000  1
  C  111  1  0.11504700  0.60429300  0.46520500  1
  C  113  1  0.19525900  0.66016700  0.54870500  1
  C  114  1  0.28849800  0.76896800  0.53057200  1
  C  116  1  0.22356167  0.69554467  0.44635900  1
  C  117  1  0.24537867  0.73009367  0.40043200  1
  C  118  1  0.16085267  0.63255967  0.59445400  1
  H  7  1  0.30074567  0.49951267  0.95868800  1
  H  16  1  0.47703600  0.31994400  0.04033400  1
  H  17  1  0.55456667  0.56197867  0.81594300  1
  H  18  1  0.32661533  0.36987733  0.20221600  1
  H  19  1  0.54324300  0.38119200  0.96840100  1
  H  20  1  0.33778967  0.54517967  0.03779900  1
  H  27  1  0.06240300  0.55931600  0.29205900  1
  H  36  1  0.70668233  0.38414433  0.37378100  1
  H  37  1  0.87026933  0.30470133  0.14962000  1
  H  38  1  0.90709833  0.53506733  0.53559700  1
  H  39  1  0.70141233  0.31727433  0.30200500  1
  H  40  1  0.07108100  0.52301400  0.37130600  1
  H  47  1  0.36188233  0.79865033  0.62546100  1
  H  56  1  0.54299033  0.15437333  0.70691500  1
  H  57  1  0.30094100  0.99065500  0.48247700  1
  H  58  1  0.49101967  0.95427867  0.86903000  1
  H  59  1  0.48019433  0.15948633  0.63528500  1
  H  60  1  0.31599400  0.79018600  0.70462800  1
  N  62  1  0.51824300  0.15236700  0.85386000  1
  N  65  1  0.59436267  0.36912067  0.82638500  1
  N  69  1  0.39228633  0.11594133  0.95965000  1
  N  70  1  0.70650333  0.39662233  0.71684900  1
  N  72  1  0.49897367  0.34503467  0.18717800  1
  N  75  1  0.63764000  0.26595300  0.16009300  1
  N  79  1  0.58862400  0.46915500  0.29357700  1
  N  80  1  0.55117867  0.15251667  0.05076300  1
  N  82  1  0.70977600  0.36313300  0.52061400  1
  N  85  1  0.49258767  0.22311467  0.49343600  1
  N  89  1  0.74543733  0.27342033  0.62679400  1
  N  90  1  0.46480867  0.30848867  0.38403900  1
  N  92  1  0.34053500  0.74848100  0.84870500  1
  N  95  1  0.34015400  0.56355500  0.81338800  1
  N  99  1  0.34293900  0.73369700  0.96788800  1
  N  100  1  0.36276833  0.59654733  0.69363500  1
  N  102  1  0.27143200  0.52051300  0.18188900  1
  N  105  1  0.08612867  0.51986367  0.14668800  1
  N  109  1  0.25418633  0.51610033  0.30090600  1
  N  110  1  0.09867100  0.50013100  0.02665800  1
  N  112  1  0.11274967  0.58989967  0.51532600  1
  N  115  1  0.29825533  0.77444833  0.48004600  1
  N  119  1  0.12835867  0.60635467  0.63453700  1
  N  120  1  0.26573300  0.76171200  0.36000100  1
  O  8  1  0.48229367  0.48486067  0.81953900  1
  O  15  1  0.28552467  0.32501667  0.17238100  1
  O  28  1  0.86547133  0.37702133  0.15310100  1
  O  35  1  0.90352933  0.57640233  0.50581000  1
  O  48  1  0.37797233  0.99539633  0.48626600  1
  O  55  1  0.53608167  0.95795467  0.83927800  1
