# generated using pymatgen
data_MnH8(C7O2)2
_symmetry_space_group_name_H-M   'P 1'
_cell_length_a   12.07580000
_cell_length_b   13.94440000
_cell_length_c   18.11870000
_cell_angle_alpha   90.00000000
_cell_angle_beta   90.00000000
_cell_angle_gamma   112.89400000
_symmetry_Int_Tables_number   1
_chemical_formula_structural   MnH8(C7O2)2
_chemical_formula_sum   'Mn6 H48 C84 O24'
_cell_volume   2810.66467332
_cell_formula_units_Z   6
loop_
 _symmetry_equiv_pos_site_id
 _symmetry_equiv_pos_as_xyz
  1  'x, y, z'
loop_
 _atom_site_type_symbol
 _atom_site_label
 _atom_site_symmetry_multiplicity
 _atom_site_fract_x
 _atom_site_fract_y
 _atom_site_fract_z
 _atom_site_occupancy
  Mn  Mn1  1  0.17075000  0.41865000  0.51944000  1.0
  Mn  Mn2  1  0.32925000  0.58135000  0.01944000  1.0
  Mn  Mn3  1  0.82925000  0.58135000  0.48056000  1.0
  Mn  Mn4  1  0.67075000  0.41865000  0.98056000  1.0
  Mn  Mn5  1  0.50000000  0.50000000  0.50000000  1.0
  Mn  Mn6  1  0.00000000  0.50000000  0.00000000  1.0
  H  H1  1  0.46840000  0.21670000  0.62290000  1.0
  H  H2  1  0.44500000  0.06840000  0.68930000  1.0
  H  H3  1  0.13380000  0.06290000  0.77210000  1.0
  H  H4  1  0.15280000  0.20670000  0.70170000  1.0
  H  H5  1  0.40690000  0.83130000  0.87000000  1.0
  H  H6  1  0.43930000  0.98300000  0.80590000  1.0
  H  H7  1  0.08680000  0.87790000  0.75730000  1.0
  H  H8  1  0.05570000  0.72420000  0.81880000  1.0
  H  H9  1  0.49970000  0.73050000  0.55420000  1.0
  H  H10  1  0.58650000  0.90940000  0.56420000  1.0
  H  H11  1  0.34210000  0.93310000  0.42290000  1.0
  H  H12  1  0.25040000  0.75380000  0.41660000  1.0
  H  H13  1  0.03160000  0.78330000  0.12290000  1.0
  H  H14  1  0.05500000  0.93160000  0.18930000  1.0
  H  H15  1  0.36620000  0.93710000  0.27210000  1.0
  H  H16  1  0.34720000  0.79330000  0.20170000  1.0
  H  H17  1  0.09310000  0.16870000  0.37000000  1.0
  H  H18  1  0.06070000  0.01700000  0.30590000  1.0
  H  H19  1  0.41320000  0.12210000  0.25730000  1.0
  H  H20  1  0.44430000  0.27580000  0.31880000  1.0
  H  H21  1  0.00030000  0.26950000  0.05420000  1.0
  H  H22  1  0.91350000  0.09060000  0.06420000  1.0
  H  H23  1  0.15790000  0.06690000  0.92290000  1.0
  H  H24  1  0.24960000  0.24620000  0.91660000  1.0
  H  H25  1  0.53160000  0.78330000  0.37710000  1.0
  H  H26  1  0.55500000  0.93160000  0.31070000  1.0
  H  H27  1  0.86620000  0.93710000  0.22790000  1.0
  H  H28  1  0.84720000  0.79330000  0.29830000  1.0
  H  H29  1  0.59310000  0.16870000  0.13000000  1.0
  H  H30  1  0.56070000  0.01700000  0.19410000  1.0
  H  H31  1  0.91320000  0.12210000  0.24270000  1.0
  H  H32  1  0.94430000  0.27580000  0.18120000  1.0
  H  H33  1  0.50030000  0.26950000  0.44580000  1.0
  H  H34  1  0.41350000  0.09060000  0.43580000  1.0
  H  H35  1  0.65790000  0.06690000  0.57710000  1.0
  H  H36  1  0.74960000  0.24620000  0.58340000  1.0
  H  H37  1  0.96840000  0.21670000  0.87710000  1.0
  H  H38  1  0.94500000  0.06840000  0.81070000  1.0
  H  H39  1  0.63380000  0.06290000  0.72790000  1.0
  H  H40  1  0.65280000  0.20670000  0.79830000  1.0
  H  H41  1  0.90690000  0.83130000  0.63000000  1.0
  H  H42  1  0.93930000  0.98300000  0.69410000  1.0
  H  H43  1  0.58680000  0.87790000  0.74270000  1.0
  H  H44  1  0.55570000  0.72420000  0.68120000  1.0
  H  H45  1  0.99970000  0.73050000  0.94580000  1.0
  H  H46  1  0.08650000  0.90940000  0.93580000  1.0
  H  H47  1  0.84210000  0.93310000  0.07710000  1.0
  H  H48  1  0.75040000  0.75380000  0.08340000  1.0
  C  C1  1  0.32196000  0.31791000  0.60565000  1.0
  C  C2  1  0.31178000  0.22611000  0.65361000  1.0
  C  C3  1  0.39991000  0.18474000  0.65153000  1.0
  C  C4  1  0.38622000  0.09587000  0.69200000  1.0
  C  C5  1  0.28522000  0.04736000  0.73672000  1.0
  C  C6  1  0.19966000  0.09204000  0.74094000  1.0
  C  C7  1  0.21168000  0.17931000  0.69923000  1.0
  C  C8  1  0.20601000  0.66740000  0.90005000  1.0
  C  C9  1  0.22736000  0.76239000  0.85285000  1.0
  C  C10  1  0.34254000  0.84056000  0.84766000  1.0
  C  C11  1  0.36191000  0.93220000  0.80936000  1.0
  C  C12  1  0.26613000  0.94882000  0.77598000  1.0
  C  C13  1  0.15127000  0.86903000  0.78000000  1.0
  C  C14  1  0.13229000  0.77669000  0.81741000  1.0
  C  C15  1  0.30210000  0.60770000  0.48570000  1.0
  C  C16  1  0.36443000  0.72342000  0.48583000  1.0
  C  C17  1  0.46650000  0.77098000  0.52897000  1.0
  C  C18  1  0.51910000  0.87875000  0.53453000  1.0
  C  C19  1  0.47256000  0.94229000  0.49628000  1.0
  C  C20  1  0.37255000  0.89280000  0.45071000  1.0
  C  C21  1  0.31794000  0.78493000  0.44611000  1.0
  C  C22  1  0.17804000  0.68209000  0.10565000  1.0
  C  C23  1  0.18822000  0.77389000  0.15361000  1.0
  C  C24  1  0.10009000  0.81526000  0.15153000  1.0
  C  C25  1  0.11378000  0.90413000  0.19200000  1.0
  C  C26  1  0.21478000  0.95264000  0.23672000  1.0
  C  C27  1  0.30034000  0.90796000  0.24094000  1.0
  C  C28  1  0.28832000  0.82069000  0.19923000  1.0
  C  C29  1  0.29399000  0.33260000  0.40005000  1.0
  C  C30  1  0.27264000  0.23761000  0.35285000  1.0
  C  C31  1  0.15746000  0.15944000  0.34766000  1.0
  C  C32  1  0.13809000  0.06780000  0.30936000  1.0
  C  C33  1  0.23387000  0.05118000  0.27598000  1.0
  C  C34  1  0.34873000  0.13097000  0.28000000  1.0
  C  C35  1  0.36771000  0.22331000  0.31741000  1.0
  C  C36  1  0.19790000  0.39230000  0.98570000  1.0
  C  C37  1  0.13557000  0.27658000  0.98583000  1.0
  C  C38  1  0.03350000  0.22902000  0.02897000  1.0
  C  C39  1  0.98090000  0.12125000  0.03453000  1.0
  C  C40  1  0.02744000  0.05771000  0.99628000  1.0
  C  C41  1  0.12745000  0.10720000  0.95071000  1.0
  C  C42  1  0.18206000  0.21507000  0.94611000  1.0
  C  C43  1  0.67804000  0.68209000  0.39435000  1.0
  C  C44  1  0.68822000  0.77389000  0.34639000  1.0
  C  C45  1  0.60009000  0.81526000  0.34847000  1.0
  C  C46  1  0.61378000  0.90413000  0.30800000  1.0
  C  C47  1  0.71478000  0.95264000  0.26328000  1.0
  C  C48  1  0.80034000  0.90796000  0.25906000  1.0
  C  C49  1  0.78832000  0.82069000  0.30077000  1.0
  C  C50  1  0.79399000  0.33260000  0.09995000  1.0
  C  C51  1  0.77264000  0.23761000  0.14715000  1.0
  C  C52  1  0.65746000  0.15944000  0.15234000  1.0
  C  C53  1  0.63809000  0.06780000  0.19064000  1.0
  C  C54  1  0.73387000  0.05118000  0.22402000  1.0
  C  C55  1  0.84873000  0.13097000  0.22000000  1.0
  C  C56  1  0.86771000  0.22331000  0.18259000  1.0
  C  C57  1  0.69790000  0.39230000  0.51430000  1.0
  C  C58  1  0.63557000  0.27658000  0.51417000  1.0
  C  C59  1  0.53350000  0.22902000  0.47103000  1.0
  C  C60  1  0.48090000  0.12125000  0.46547000  1.0
  C  C61  1  0.52744000  0.05771000  0.50372000  1.0
  C  C62  1  0.62745000  0.10720000  0.54929000  1.0
  C  C63  1  0.68206000  0.21507000  0.55389000  1.0
  C  C64  1  0.82196000  0.31791000  0.89435000  1.0
  C  C65  1  0.81178000  0.22611000  0.84639000  1.0
  C  C66  1  0.89991000  0.18474000  0.84847000  1.0
  C  C67  1  0.88622000  0.09587000  0.80800000  1.0
  C  C68  1  0.78522000  0.04736000  0.76328000  1.0
  C  C69  1  0.69966000  0.09204000  0.75906000  1.0
  C  C70  1  0.71168000  0.17931000  0.80077000  1.0
  C  C71  1  0.70601000  0.66740000  0.59995000  1.0
  C  C72  1  0.72736000  0.76239000  0.64715000  1.0
  C  C73  1  0.84254000  0.84056000  0.65234000  1.0
  C  C74  1  0.86191000  0.93220000  0.69064000  1.0
  C  C75  1  0.76613000  0.94882000  0.72402000  1.0
  C  C76  1  0.65127000  0.86903000  0.72000000  1.0
  C  C77  1  0.63229000  0.77669000  0.68259000  1.0
  C  C78  1  0.80210000  0.60770000  0.01430000  1.0
  C  C79  1  0.86443000  0.72342000  0.01417000  1.0
  C  C80  1  0.96650000  0.77098000  0.97103000  1.0
  C  C81  1  0.01910000  0.87875000  0.96547000  1.0
  C  C82  1  0.97256000  0.94229000  0.00372000  1.0
  C  C83  1  0.87255000  0.89280000  0.04929000  1.0
  C  C84  1  0.81794000  0.78493000  0.05389000  1.0
  O  O1  1  0.42353000  0.37305000  0.58003000  1.0
  O  O2  1  0.22518000  0.33041000  0.59542000  1.0
  O  O3  1  0.29888000  0.65771000  0.92445000  1.0
  O  O4  1  0.09877000  0.60740000  0.91190000  1.0
  O  O5  1  0.35394000  0.55330000  0.51625000  1.0
  O  O6  1  0.19775000  0.56655000  0.46024000  1.0
  O  O7  1  0.07647000  0.62695000  0.08003000  1.0
  O  O8  1  0.27482000  0.66959000  0.09542000  1.0
  O  O9  1  0.20112000  0.34229000  0.42445000  1.0
  O  O10  1  0.40123000  0.39260000  0.41190000  1.0
  O  O11  1  0.14606000  0.44670000  0.01625000  1.0
  O  O12  1  0.30225000  0.43345000  0.96024000  1.0
  O  O13  1  0.57647000  0.62695000  0.41997000  1.0
  O  O14  1  0.77482000  0.66959000  0.40458000  1.0
  O  O15  1  0.70112000  0.34229000  0.07555000  1.0
  O  O16  1  0.90123000  0.39260000  0.08810000  1.0
  O  O17  1  0.64606000  0.44670000  0.48375000  1.0
  O  O18  1  0.80225000  0.43345000  0.53976000  1.0
  O  O19  1  0.92353000  0.37305000  0.91997000  1.0
  O  O20  1  0.72518000  0.33041000  0.90458000  1.0
  O  O21  1  0.79888000  0.65771000  0.57555000  1.0
  O  O22  1  0.59877000  0.60740000  0.58810000  1.0
  O  O23  1  0.85394000  0.55330000  0.98375000  1.0
  O  O24  1  0.69775000  0.56655000  0.03976000  1.0
