# generated using pymatgen
data_ErHC7(NO3)2
_symmetry_space_group_name_H-M   'P 1'
_cell_length_a   6.56423000
_cell_length_b   10.06604000
_cell_length_c   17.57041000
_cell_angle_alpha   90.31508000
_cell_angle_beta   90.02278000
_cell_angle_gamma   91.35962000
_symmetry_Int_Tables_number   1
_chemical_formula_structural   ErHC7(NO3)2
_chemical_formula_sum   'Er4 H4 C28 N8 O24'
_cell_volume   1160.63435477
_cell_formula_units_Z   4
loop_
 _symmetry_equiv_pos_site_id
 _symmetry_equiv_pos_as_xyz
  1  'x, y, z'
loop_
 _atom_site_type_symbol
 _atom_site_label
 _atom_site_symmetry_multiplicity
 _atom_site_fract_x
 _atom_site_fract_y
 _atom_site_fract_z
 _atom_site_occupancy
  Er  Er1  1  0.76767000  0.75301000  0.62877000  1.0
  Er  Er2  1  0.24264000  0.74397000  0.12533000  1.0
  Er  Er3  1  0.23235000  0.24695000  0.37106000  1.0
  Er  Er4  1  0.75735000  0.25603000  0.87467000  1.0
  H  H1  1  0.74261000  0.21706000  0.66858000  1.0
  H  H2  1  0.25401000  0.27969000  0.17056000  1.0
  H  H3  1  0.25734000  0.78338000  0.33158000  1.0
  H  H4  1  0.74607000  0.71992000  0.82954000  1.0
  C  C1  1  0.75864000  0.60998000  0.46635000  1.0
  C  C2  1  0.75267000  0.49195000  0.52038000  1.0
  C  C3  1  0.74417000  0.35648000  0.50015000  1.0
  C  C4  1  0.73620000  0.30360000  0.41937000  1.0
  C  C5  1  0.74476000  0.29581000  0.62632000  1.0
  C  C6  1  0.75174000  0.42987000  0.64778000  1.0
  C  C7  1  0.75584000  0.48711000  0.72697000  1.0
  C  C8  1  0.24925000  0.88960000  0.96373000  1.0
  C  C9  1  0.25204000  0.00716000  0.01910000  1.0
  C  C10  1  0.25550000  0.14309000  0.00066000  1.0
  C  C11  1  0.25536000  0.19835000  0.92083000  1.0
  C  C12  1  0.25413000  0.20172000  0.12737000  1.0
  C  C13  1  0.25096000  0.06732000  0.14718000  1.0
  C  C14  1  0.24799000  0.01022000  0.22599000  1.0
  C  C15  1  0.24118000  0.38859000  0.53339000  1.0
  C  C16  1  0.24727000  0.50777000  0.47981000  1.0
  C  C17  1  0.25587000  0.64332000  0.49995000  1.0
  C  C18  1  0.26383000  0.69654000  0.58059000  1.0
  C  C19  1  0.25528000  0.70442000  0.37377000  1.0
  C  C20  1  0.24832000  0.57030000  0.35228000  1.0
  C  C21  1  0.24420000  0.51301000  0.27299000  1.0
  C  C22  1  0.75075000  0.11039000  0.03619000  1.0
  C  C23  1  0.74798000  0.99281000  0.98082000  1.0
  C  C24  1  0.74454000  0.85692000  0.99934000  1.0
  C  C25  1  0.74467000  0.80172000  0.07918000  1.0
  C  C26  1  0.74594000  0.79807000  0.87264000  1.0
  C  C27  1  0.74910000  0.93246000  0.85276000  1.0
  C  C28  1  0.75204000  0.98958000  0.77397000  1.0
  N  N1  1  0.75573000  0.52394000  0.59430000  1.0
  N  N2  1  0.74050000  0.25987000  0.55268000  1.0
  N  N3  1  0.25010000  0.97392000  0.09272000  1.0
  N  N4  1  0.25646000  0.23902000  0.05423000  1.0
  N  N5  1  0.24427000  0.47621000  0.40578000  1.0
  N  N6  1  0.25954000  0.74008000  0.44746000  1.0
  N  N7  1  0.74995000  0.02595000  0.90718000  1.0
  N  N8  1  0.74360000  0.76093000  0.94582000  1.0
  O  O1  1  0.90256000  0.27970000  0.38650000  1.0
  O  O2  1  0.08393000  0.22672000  0.89351000  1.0
  O  O3  1  0.43826000  0.72691000  0.60640000  1.0
  O  O4  1  0.57491000  0.77344000  0.10946000  1.0
  O  O5  1  0.09742000  0.72032000  0.61344000  1.0
  O  O6  1  0.91608000  0.77331000  0.10650000  1.0
  O  O7  1  0.56175000  0.27316000  0.39359000  1.0
  O  O8  1  0.42511000  0.22660000  0.89054000  1.0
  O  O9  1  0.77551000  0.72461000  0.50041000  1.0
  O  O10  1  0.74761000  0.58661000  0.39713000  1.0
  O  O11  1  0.75749000  0.41242000  0.78482000  1.0
  O  O12  1  0.75779000  0.61354000  0.73100000  1.0
  O  O13  1  0.24398000  0.77454000  0.99697000  1.0
  O  O14  1  0.25198000  0.91342000  0.89455000  1.0
  O  O15  1  0.24233000  0.08604000  0.28388000  1.0
  O  O16  1  0.25107000  0.88404000  0.22952000  1.0
  O  O17  1  0.22400000  0.27479000  0.49846000  1.0
  O  O18  1  0.25236000  0.40945000  0.60282000  1.0
  O  O19  1  0.24255000  0.58769000  0.21513000  1.0
  O  O20  1  0.24223000  0.38659000  0.26900000  1.0
  O  O21  1  0.75600000  0.22551000  0.00301000  1.0
  O  O22  1  0.74805000  0.08649000  0.10535000  1.0
  O  O23  1  0.75767000  0.91377000  0.71605000  1.0
  O  O24  1  0.74895000  0.11575000  0.77042000  1.0
