# generated using pymatgen
data_H17(C15N2)2
_symmetry_space_group_name_H-M   'P 1'
_cell_length_a   9.98846667
_cell_length_b   56.91200000
_cell_length_c   56.91200000
_cell_angle_alpha   60.00000000
_cell_angle_beta   89.98270000
_cell_angle_gamma   89.98360000
_symmetry_Int_Tables_number   1
_chemical_formula_structural   H17(C15N2)2
_chemical_formula_sum   'H204 C360 N48'
_cell_volume   28017.99973967
_cell_formula_units_Z   12
loop_
 _symmetry_equiv_pos_site_id
 _symmetry_equiv_pos_as_xyz
  1  'x, y, z'
loop_
 _atom_site_type_symbol
 _atom_site_label
 _atom_site_symmetry_multiplicity
 _atom_site_fract_x
 _atom_site_fract_y
 _atom_site_fract_z
 _atom_site_occupancy
  C  1  1  0.01193000  0.46916633  0.21907100  1
  C  2  1  0.01645000  0.46919200  0.24320300  1
  C  3  1  0.02594100  0.49604400  0.23745633  1
  C  5  1  0.02617200  0.49585500  0.19777267  1
  C  6  1  0.02730400  0.50379567  0.16967933  1
  C  7  1  0.03092800  0.53131433  0.14834900  1
  C  9  1  0.03077900  0.57699367  0.12544333  1
  C  10  1  0.02279700  0.56796167  0.10671500  1
  C  11  1  0.02884500  0.54007467  0.12065567  1
  C  12  1  0.03310500  0.60458833  0.11918033  1
  C  13  1  0.03793500  0.61268000  0.13920033  1
  C  15  1  0.03449600  0.61274967  0.17894900  1
  C  16  1  0.03860000  0.63961333  0.15772333  1
  C  17  1  0.04478900  0.63953333  0.13357133  1
  C  18  1  0.02832400  0.60458967  0.20703500  1
  C  19  1  0.03136700  0.57709167  0.22843000  1
  C  21  1  0.02988800  0.53156467  0.25137200  1
  C  22  1  0.02679300  0.54042933  0.27023067  1
  C  23  1  0.03086300  0.56835667  0.25616300  1
  C  24  1  0.02410800  0.50414067  0.25746933  1
  C  25  1  0.00279500  0.48365067  0.28522100  1
  C  26  1  0.10253500  0.47676533  0.30523533  1
  C  27  1  0.08066400  0.45594733  0.33218533  1
  C  28  1  0.96078900  0.44048767  0.33995867  1
  C  29  1  0.86435900  0.44691267  0.31933633  1
  C  30  1  0.88166900  0.46886533  0.29293633  1
  C  31  1  0.00794700  0.62502100  0.21442433  1
  C  32  1  0.10751000  0.64428367  0.21054167  1
  C  33  1  0.08601100  0.66347733  0.21892167  1
  C  34  1  0.96684200  0.66348233  0.23251067  1
  C  35  1  0.87112200  0.64311733  0.23749167  1
  C  36  1  0.88806100  0.62516633  0.22754033  1
  C  37  1  0.02347400  0.62527200  0.09106567  1
  C  38  1  0.91313900  0.64323900  0.08147300  1
  C  39  1  0.89754700  0.66194833  0.05365133  1
  C  40  1  0.98146800  0.66127533  0.03390933  1
  C  41  1  0.09613400  0.64431233  0.04381800  1
  C  42  1  0.11930900  0.62743333  0.07178700  1
  C  43  1  0.01574900  0.48283933  0.16266200  1
  C  44  1  0.90398000  0.48165667  0.14805200  1
  C  45  1  0.11177700  0.46184433  0.17144033  1
  C  46  1  0.08842300  0.43905233  0.16850733  1
  C  47  1  0.97329800  0.43711067  0.15493300  1
  C  48  1  0.88840100  0.46014367  0.14281133  1
  C  75  1  0.01209500  0.21879867  0.24312700  1
  C  76  1  0.01695000  0.24293267  0.21897300  1
  C  77  1  0.02590100  0.23717467  0.19786667  1
  C  79  1  0.02616200  0.19749400  0.23774000  1
  C  80  1  0.02682300  0.16939833  0.25789100  1
  C  81  1  0.03024600  0.14806600  0.25170367  1
  C  83  1  0.03001600  0.12515767  0.22893067  1
  C  84  1  0.02187700  0.10642933  0.25669067  1
  C  85  1  0.02772800  0.12037433  0.27063467  1
  C  86  1  0.03241900  0.11888800  0.20760333  1
  C  87  1  0.03737500  0.13890267  0.17948967  1
  C  89  1  0.03400600  0.17865033  0.13966867  1
  C  90  1  0.03793600  0.15742200  0.13403467  1
  C  91  1  0.04433400  0.13327200  0.15826633  1
  C  92  1  0.02797300  0.20673733  0.11974233  1
  C  93  1  0.03066800  0.22813433  0.12584533  1
  C  95  1  0.02903500  0.25107667  0.14842867  1
  C  96  1  0.02593300  0.26993567  0.12070567  1
  C  97  1  0.02997200  0.25586667  0.10684667  1
  C  98  1  0.02362500  0.25717700  0.16975567  1
  C  99  1  0.00230000  0.28492433  0.16250333  1
  C  100  1  0.10198000  0.30494667  0.14934200  1
  C  101  1  0.08006300  0.33189533  0.14321000  1
  C  102  1  0.96020400  0.33966700  0.15091833  1
  C  103  1  0.86398400  0.31901467  0.16519000  1
  C  104  1  0.88111900  0.29263233  0.16957400  1
  C  105  1  0.00745100  0.21411833  0.09192800  1
  C  106  1  0.10696000  0.21023767  0.07652767  1
  C  107  1  0.08538600  0.21861800  0.04895900  1
  C  108  1  0.96613100  0.23217567  0.03538767  1
  C  109  1  0.87046100  0.23714633  0.05079833  1
  C  110  1  0.88755000  0.22723033  0.07868933  1
  C  111  1  0.02290400  0.09077100  0.21504300  1
  C  112  1  0.91263500  0.08115733  0.20668567  1
  C  113  1  0.89712700  0.05333133  0.21581733  1
  C  114  1  0.98117500  0.03360733  0.23620867  1
  C  115  1  0.09580700  0.04354133  0.24323467  1
  C  116  1  0.11887000  0.07151600  0.23213400  1
  C  117  1  0.01525900  0.16238667  0.28586500  1
  C  118  1  0.90340300  0.14781133  0.30166367  1
  C  119  1  0.11130000  0.17116267  0.29807233  1
  C  120  1  0.08812800  0.16819400  0.32381800  1
  C  121  1  0.97299000  0.15463233  0.33934900  1
  C  122  1  0.88787500  0.14256467  0.32842300  1
  C  149  1  0.01280700  0.24283167  0.46944800  1
  C  150  1  0.01778100  0.21868300  0.46945900  1
  C  151  1  0.02678200  0.19757233  0.49631933  1
  C  153  1  0.02706300  0.23744000  0.49613700  1
  C  154  1  0.02798400  0.25758800  0.50408433  1
  C  155  1  0.03158300  0.25140100  0.53160300  1
  C  157  1  0.03154300  0.22863067  0.57728467  1
  C  158  1  0.02355400  0.25639200  0.56825200  1
  C  159  1  0.02930000  0.27033367  0.54036233  1
  C  160  1  0.03386600  0.20729900  0.60488100  1
  C  161  1  0.03846100  0.17918433  0.61297633  1
  C  163  1  0.03486300  0.13936500  0.61304200  1
  C  164  1  0.03852200  0.13372400  0.63990833  1
  C  165  1  0.04492300  0.15795133  0.63983367  1
  C  166  1  0.02891100  0.11944267  0.60487667  1
  C  167  1  0.03165300  0.12554833  0.57737600  1
  C  169  1  0.02997200  0.14813300  0.53185133  1
  C  170  1  0.02694800  0.12040967  0.54071433  1
  C  171  1  0.03099700  0.10655100  0.56864100  1
  C  172  1  0.02464000  0.16946133  0.50442400  1
  C  173  1  0.00316500  0.16221533  0.48392933  1
  C  174  1  0.10272500  0.14903700  0.47705167  1
  C  175  1  0.08061400  0.14288133  0.45625867  1
  C  176  1  0.96065900  0.15058133  0.44082133  1
  C  177  1  0.86451800  0.16485600  0.44722200  1
  C  178  1  0.88195900  0.16930100  0.46917200  1
  C  179  1  0.00834100  0.09162900  0.62530233  1
  C  180  1  0.10777500  0.07622500  0.64459133  1
  C  181  1  0.08607600  0.04866433  0.66379433  1
  C  182  1  0.96684300  0.03510267  0.66378867  1
  C  183  1  0.87130500  0.05051667  0.64338900  1
  C  184  1  0.88830700  0.07841933  0.62545567  1
  C  185  1  0.02418900  0.21473533  0.62556133  1
  C  186  1  0.91375200  0.20640400  0.64350133  1
  C  187  1  0.89815200  0.21551800  0.66221033  1
  C  188  1  0.98211500  0.23591600  0.66154300  1
  C  189  1  0.09690800  0.24291933  0.64461667  1
  C  190  1  0.12006900  0.23182733  0.62773533  1
  C  191  1  0.01631100  0.28556067  0.48312800  1
  C  192  1  0.90449400  0.30135033  0.48195300  1
  C  193  1  0.11237100  0.29778633  0.46213933  1
  C  194  1  0.08887300  0.32349967  0.43933833  1
  C  195  1  0.97375500  0.33902600  0.43740733  1
  C  196  1  0.88881800  0.32810100  0.46043567  1
  C  223  1  0.01111400  0.48467967  0.73537933  1
  C  224  1  0.01605000  0.48466867  0.71124200  1
  C  225  1  0.02528000  0.45781300  0.71698600  1
  C  227  1  0.02531200  0.45798800  0.75667667  1
  C  228  1  0.02612200  0.45003733  0.78477300  1
  C  229  1  0.02964500  0.42251500  0.80609900  1
  C  231  1  0.02977200  0.37683300  0.82900167  1
  C  232  1  0.02194200  0.38585800  0.84773933  1
  C  233  1  0.02737200  0.41374967  0.83379167  1
  C  234  1  0.03217900  0.34923900  0.83526067  1
  C  235  1  0.03689500  0.34114700  0.81523933  1
  C  237  1  0.03371700  0.34109433  0.77547633  1
  C  238  1  0.03707000  0.31422467  0.79669967  1
  C  239  1  0.04325300  0.31429033  0.82086067  1
  C  240  1  0.02805500  0.34926833  0.74738400  1
  C  241  1  0.03091800  0.37676867  0.72599400  1
  C  243  1  0.02903500  0.42229433  0.70306267  1
  C  244  1  0.02623200  0.41343567  0.68419800  1
  C  245  1  0.03054600  0.38551000  0.69825900  1
  C  246  1  0.02356800  0.44971900  0.69697067  1
  C  247  1  0.00221500  0.47021500  0.66922200  1
  C  248  1  0.10192400  0.47708433  0.64919633  1
  C  249  1  0.08001300  0.49789267  0.62224633  1
  C  250  1  0.96009400  0.51334667  0.61447633  1
  C  251  1  0.86375700  0.50694900  0.63511633  1
  C  252  1  0.88103400  0.48499033  0.66151300  1
  C  253  1  0.00771100  0.32884233  0.73998833  1
  C  254  1  0.10723500  0.30954833  0.74391800  1
  C  255  1  0.08579000  0.29033933  0.73555967  1
  C  256  1  0.96671600  0.29034367  0.72195067  1
  C  257  1  0.87104600  0.31073533  0.71693100  1
  C  258  1  0.88790100  0.32870300  0.72686167  1
  C  259  1  0.02268900  0.32855800  0.86337733  1
  C  260  1  0.91227300  0.31062233  0.87300867  1
  C  261  1  0.89683200  0.29191567  0.90083367  1
  C  262  1  0.98089700  0.29259733  0.92054367  1
  C  263  1  0.09560700  0.30953633  0.91059167  1
  C  264  1  0.11885000  0.32635400  0.88261200  1
  C  265  1  0.01456400  0.47099033  0.79179733  1
  C  266  1  0.90281800  0.47217533  0.80642333  1
  C  267  1  0.11061000  0.49197567  0.78302033  1
  C  268  1  0.08729300  0.51476367  0.78596667  1
  C  269  1  0.97218300  0.51671233  0.79955200  1
  C  270  1  0.88722600  0.49369267  0.81166000  1
  C  297  1  0.01040300  0.73507033  0.71131100  1
  C  298  1  0.01491000  0.71093667  0.73546800  1
  C  299  1  0.02442000  0.71668300  0.75657367  1
  C  301  1  0.02467100  0.75636700  0.71670133  1
  C  302  1  0.02584200  0.78445900  0.69654833  1
  C  303  1  0.02952000  0.80579000  0.70273500  1
  C  305  1  0.02954000  0.82869500  0.72550900  1
  C  306  1  0.02154300  0.84742600  0.69774900  1
  C  307  1  0.02747900  0.83348400  0.68380267  1
  C  308  1  0.03198900  0.83495800  0.74684033  1
  C  309  1  0.03678900  0.81493900  0.77495233  1
  C  311  1  0.03332000  0.77519167  0.81477100  1
  C  312  1  0.03749500  0.79641633  0.82040833  1
  C  313  1  0.04370700  0.82056700  0.79617667  1
  C  314  1  0.02714800  0.74710600  0.83469733  1
  C  315  1  0.03009200  0.72570967  0.82859533  1
  C  317  1  0.02846600  0.70276800  0.80601033  1
  C  318  1  0.02541500  0.68391000  0.83373400  1
  C  319  1  0.02958100  0.69797667  0.84759267  1
  C  320  1  0.02261800  0.69667067  0.78468400  1
  C  321  1  0.00130700  0.66891967  0.79194567  1
  C  322  1  0.10105400  0.64889900  0.80507700  1
  C  323  1  0.07918200  0.62194967  0.81121333  1
  C  324  1  0.95929700  0.61418167  0.80352867  1
  C  325  1  0.86286700  0.63481067  0.78932633  1
  C  326  1  0.88017800  0.66121033  0.78487600  1
  C  327  1  0.00692900  0.73971933  0.86252167  1
  C  328  1  0.10659400  0.74360467  0.87788100  1
  C  329  1  0.08524400  0.73523633  0.90545433  1
  C  330  1  0.96612600  0.72165400  0.91907167  1
  C  331  1  0.87030600  0.71666767  0.90371033  1
  C  332  1  0.88709400  0.72661033  0.87580633  1
  C  333  1  0.02260800  0.86307667  0.73940567  1
  C  334  1  0.91240400  0.87271900  0.74776500  1
  C  335  1  0.89708100  0.90054800  0.73864933  1
  C  336  1  0.98117400  0.92025100  0.71824767  1
  C  337  1  0.09570300  0.91029000  0.71120767  1
  C  338  1  0.11859900  0.88231100  0.72229933  1
  C  339  1  0.01437800  0.79147700  0.66857400  1
  C  340  1  0.90265800  0.80610000  0.65276167  1
  C  341  1  0.11046500  0.78268633  0.65637567  1
  C  342  1  0.08722400  0.78562467  0.63064567  1
  C  343  1  0.97215900  0.79921400  0.61510767  1
  C  344  1  0.88718600  0.81134200  0.62600467  1
  C  371  1  0.01205500  0.71102967  0.48500133  1
  C  372  1  0.01685200  0.73518433  0.48497933  1
  C  373  1  0.02587100  0.75628767  0.45811600  1
  C  375  1  0.02621700  0.71641233  0.45831233  1
  C  376  1  0.02694200  0.69625933  0.45037067  1
  C  377  1  0.03045800  0.70244533  0.42285133  1
  C  379  1  0.03034600  0.72521367  0.37717033  1
  C  380  1  0.02223800  0.69745433  0.38620433  1
  C  381  1  0.02801900  0.68351200  0.41409367  1
  C  382  1  0.03279600  0.74654100  0.34957333  1
  C  383  1  0.03768600  0.77465500  0.34147167  1
  C  385  1  0.03425100  0.81447900  0.34139433  1
  C  386  1  0.03819500  0.82011000  0.31453233  1
  C  387  1  0.04463300  0.79587733  0.31461667  1
  C  388  1  0.02817900  0.83440700  0.34955233  1
  C  389  1  0.03081200  0.82830600  0.37705067  1
  C  391  1  0.02904500  0.80572500  0.42257700  1
  C  392  1  0.02594600  0.83344800  0.41371133  1
  C  393  1  0.03007100  0.84730500  0.38578500  1
  C  394  1  0.02355300  0.78439900  0.45000433  1
  C  395  1  0.00207000  0.79165500  0.47049433  1
  C  396  1  0.10165900  0.80481100  0.47737667  1
  C  397  1  0.07957800  0.81094500  0.49818733  1
  C  398  1  0.95965400  0.80324200  0.51364133  1
  C  399  1  0.86352700  0.78897600  0.50723933  1
  C  400  1  0.88082300  0.78458967  0.48524500  1
  C  401  1  0.00767700  0.86222200  0.32911533  1
  C  402  1  0.10720600  0.87761400  0.30984167  1
  C  403  1  0.08565000  0.90518400  0.29065033  1
  C  404  1  0.96638600  0.91876500  0.29062500  1
  C  405  1  0.87068600  0.90336300  0.31099733  1
  C  406  1  0.88776500  0.87547100  0.32897667  1
  C  407  1  0.02327300  0.73909933  0.32889700  1
  C  408  1  0.91299400  0.74745867  0.31092600  1
  C  409  1  0.89748800  0.73832500  0.29223267  1
  C  410  1  0.98154900  0.71792900  0.29290500  1
  C  411  1  0.09618800  0.71090100  0.30986433  1
  C  412  1  0.11925000  0.72200333  0.32673700  1
  C  413  1  0.01529800  0.66828733  0.47133267  1
  C  414  1  0.90343800  0.65250567  0.47253133  1
  C  415  1  0.11124000  0.65606533  0.49233667  1
  C  416  1  0.08796800  0.63032467  0.51510967  1
  C  417  1  0.97282300  0.61481067  0.51705433  1
  C  418  1  0.88781600  0.62574933  0.49404133  1
  C  445  1  0.94620800  0.41702833  0.36646633  1
  C  446  1  0.82400200  0.40540033  0.38046167  1
  C  447  1  0.82449400  0.37804567  0.40277400  1
  C  448  1  0.95005100  0.36497900  0.41354933  1
  C  451  1  0.69883200  0.36497400  0.41219833  1
  C  452  1  0.57777300  0.37930600  0.40329867  1
  C  453  1  0.57960500  0.40718400  0.38469400  1
  C  454  1  0.70156200  0.42002233  0.37321200  1
  C  459  1  0.94564400  0.36616333  0.14789767  1
  C  460  1  0.82343100  0.38013900  0.14558200  1
  C  461  1  0.82398300  0.40245033  0.15062500  1
  C  462  1  0.94957200  0.41324300  0.15286067  1
  C  465  1  0.69835800  0.41187233  0.15430633  1
  C  466  1  0.57726600  0.40299067  0.14887833  1
  C  467  1  0.57898900  0.38433067  0.13967467  1
  C  468  1  0.70093400  0.37287300  0.13825733  1
  C  473  1  0.94587800  0.14745867  0.41741200  1
  C  474  1  0.82356100  0.14521867  0.40574600  1
  C  475  1  0.82392300  0.15029633  0.37837967  1
  C  476  1  0.94941700  0.15253633  0.36530733  1
  C  479  1  0.69821600  0.15401200  0.36530900  1
  C  480  1  0.57719700  0.14860067  0.37965300  1
  C  481  1  0.57908000  0.13936267  0.40752367  1
  C  482  1  0.70113000  0.13790233  0.42037133  1
  C  487  1  0.94537100  0.53675467  0.58793700  1
  C  488  1  0.82312600  0.54843400  0.57399967  1
  C  489  1  0.82359600  0.57580067  0.55171167  1
  C  490  1  0.94914200  0.58885600  0.54091100  1
  C  493  1  0.69792700  0.58888767  0.54232433  1
  C  494  1  0.57686700  0.57456467  0.55123500  1
  C  495  1  0.57868900  0.54668733  0.56984300  1
  C  496  1  0.70067000  0.53382467  0.58127400  1
  C  501  1  0.94470100  0.58767133  0.80658567  1
  C  502  1  0.82248600  0.57368533  0.80895433  1
  C  503  1  0.82296100  0.55136700  0.80392200  1
  C  504  1  0.94850600  0.54057667  0.80164000  1
  C  507  1  0.69729000  0.54195200  0.80027300  1
  C  508  1  0.57624200  0.55086667  0.80569867  1
  C  509  1  0.57808900  0.56947667  0.81496400  1
  C  510  1  0.70005400  0.58094967  0.81632100  1
  C  515  1  0.94493200  0.80626200  0.53711467  1
  C  516  1  0.82264000  0.80858100  0.54875133  1
  C  517  1  0.82305200  0.80353800  0.57610600  1
  C  518  1  0.94857400  0.80129400  0.58916000  1
  C  521  1  0.69736600  0.79986400  0.58918467  1
  C  522  1  0.57633600  0.80529700  0.57485100  1
  C  523  1  0.57818800  0.81449700  0.54698867  1
  C  524  1  0.70020000  0.81591000  0.53413633  1
  C  529  1  0.95729600  0.70542267  0.27667433  1
  C  530  1  0.83147100  0.70043667  0.26797933  1
  C  531  1  0.83041100  0.69019133  0.24949467  1
  C  532  1  0.95247100  0.68077967  0.24403867  1
  C  535  1  0.70756200  0.68997100  0.23707533  1
  C  536  1  0.58585200  0.69589567  0.24529367  1
  C  537  1  0.58470100  0.70171933  0.26644967  1
  C  538  1  0.70607700  0.70391667  0.27763300  1
  C  543  1  0.95664500  0.27637500  0.94928467  1
  C  544  1  0.83080500  0.26769300  0.96297833  1
  C  545  1  0.82972400  0.24920133  0.99170700  1
  C  546  1  0.95178900  0.24376367  0.00655567  1
  C  549  1  0.70685700  0.23678433  0.00435433  1
  C  550  1  0.58516600  0.24500133  0.99021667  1
  C  551  1  0.58403500  0.26618400  0.96324867  1
  C  552  1  0.70543500  0.27734633  0.94985233  1
  C  557  1  0.95705000  0.94899300  0.70574000  1
  C  558  1  0.83127500  0.96271000  0.70073500  1
  C  559  1  0.83033300  0.99144400  0.69046400  1
  C  560  1  0.95245400  0.00627067  0.68100933  1
  C  563  1  0.70754300  0.00412167  0.69023067  1
  C  564  1  0.58578700  0.99000400  0.69618333  1
  C  565  1  0.58450600  0.96303000  0.70198967  1
  C  566  1  0.70583000  0.94960300  0.70423367  1
  C  571  1  0.95771600  0.24841633  0.67777700  1
  C  572  1  0.83180100  0.25340867  0.68645400  1
  C  573  1  0.83056900  0.26364867  0.70494300  1
  C  574  1  0.95255600  0.27304600  0.71042300  1
  C  577  1  0.70762700  0.26388167  0.71734067  1
  C  578  1  0.58598800  0.25799367  0.70908267  1
  C  579  1  0.58502100  0.25215733  0.68793467  1
  C  580  1  0.70649600  0.24993100  0.67678433  1
  C  585  1  0.95706500  0.67750967  0.00517767  1
  C  586  1  0.83116000  0.68619600  0.99152100  1
  C  587  1  0.82994000  0.70467767  0.96278967  1
  C  588  1  0.95191500  0.71013433  0.94789933  1
  C  591  1  0.70702100  0.71709033  0.95017433  1
  C  592  1  0.58539200  0.70886733  0.96434167  1
  C  593  1  0.58438700  0.68771267  0.99132100  1
  C  594  1  0.70584000  0.67653533  0.00467900  1
  C  599  1  0.95691500  0.00487033  0.24871633  1
  C  600  1  0.83107500  0.99118600  0.25370900  1
  C  601  1  0.82999900  0.96245700  0.26395000  1
  C  602  1  0.95205000  0.94759800  0.27337800  1
  C  605  1  0.70714700  0.94981700  0.26417000  1
  C  606  1  0.58545600  0.96396400  0.25823133  1
  C  607  1  0.58430600  0.99093500  0.25243667  1
  C  608  1  0.70569500  0.00432467  0.25021300  1
  H  49  1  0.81100800  0.46131700  0.13055167  1
  H  50  1  0.83312300  0.49666500  0.14084333  1
  H  51  1  0.15590700  0.42345567  0.17714333  1
  H  52  1  0.19455600  0.46195533  0.18199533  1
  H  53  1  0.99871500  0.45196100  0.21796000  1
  H  54  1  0.00928800  0.45201167  0.26175767  1
  H  55  1  0.04581500  0.53045400  0.20026033  1
  H  56  1  0.02729400  0.57806633  0.17642733  1
  H  57  1  0.02625100  0.52851267  0.11155100  1
  H  58  1  0.01492800  0.57926733  0.08610233  1
  H  59  1  0.84285300  0.64288633  0.09474300  1
  H  60  1  0.82061300  0.67552700  0.04804633  1
  H  61  1  0.20165400  0.61505233  0.07788600  1
  H  62  1  0.16314600  0.64339467  0.03069233  1
  H  63  1  0.05017900  0.65673500  0.11499700  1
  H  64  1  0.03846500  0.65687933  0.15900500  1
  H  65  1  0.02183600  0.52890700  0.29088467  1
  H  66  1  0.03029600  0.58003367  0.26516200  1
  H  67  1  0.19671300  0.64441500  0.20161633  1
  H  68  1  0.16067700  0.67711233  0.21560100  1
  H  69  1  0.81544400  0.61093767  0.23154700  1
  H  70  1  0.78881300  0.64038967  0.24925367  1
  H  71  1  0.80852000  0.47277933  0.27883067  1
  H  72  1  0.78140300  0.43510033  0.32289367  1
  H  73  1  0.15569200  0.45164233  0.34600300  1
  H  74  1  0.19216400  0.48683333  0.30027433  1
  H  123  1  0.81045200  0.13031400  0.33951367  1
  H  124  1  0.83247200  0.14062067  0.29386833  1
  H  125  1  0.15579000  0.17678633  0.33078567  1
  H  126  1  0.19426600  0.18164767  0.28741367  1
  H  127  1  0.99821800  0.21768633  0.26143033  1
  H  128  1  0.00872200  0.26147833  0.21758667  1
  H  129  1  0.04516800  0.19997167  0.20064633  1
  H  130  1  0.02743200  0.17613100  0.17688267  1
  H  131  1  0.02539000  0.11126500  0.29130367  1
  H  132  1  0.01400800  0.08581733  0.26599567  1
  H  133  1  0.84229400  0.09441367  0.19377867  1
  H  134  1  0.82029300  0.04770733  0.20784567  1
  H  135  1  0.20104300  0.07763267  0.23843633  1
  H  136  1  0.16276500  0.03042967  0.25729567  1
  H  137  1  0.04904300  0.11469367  0.15963600  1
  H  138  1  0.03755000  0.15870033  0.11548733  1
  H  139  1  0.02122200  0.29059200  0.11157333  1
  H  140  1  0.02988200  0.26486367  0.08617100  1
  H  141  1  0.19620200  0.20132400  0.08530033  1
  H  142  1  0.16006500  0.21531333  0.03862733  1
  H  143  1  0.81490200  0.23122567  0.08892100  1
  H  144  1  0.78820600  0.24893033  0.04177600  1
  H  145  1  0.80820500  0.27850033  0.17986467  1
  H  146  1  0.78105800  0.32256733  0.17346633  1
  H  147  1  0.15504100  0.34572033  0.13367033  1
  H  148  1  0.19160600  0.29999067  0.14421733  1
  H  197  1  0.81149400  0.33919767  0.46163033  1
  H  198  1  0.83366300  0.29354933  0.49696600  1
  H  199  1  0.15642200  0.33047100  0.42375267  1
  H  200  1  0.19510700  0.28710400  0.46224567  1
  H  201  1  0.99926700  0.26114467  0.45225300  1
  H  202  1  0.00968200  0.21730167  0.45229600  1
  H  203  1  0.04631500  0.20034733  0.53074000  1
  H  204  1  0.02933000  0.17658200  0.57834233  1
  H  205  1  0.02702300  0.29100300  0.52880100  1
  H  206  1  0.01582100  0.26570300  0.57955667  1
  H  207  1  0.84339500  0.19351333  0.64313233  1
  H  208  1  0.82113300  0.20757367  0.67577033  1
  H  209  1  0.20244400  0.23810067  0.61536300  1
  H  210  1  0.16388000  0.25696900  0.64368433  1
  H  211  1  0.04986500  0.15931233  0.65704467  1
  H  212  1  0.03807100  0.11517500  0.65717233  1
  H  213  1  0.02228700  0.11127767  0.52919033  1
  H  214  1  0.03092300  0.08587433  0.58032067  1
  H  215  1  0.19704000  0.08498767  0.64472567  1
  H  216  1  0.16075700  0.03831833  0.67741400  1
  H  217  1  0.81586300  0.08864000  0.61118300  1
  H  218  1  0.78903600  0.04150000  0.64063300  1
  H  219  1  0.80900500  0.17954333  0.47307700  1
  H  220  1  0.78144300  0.17309767  0.43543967  1
  H  221  1  0.15547100  0.13330833  0.45197767  1
  H  222  1  0.19237300  0.14390033  0.48711467  1
  H  271  1  0.80993100  0.49250833  0.82395333  1
  H  272  1  0.83198600  0.45716733  0.81364600  1
  H  273  1  0.15481500  0.53034833  0.77733567  1
  H  274  1  0.19340400  0.49185900  0.77246100  1
  H  275  1  0.99754700  0.50187467  0.73649733  1
  H  276  1  0.00838200  0.50184433  0.69269533  1
  H  277  1  0.04484900  0.42339167  0.75418033  1
  H  278  1  0.02823400  0.37578967  0.77800167  1
  H  279  1  0.02571100  0.42531167  0.84290233  1
  H  280  1  0.01462000  0.37454700  0.86835967  1
  H  281  1  0.84181300  0.31099533  0.85976400  1
  H  282  1  0.81982700  0.27835533  0.90646833  1
  H  283  1  0.20097900  0.33878567  0.87650233  1
  H  284  1  0.16265400  0.31047000  0.92369600  1
  H  285  1  0.04799200  0.29707433  0.83943133  1
  H  286  1  0.03662300  0.29696167  0.79541267  1
  H  287  1  0.02154700  0.42496167  0.66354200  1
  H  288  1  0.03030700  0.37383633  0.68925700  1
  H  289  1  0.19636900  0.30940733  0.75285900  1
  H  290  1  0.16048600  0.27670100  0.73889067  1
  H  291  1  0.81530100  0.34294567  0.72283200  1
  H  292  1  0.78881200  0.31346733  0.70515667  1
  H  293  1  0.80796400  0.48108800  0.67563733  1
  H  294  1  0.78068200  0.51874067  0.63155267  1
  H  295  1  0.15492100  0.50215500  0.60840800  1
  H  296  1  0.19155200  0.46700833  0.65414867  1
  H  345  1  0.80982600  0.82360900  0.61490467  1
  H  346  1  0.83177000  0.81331700  0.66054867  1
  H  347  1  0.15475100  0.77698267  0.62369633  1
  H  348  1  0.19320900  0.77212133  0.66705767  1
  H  349  1  0.99719200  0.73618267  0.69299300  1
  H  350  1  0.00774200  0.69238300  0.73684300  1
  H  351  1  0.04431800  0.75387667  0.75378933  1
  H  352  1  0.02605200  0.77771300  0.77756600  1
  H  353  1  0.02486100  0.84258900  0.66313633  1
  H  354  1  0.01374600  0.86803900  0.68844400  1
  H  355  1  0.84201200  0.85948000  0.76067400  1
  H  356  1  0.82022400  0.90618900  0.74660933  1
  H  357  1  0.20085400  0.87617400  0.71602833  1
  H  358  1  0.16281000  0.92338500  0.69717133  1
  H  359  1  0.04916300  0.83914100  0.79480367  1
  H  360  1  0.03740500  0.79513633  0.83895533  1
  H  361  1  0.02044100  0.66325633  0.84286633  1
  H  362  1  0.02907500  0.68897733  0.86826900  1
  H  363  1  0.19576600  0.75252533  0.86906900  1
  H  364  1  0.15998100  0.73855933  0.91575200  1
  H  365  1  0.81440200  0.72260300  0.86559900  1
  H  366  1  0.78803000  0.70490933  0.91276067  1
  H  367  1  0.80702200  0.67532033  0.77468333  1
  H  368  1  0.77990200  0.63125667  0.78107267  1
  H  369  1  0.15421400  0.60812700  0.82072833  1
  H  370  1  0.19069100  0.65385533  0.81018433  1
  H  419  1  0.81040200  0.61466967  0.49286467  1
  H  420  1  0.83257800  0.66031067  0.45753067  1
  H  421  1  0.15555600  0.62334700  0.53068333  1
  H  422  1  0.19420500  0.66671200  0.49218033  1
  H  423  1  0.99813300  0.69272767  0.50219167  1
  H  424  1  0.00854200  0.73657300  0.50213600  1
  H  425  1  0.04529300  0.75350233  0.42369833  1
  H  426  1  0.02774900  0.77726667  0.37609067  1
  H  427  1  0.02568200  0.66284367  0.42565433  1
  H  428  1  0.01443800  0.68814733  0.37489833  1
  H  429  1  0.84264500  0.76036867  0.31127367  1
  H  430  1  0.82064900  0.74629833  0.27863633  1
  H  431  1  0.20142900  0.71569967  0.33915533  1
  H  432  1  0.16316000  0.69683667  0.31081667  1
  H  433  1  0.04936500  0.79450567  0.29740967  1
  H  434  1  0.03779100  0.83865600  0.29726367  1
  H  435  1  0.02118600  0.84258200  0.42523367  1
  H  436  1  0.02999600  0.86798100  0.37410467  1
  H  437  1  0.19645400  0.86883400  0.30971000  1
  H  438  1  0.16034200  0.91550900  0.27702067  1
  H  439  1  0.81509700  0.86524600  0.34319633  1
  H  440  1  0.78842100  0.91239200  0.31375000  1
  H  441  1  0.80797300  0.77430267  0.48138867  1
  H  442  1  0.78055700  0.78070267  0.51905033  1
  H  443  1  0.15449500  0.82048100  0.50248967  1
  H  444  1  0.19133200  0.80993100  0.46731600  1
  H  455  1  0.69245000  0.34457533  0.42512233  1
  H  456  1  0.48858000  0.36956033  0.41078767  1
  H  457  1  0.49184300  0.41786233  0.37861533  1
  H  458  1  0.69922800  0.44032933  0.35948233  1
  H  469  1  0.69203500  0.42483333  0.16173700  1
  H  470  1  0.48808600  0.41048133  0.15115533  1
  H  471  1  0.49122300  0.37829367  0.13504367  1
  H  472  1  0.69854300  0.35914333  0.13168067  1
  H  483  1  0.69177900  0.16146533  0.34491600  1
  H  484  1  0.48795400  0.15089467  0.36990867  1
  H  485  1  0.49136900  0.13473633  0.41821667  1
  H  486  1  0.69886700  0.13130300  0.44068367  1
  H  497  1  0.69154000  0.60928467  0.52939467  1
  H  498  1  0.48767000  0.58431933  0.54376100  1
  H  499  1  0.49092800  0.53601367  0.57590467  1
  H  500  1  0.69835700  0.51351267  0.59498467  1
  H  511  1  0.69089300  0.52902367  0.79280500  1
  H  512  1  0.48704200  0.54338333  0.80344067  1
  H  513  1  0.49033200  0.57556567  0.81955733  1
  H  514  1  0.69773100  0.59468367  0.82289267  1
  H  525  1  0.69095000  0.79243667  0.60957367  1
  H  526  1  0.48710900  0.80302400  0.58460033  1
  H  527  1  0.49046800  0.81913100  0.53630367  1
  H  528  1  0.69790500  0.82248600  0.51383100  1
  H  539  1  0.70473400  0.68557167  0.22173967  1
  H  540  1  0.49785100  0.69488633  0.23664567  1
  H  541  1  0.49570800  0.70482467  0.27338967  1
  H  542  1  0.70009000  0.70736700  0.29353100  1
  H  553  1  0.70400400  0.22145100  0.02408933  1
  H  554  1  0.49713000  0.23638467  0.99988733  1
  H  555  1  0.49504800  0.27313300  0.95321333  1
  H  556  1  0.69946800  0.29327100  0.93051600  1
  H  567  1  0.70479000  0.02386467  0.68580700  1
  H  568  1  0.49780600  0.99969467  0.69513100  1
  H  569  1  0.49547400  0.95300200  0.70511133  1
  H  570  1  0.69976000  0.93025900  0.70767100  1
  H  581  1  0.70466900  0.26827933  0.73267600  1
  H  582  1  0.49791500  0.25899133  0.71772533  1
  H  583  1  0.49608900  0.24906667  0.68097400  1
  H  584  1  0.70064400  0.24651267  0.66086400  1
  H  595  1  0.70408400  0.73242400  0.93043900  1
  H  596  1  0.49733500  0.71751000  0.95470033  1
  H  597  1  0.49545300  0.68076767  0.00138433  1
  H  598  1  0.69996000  0.66063633  0.02403000  1
  H  609  1  0.70430400  0.93008100  0.26857567  1
  H  610  1  0.49742900  0.95429900  0.25927700  1
  H  611  1  0.49531800  0.00097933  0.24933467  1
  H  612  1  0.69970900  0.02366367  0.24679300  1
  N  4  1  0.03492700  0.51109533  0.20999167  1
  N  8  1  0.03420000  0.55418367  0.15012033  1
  N  14  1  0.03572800  0.59747333  0.16671167  1
  N  20  1  0.03309000  0.55426367  0.22665033  1
  N  78  1  0.03487700  0.20971000  0.21028033  1
  N  82  1  0.03355000  0.14983400  0.22706333  1
  N  88  1  0.03516200  0.16641433  0.16718000  1
  N  94  1  0.03242900  0.22635600  0.15045200  1
  N  152  1  0.03577300  0.20998067  0.51137400  1
  N  156  1  0.03485100  0.22676100  0.55447533  1
  N  162  1  0.03615300  0.16687800  0.59777367  1
  N  168  1  0.03338100  0.15015500  0.55454867  1
  N  226  1  0.03413100  0.44275333  0.74445200  1
  N  230  1  0.03292900  0.39964633  0.80432500  1
  N  236  1  0.03483700  0.35635500  0.78772933  1
  N  242  1  0.03238900  0.39959367  0.72777933  1
  N  300  1  0.03341600  0.74414667  0.74416133  1
  N  304  1  0.03285500  0.80401800  0.72737667  1
  N  310  1  0.03450600  0.78742767  0.78725733  1
  N  316  1  0.03172900  0.72748900  0.80398733  1
  N  374  1  0.03494600  0.74387133  0.44306833  1
  N  378  1  0.03379500  0.72708367  0.39997867  1
  N  384  1  0.03544300  0.78696733  0.35667100  1
  N  390  1  0.03251900  0.80370000  0.39988033  1
  N  449  1  0.06080200  0.37883667  0.39970200  1
  N  450  1  0.05912100  0.40244933  0.37771767  1
  N  463  1  0.06031800  0.39940633  0.15281367  1
  N  464  1  0.05860900  0.37742067  0.15118600  1
  N  477  1  0.06025100  0.15247533  0.37916333  1
  N  478  1  0.05869800  0.15081033  0.40279267  1
  N  491  1  0.05990600  0.57498733  0.55474033  1
  N  492  1  0.05824900  0.55135867  0.57670500  1
  N  505  1  0.05927100  0.55441633  0.80164800  1
  N  506  1  0.05760800  0.57640633  0.80326667  1
  N  519  1  0.05940000  0.80133800  0.57529800  1
  N  520  1  0.05782400  0.80296800  0.55168333  1
  N  533  1  0.06564300  0.68547567  0.25420300  1
  N  534  1  0.06776100  0.69736133  0.26865167  1
  N  547  1  0.06500100  0.25389567  0.99169167  1
  N  548  1  0.06711500  0.26833967  0.96535733  1
  N  561  1  0.06560800  0.99138100  0.68578167  1
  N  562  1  0.06759500  0.96504400  0.69769700  1
  N  575  1  0.06582600  0.26834833  0.70027233  1
  N  576  1  0.06809000  0.25646800  0.68581967  1
  N  589  1  0.06517200  0.69997767  0.96273833  1
  N  590  1  0.06743900  0.68553433  0.98907200  1
  N  603  1  0.06526600  0.96245300  0.26865933  1
  N  604  1  0.06737900  0.98878800  0.25676867  1
