# generated using pymatgen
data_H31C42N4O
_symmetry_space_group_name_H-M   'P 1'
_cell_length_a   29.92540000
_cell_length_b   29.92540000
_cell_length_c   59.85040000
_cell_angle_alpha   89.94630000
_cell_angle_beta   90.05370000
_cell_angle_gamma   90.00000000
_symmetry_Int_Tables_number   1
_chemical_formula_structural   H31C42N4O
_chemical_formula_sum   'H248 C336 N32 O8'
_cell_volume   53597.75560515
_cell_formula_units_Z   8
loop_
 _symmetry_equiv_pos_site_id
 _symmetry_equiv_pos_as_xyz
  1  'x, y, z'
loop_
 _atom_site_type_symbol
 _atom_site_label
 _atom_site_symmetry_multiplicity
 _atom_site_fract_x
 _atom_site_fract_y
 _atom_site_fract_z
 _atom_site_occupancy
  H  73  1  0.39310100  0.01900100  0.03026700  1
  H  74  1  0.31322900  0.01547200  0.03039800  1
  H  75  1  0.39446400  0.98003300  0.96260200  1
  H  76  1  0.31462200  0.97657100  0.96258300  1
  H  77  1  0.25052600  0.93266700  0.98018800  1
  H  78  1  0.17059900  0.93197400  0.97962500  1
  H  79  1  0.24840700  0.05840600  0.01216000  1
  H  80  1  0.16856100  0.05763500  0.01150000  1
  H  81  1  0.14328900  0.97049000  0.03858600  1
  H  82  1  0.08330500  0.96862400  0.06833200  1
  H  83  1  0.02515400  0.00716300  0.00958700  1
  H  84  1  0.96866400  0.00103400  0.98128800  1
  H  85  1  0.14666500  0.00845400  0.95027600  1
  H  86  1  0.08661000  0.00886800  0.92025400  1
  H  87  1  0.99175900  0.92838400  0.90877000  1
  H  88  1  0.99029200  0.92901700  0.86883200  1
  H  89  1  0.00095900  0.06909800  0.90929200  1
  H  90  1  0.99892300  0.06998900  0.86934100  1
  H  91  1  0.90727400  0.99146800  0.92051700  1
  H  92  1  0.84731400  0.99110700  0.95036300  1
  H  93  1  0.90648300  0.01031800  0.06984800  1
  H  94  1  0.84659500  0.01092300  0.03983400  1
  H  95  1  0.82342100  0.06823900  0.99511800  1
  H  96  1  0.74358100  0.06796000  0.99574300  1
  H  97  1  0.82408900  0.92729500  0.99516000  1
  H  98  1  0.74429500  0.92675100  0.99501800  1
  H  99  1  0.67969400  0.94369000  0.01889200  1
  H  100  1  0.60056300  0.94308400  0.01940500  1
  H  101  1  0.59855200  0.05023800  0.97344000  1
  H  102  1  0.67776100  0.05050300  0.97280500  1
  H  103  1  0.95494600  0.93347500  0.08074000  1
  H  104  1  0.95208100  0.93243200  0.12020800  1
  H  105  1  0.00725700  0.05553600  0.15605600  1
  H  106  1  0.01071900  0.05206700  0.19559100  1
  H  107  1  0.97949300  0.91491600  0.19350600  1
  H  108  1  0.98166700  0.91654600  0.15396300  1
  H  109  1  0.03948000  0.04346300  0.12224700  1
  H  110  1  0.03732400  0.04765000  0.08276300  1
  H  111  1  0.04547400  0.04689300  0.83624900  1
  H  112  1  0.04335100  0.04737500  0.79664900  1
  H  113  1  0.94017600  0.95307300  0.83745700  1
  H  114  1  0.93785100  0.95353100  0.79783700  1
  H  187  1  0.01883900  0.59671900  0.53043200  1
  H  188  1  0.01508300  0.67658800  0.53065600  1
  H  189  1  0.97913200  0.59554200  0.46283300  1
  H  190  1  0.97539000  0.67537500  0.46292000  1
  H  191  1  0.93118800  0.73905900  0.48087000  1
  H  192  1  0.93009900  0.81898800  0.48035000  1
  H  193  1  0.05762500  0.74171600  0.51225500  1
  H  194  1  0.05648400  0.82157100  0.51161500  1
  H  195  1  0.96982800  0.84698500  0.53909200  1
  H  196  1  0.96849100  0.90729200  0.56868100  1
  H  197  1  0.00573400  0.96485200  0.50961700  1
  H  198  1  0.99864000  0.02104600  0.48118200  1
  H  199  1  0.00561000  0.84274400  0.45061600  1
  H  200  1  0.00492500  0.90243700  0.42044200  1
  H  201  1  0.92376400  0.99647600  0.40932300  1
  H  202  1  0.92280100  0.99512100  0.36938300  1
  H  203  1  0.06449500  0.98755800  0.40873500  1
  H  204  1  0.06378800  0.98678100  0.36877300  1
  H  205  1  0.98757500  0.08175700  0.42029200  1
  H  206  1  0.98827400  0.14208900  0.44997400  1
  H  207  1  0.01013000  0.08414400  0.56953900  1
  H  208  1  0.01017400  0.14371600  0.53937200  1
  H  209  1  0.06679500  0.16619800  0.49469300  1
  H  210  1  0.06683900  0.24603200  0.49538800  1
  H  211  1  0.92585300  0.16609100  0.49475900  1
  H  212  1  0.92563000  0.24588300  0.49467900  1
  H  213  1  0.94286900  0.31020500  0.51865900  1
  H  214  1  0.94251100  0.38932000  0.51933200  1
  H  215  1  0.04957500  0.39138100  0.47341600  1
  H  216  1  0.04959400  0.31216900  0.47262400  1
  H  217  1  0.93348500  0.03583600  0.58085900  1
  H  218  1  0.93301500  0.03888700  0.62032400  1
  H  219  1  0.05650100  0.98355500  0.65594300  1
  H  220  1  0.05353400  0.98025600  0.69548500  1
  H  221  1  0.91644700  0.01185900  0.69368200  1
  H  222  1  0.91755400  0.00951700  0.65414000  1
  H  223  1  0.04399300  0.95139200  0.62216700  1
  H  224  1  0.04762800  0.95338200  0.58267700  1
  H  225  1  0.03971000  0.93714300  0.33723000  1
  H  226  1  0.03885700  0.93526600  0.29760400  1
  H  227  1  0.94561500  0.04221600  0.33645000  1
  H  228  1  0.94473500  0.04053600  0.29685200  1
  H  237  1  0.11893200  0.97603600  0.25622600  1
  H  238  1  0.14542300  0.93069100  0.24285400  1
  H  239  1  0.10029100  0.92067100  0.26100500  1
  H  241  1  0.10306800  0.01395000  0.21647700  1
  H  242  1  0.08615800  0.97820700  0.19448500  1
  H  243  1  0.13725300  0.96905100  0.20775200  1
  H  245  1  0.10557900  0.88423000  0.21554800  1
  H  246  1  0.05633900  0.90092100  0.20230300  1
  H  247  1  0.05403100  0.87926400  0.22974500  1
  H  249  1  0.92904200  0.01019500  0.26241100  1
  H  258  1  0.97782400  0.87288100  0.75663600  1
  H  259  1  0.93226900  0.84639100  0.74340300  1
  H  260  1  0.92256800  0.89177000  0.76143300  1
  H  262  1  0.01542900  0.88811600  0.71680500  1
  H  263  1  0.97959400  0.90496100  0.69480500  1
  H  264  1  0.97031700  0.85403400  0.70821000  1
  H  266  1  0.88568400  0.88606600  0.71605800  1
  H  267  1  0.90244100  0.93505100  0.70261600  1
  H  268  1  0.88104300  0.93782900  0.73007800  1
  H  270  1  0.01272700  0.06271700  0.76221000  1
  H  279  1  0.52281800  0.12358300  0.99367600  1
  H  280  1  0.48862900  0.15408300  0.97516600  1
  H  281  1  0.51925600  0.10789400  0.96520000  1
  H  283  1  0.45446900  0.10741600  0.02048300  1
  H  284  1  0.40247900  0.09422600  0.00809000  1
  H  285  1  0.42791500  0.14538100  0.00211000  1
  H  287  1  0.44463000  0.06896800  0.95038200  1
  H  288  1  0.42302300  0.12192200  0.95777300  1
  H  289  1  0.39656500  0.07369400  0.96742000  1
  H  291  1  0.53046700  0.93140400  0.00432300  1
  H  300  1  0.12308300  0.46714900  0.49367700  1
  H  301  1  0.15345000  0.50137800  0.47515900  1
  H  302  1  0.10720300  0.47075400  0.46521400  1
  H  304  1  0.10704600  0.53547200  0.52052900  1
  H  305  1  0.09382000  0.58747400  0.50814600  1
  H  306  1  0.14492300  0.56200900  0.50214000  1
  H  308  1  0.06818500  0.54535700  0.45045100  1
  H  309  1  0.12113800  0.56704700  0.45783600  1
  H  310  1  0.07290200  0.59340100  0.46750600  1
  H  312  1  0.93090600  0.45946600  0.50435700  1
  H  385  1  0.12577000  0.78508600  0.94672540  1
  H  386  1  0.04589800  0.78155700  0.94685640  1
  H  387  1  0.12713300  0.74611800  0.87906000  1
  H  388  1  0.04729100  0.74265600  0.87904100  1
  H  389  1  0.98319460  0.69875200  0.89664600  1
  H  390  1  0.90326760  0.69805900  0.89608300  1
  H  391  1  0.98107560  0.82449100  0.92861840  1
  H  392  1  0.90122960  0.82372000  0.92795840  1
  H  393  1  0.87595800  0.73657500  0.95504440  1
  H  394  1  0.81597400  0.73470900  0.98479040  1
  H  395  1  0.75782300  0.77324800  0.92604540  1
  H  396  1  0.70133300  0.76711900  0.89774600  1
  H  397  1  0.87933400  0.77453900  0.86673400  1
  H  398  1  0.81927900  0.77495300  0.83671200  1
  H  399  1  0.72442800  0.69446900  0.82522800  1
  H  400  1  0.72296100  0.69510200  0.78529000  1
  H  401  1  0.73362800  0.83518300  0.82575000  1
  H  402  1  0.73159200  0.83607400  0.78579900  1
  H  403  1  0.63994300  0.75755300  0.83697500  1
  H  404  1  0.57998300  0.75719200  0.86682100  1
  H  405  1  0.63915200  0.77640300  0.98630640  1
  H  406  1  0.57926400  0.77700800  0.95629240  1
  H  407  1  0.55609000  0.83432400  0.91157640  1
  H  408  1  0.47625000  0.83404500  0.91220140  1
  H  409  1  0.55675800  0.69338000  0.91161840  1
  H  410  1  0.47696400  0.69283600  0.91147640  1
  H  411  1  0.41236300  0.70977500  0.93535040  1
  H  412  1  0.33323200  0.70916900  0.93586340  1
  H  413  1  0.33122100  0.81632300  0.88989800  1
  H  414  1  0.41043000  0.81658800  0.88926300  1
  H  415  1  0.68761500  0.69956000  0.99719837  1
  H  416  1  0.68475000  0.69851700  0.03666600  1
  H  417  1  0.73992600  0.82162100  0.07251400  1
  H  418  1  0.74338800  0.81815200  0.11204900  1
  H  419  1  0.71216200  0.68100100  0.10996400  1
  H  420  1  0.71433600  0.68263100  0.07042100  1
  H  421  1  0.77214900  0.80954800  0.03870500  1
  H  422  1  0.76999300  0.81373500  0.99922137  1
  H  423  1  0.77814300  0.81297800  0.75270700  1
  H  424  1  0.77602000  0.81346000  0.71310700  1
  H  425  1  0.67284500  0.71915800  0.75391500  1
  H  426  1  0.67052000  0.71961600  0.71429500  1
  H  499  1  0.75150800  0.36280400  0.44689000  1
  H  500  1  0.74775200  0.44267300  0.44711400  1
  H  501  1  0.71180100  0.36162700  0.37929100  1
  H  502  1  0.70805900  0.44146000  0.37937800  1
  H  503  1  0.66385700  0.50514400  0.39732800  1
  H  504  1  0.66276800  0.58507300  0.39680800  1
  H  505  1  0.79029400  0.50780100  0.42871300  1
  H  506  1  0.78915300  0.58765600  0.42807300  1
  H  507  1  0.70249700  0.61307000  0.45555000  1
  H  508  1  0.70116000  0.67337700  0.48513900  1
  H  509  1  0.73840300  0.73093700  0.42607500  1
  H  510  1  0.73130900  0.78713100  0.39764000  1
  H  511  1  0.73827900  0.60882900  0.36707400  1
  H  512  1  0.73759400  0.66852200  0.33690000  1
  H  513  1  0.65643300  0.76256100  0.32578100  1
  H  514  1  0.65547000  0.76120600  0.28584100  1
  H  515  1  0.79716400  0.75364300  0.32519300  1
  H  516  1  0.79645700  0.75286600  0.28523100  1
  H  517  1  0.72024400  0.84784200  0.33675000  1
  H  518  1  0.72094300  0.90817400  0.36643200  1
  H  519  1  0.74279900  0.85022900  0.48599700  1
  H  520  1  0.74284300  0.90980100  0.45583000  1
  H  521  1  0.79946400  0.93228300  0.41115100  1
  H  522  1  0.79950800  0.01211700  0.41184600  1
  H  523  1  0.65852200  0.93217600  0.41121700  1
  H  524  1  0.65829900  0.01196800  0.41113700  1
  H  525  1  0.67553800  0.07629000  0.43511700  1
  H  526  1  0.67518000  0.15540500  0.43579000  1
  H  527  1  0.78224400  0.15746600  0.38987400  1
  H  528  1  0.78226300  0.07825400  0.38908200  1
  H  529  1  0.66615400  0.80192100  0.49731700  1
  H  530  1  0.66568400  0.80497200  0.53678200  1
  H  531  1  0.78917000  0.74964000  0.57240100  1
  H  532  1  0.78620300  0.74634100  0.61194300  1
  H  533  1  0.64911600  0.77794400  0.61014000  1
  H  534  1  0.65022300  0.77560200  0.57059800  1
  H  535  1  0.77666200  0.71747700  0.53862500  1
  H  536  1  0.78029700  0.71946700  0.49913500  1
  H  537  1  0.77237900  0.70322800  0.25368800  1
  H  538  1  0.77152600  0.70135100  0.21406200  1
  H  539  1  0.67828400  0.80830100  0.25290800  1
  H  540  1  0.67740400  0.80662100  0.21331000  1
  H  549  1  0.85160100  0.74212100  0.17268400  1
  H  550  1  0.87809200  0.69677600  0.15931200  1
  H  551  1  0.83296000  0.68675600  0.17746300  1
  H  553  1  0.83573700  0.78003500  0.13293500  1
  H  554  1  0.81882700  0.74429200  0.11094300  1
  H  555  1  0.86992200  0.73513600  0.12421000  1
  H  557  1  0.83824800  0.65031500  0.13200600  1
  H  558  1  0.78900800  0.66700600  0.11876100  1
  H  559  1  0.78670000  0.64534900  0.14620300  1
  H  561  1  0.66171100  0.77628000  0.17886900  1
  H  570  1  0.71049300  0.63896600  0.67309400  1
  H  571  1  0.66493800  0.61247600  0.65986100  1
  H  572  1  0.65523700  0.65785500  0.67789100  1
  H  574  1  0.74809800  0.65420100  0.63326300  1
  H  575  1  0.71226300  0.67104600  0.61126300  1
  H  576  1  0.70298600  0.62011900  0.62466800  1
  H  578  1  0.61835300  0.65215100  0.63251600  1
  H  579  1  0.63511000  0.70113600  0.61907400  1
  H  580  1  0.61371200  0.70391400  0.64653600  1
  H  582  1  0.74539600  0.82880200  0.67866800  1
  H  591  1  0.25548700  0.88966800  0.91013440  1
  H  592  1  0.22129800  0.92016800  0.89162400  1
  H  593  1  0.25192500  0.87397900  0.88165800  1
  H  595  1  0.18713800  0.87350100  0.93694140  1
  H  596  1  0.13514800  0.86031100  0.92454840  1
  H  597  1  0.16058400  0.91146600  0.91856840  1
  H  599  1  0.17729900  0.83505300  0.86684000  1
  H  600  1  0.15569200  0.88800700  0.87423100  1
  H  601  1  0.12923400  0.83977900  0.88387800  1
  H  603  1  0.26313600  0.69748900  0.92078140  1
  H  612  1  0.85575200  0.23323400  0.41013500  1
  H  613  1  0.88611900  0.26746300  0.39161700  1
  H  614  1  0.83987200  0.23683900  0.38167200  1
  H  616  1  0.83971500  0.30155700  0.43698700  1
  H  617  1  0.82648900  0.35355900  0.42460400  1
  H  618  1  0.87759200  0.32809400  0.41859800  1
  H  620  1  0.80085400  0.31144200  0.36690900  1
  H  621  1  0.85380700  0.33313200  0.37429400  1
  H  622  1  0.80557100  0.35948600  0.38396400  1
  H  624  1  0.66357500  0.22555100  0.42081500  1
  C  1  1  0.11040800  0.97793900  0.03579600  1
  C  2  1  0.07764000  0.97679700  0.05199000  1
  C  3  1  0.03695400  0.98858600  0.04211900  1
  C  5  1  0.09049800  0.98980500  0.01552900  1
  C  6  1  0.11391700  0.99484000  0.99496800  1
  C  7  1  0.09230100  0.99900000  0.97391300  1
  C  9  1  0.03922600  0.00006200  0.94744000  1
  C  10  1  0.08059600  0.00527100  0.93697000  1
  C  11  1  0.11321800  0.00514000  0.95328900  1
  C  12  1  0.99701700  0.99813400  0.93659000  1
  C  13  1  0.95518500  0.99531300  0.94781800  1
  C  15  1  0.90171800  0.99508600  0.97439700  1
  C  16  1  0.88086900  0.99202300  0.95356200  1
  C  17  1  0.91356300  0.99224500  0.93730500  1
  C  18  1  0.87901600  0.99782000  0.99523200  1
  C  19  1  0.90078900  0.99988600  0.01630100  1
  C  21  1  0.95369300  0.99829600  0.04286200  1
  C  22  1  0.91253300  0.00590500  0.05319600  1
  C  23  1  0.87990300  0.00615300  0.03689900  1
  C  24  1  0.99563700  0.99300100  0.05377100  1
  C  25  1  0.99602200  0.99093800  0.07776100  1
  C  26  1  0.01966500  0.02280100  0.09054100  1
  C  27  1  0.02018700  0.02058500  0.11404300  1
  C  28  1  0.99562800  0.98771900  0.12601800  1
  C  29  1  0.97157600  0.95631100  0.11288800  1
  C  30  1  0.97256000  0.95718700  0.08937800  1
  C  31  1  0.99541600  0.98617900  0.15021300  1
  C  32  1  0.98709900  0.94595200  0.16216600  1
  C  33  1  0.98677800  0.94446700  0.18568000  1
  C  34  1  0.99795300  0.98256500  0.19832700  1
  C  35  1  0.00460800  0.02327200  0.18687100  1
  C  36  1  0.00313700  0.02495700  0.16336800  1
  C  37  1  0.83124600  0.99781000  0.99507800  1
  C  38  1  0.80695000  0.03824800  0.99504800  1
  C  39  1  0.75986400  0.03791300  0.99524300  1
  C  40  1  0.73539000  0.99731200  0.99541500  1
  C  41  1  0.76027500  0.95697300  0.99532700  1
  C  42  1  0.80734400  0.95713700  0.99520500  1
  C  43  1  0.68734700  0.99698400  0.99570100  1
  C  44  1  0.66207800  0.02781500  0.98291800  1
  C  45  1  0.61500500  0.02751300  0.98324100  1
  C  46  1  0.59076900  0.99616800  0.99623100  1
  C  47  1  0.61606200  0.96549600  0.00910300  1
  C  48  1  0.66315600  0.96590000  0.00884000  1
  C  49  1  0.99664900  0.99866700  0.91273800  1
  C  50  1  0.99341200  0.95839000  0.90057400  1
  C  51  1  0.99216400  0.95892200  0.87706100  1
  C  52  1  0.99444600  0.99958500  0.86495100  1
  C  53  1  0.99800200  0.03976500  0.87734600  1
  C  54  1  0.99886500  0.03940000  0.90087000  1
  C  55  1  0.99296300  0.00006400  0.84102500  1
  C  56  1  0.02203700  0.02753300  0.82840400  1
  C  57  1  0.02060600  0.02792100  0.80487700  1
  C  58  1  0.98990300  0.00102000  0.79288800  1
  C  59  1  0.96099400  0.97338800  0.80558500  1
  C  60  1  0.96243200  0.97295000  0.82909500  1
  C  61  1  0.16184700  0.99479400  0.99544200  1
  C  62  1  0.18670600  0.95884300  0.98649800  1
  C  63  1  0.18551400  0.03097100  0.00495600  1
  C  64  1  0.23258500  0.03121700  0.00545200  1
  C  65  1  0.25772700  0.99558600  0.99625900  1
  C  66  1  0.23379300  0.95944700  0.98673600  1
  C  67  1  0.30562000  0.99648800  0.99638100  1
  C  68  1  0.33057200  0.98545900  0.97704600  1
  C  69  1  0.37760600  0.98778400  0.97696700  1
  C  70  1  0.40125100  0.00243000  0.99606000  1
  C  71  1  0.37681000  0.01046000  0.01583600  1
  C  72  1  0.32976000  0.00859200  0.01583600  1
  C  115  1  0.97718900  0.87984300  0.53618400  1
  C  116  1  0.97632500  0.91279400  0.55228800  1
  C  117  1  0.98786400  0.95338600  0.54225800  1
  C  119  1  0.98857600  0.89955700  0.51581400  1
  C  120  1  0.99316800  0.87593300  0.49529400  1
  C  121  1  0.99675200  0.89734600  0.47416800  1
  C  123  1  0.99684300  0.95012800  0.44754800  1
  C  124  1  0.00177900  0.90864600  0.43715900  1
  C  125  1  0.00227400  0.87621200  0.45356300  1
  C  126  1  0.99453800  0.99221200  0.43658800  1
  C  127  1  0.99219200  0.03418500  0.44770500  1
  C  129  1  0.99288700  0.08795900  0.47413600  1
  C  130  1  0.98932800  0.10857300  0.45325800  1
  C  131  1  0.98891200  0.07568400  0.43709200  1
  C  132  1  0.99616600  0.11086700  0.49490000  1
  C  133  1  0.99862800  0.08929700  0.51601800  1
  C  135  1  0.99751900  0.03666600  0.54272900  1
  C  136  1  0.00537400  0.07792700  0.55292300  1
  C  137  1  0.00534700  0.11038100  0.53653900  1
  C  138  1  0.99248700  0.99483900  0.55377500  1
  C  139  1  0.99087500  0.99470600  0.57777300  1
  C  140  1  0.02293100  0.97113700  0.59049800  1
  C  141  1  0.02102700  0.97069200  0.61400700  1
  C  142  1  0.98834000  0.99531100  0.62604200  1
  C  143  1  0.95679300  0.01936200  0.61296400  1
  C  144  1  0.95730500  0.01824000  0.58945400  1
  C  145  1  0.98710300  0.99557000  0.65024200  1
  C  146  1  0.94705100  0.00402500  0.66228100  1
  C  147  1  0.94587100  0.00444200  0.68579600  1
  C  148  1  0.98410200  0.99321700  0.69836700  1
  C  149  1  0.02463600  0.98639300  0.68682400  1
  C  150  1  0.02602200  0.98777400  0.66331700  1
  C  151  1  0.99633600  0.15864000  0.49463400  1
  C  152  1  0.03686700  0.18278600  0.49461900  1
  C  153  1  0.03672700  0.22987300  0.49487000  1
  C  154  1  0.99622700  0.25451400  0.49508000  1
  C  155  1  0.95578900  0.22978300  0.49496300  1
  C  156  1  0.95576300  0.18271300  0.49479000  1
  C  157  1  0.99609400  0.30256300  0.49547500  1
  C  158  1  0.02700300  0.32784300  0.48277300  1
  C  159  1  0.02682700  0.37491900  0.48317900  1
  C  160  1  0.99556700  0.39914800  0.49619300  1
  C  161  1  0.96487300  0.37383800  0.50901500  1
  C  162  1  0.96514600  0.32674800  0.50866800  1
  C  163  1  0.99421300  0.99218700  0.41273500  1
  C  164  1  0.95345900  0.99458500  0.40088900  1
  C  165  1  0.95304500  0.99412600  0.37736700  1
  C  166  1  0.99320800  0.99087500  0.36494200  1
  C  167  1  0.03389900  0.98846900  0.37702700  1
  C  168  1  0.03448200  0.98929400  0.40054900  1
  C  169  1  0.99261500  0.98975900  0.34101400  1
  C  170  1  0.01968400  0.95943200  0.32895900  1
  C  171  1  0.01901500  0.95826400  0.30544700  1
  C  172  1  0.99116100  0.98722700  0.29287400  1
  C  173  1  0.96430700  0.01772700  0.30498800  1
  C  174  1  0.96495300  0.01891300  0.32851300  1
  C  175  1  0.99322700  0.82800900  0.49587900  1
  C  176  1  0.95717000  0.80299700  0.48711500  1
  C  177  1  0.02972500  0.80450100  0.50521700  1
  C  178  1  0.03021400  0.75743200  0.50568300  1
  C  179  1  0.99450000  0.73214800  0.49663900  1
  C  180  1  0.95800800  0.75591400  0.48732300  1
  C  181  1  0.99566500  0.68426900  0.49668900  1
  C  182  1  0.98452800  0.65938000  0.47734100  1
  C  183  1  0.98703800  0.61235700  0.47719600  1
  C  184  1  0.00193000  0.58867600  0.49624500  1
  C  185  1  0.01013400  0.61304900  0.51602900  1
  C  186  1  0.00809500  0.66009600  0.51609100  1
  C  229  1  0.03436000  0.96712700  0.23569300  1
  C  230  1  0.99776000  0.98154600  0.22207400  1
  C  231  1  0.95907000  0.99799900  0.23302600  1
  C  233  1  0.99126300  0.98602700  0.26892400  1
  C  235  1  0.07931400  0.94833500  0.22821400  1
  C  236  1  0.11310600  0.94362200  0.24830600  1
  C  240  1  0.10274000  0.97933300  0.21067200  1
  C  244  1  0.07330700  0.90031000  0.21835700  1
  C  250  1  0.96902500  0.95724100  0.73586400  1
  C  251  1  0.98342800  0.99363500  0.72211800  1
  C  252  1  0.00010800  0.03240000  0.73293200  1
  C  254  1  0.98843700  0.00065100  0.76894000  1
  C  256  1  0.95000400  0.91226400  0.72854400  1
  C  257  1  0.94535900  0.87872600  0.74874300  1
  C  261  1  0.98076900  0.88853300  0.71103200  1
  C  265  1  0.90191200  0.91831300  0.71873000  1
  C  271  1  0.47568600  0.04137000  0.99099400  1
  C  272  1  0.44883200  0.00316800  0.99615200  1
  C  273  1  0.47129800  0.96262500  0.00121100  1
  C  275  1  0.54278700  0.99641100  0.99650300  1
  C  277  1  0.45993900  0.08836800  0.98505100  1
  C  278  1  0.50012900  0.12050800  0.97942200  1
  C  282  1  0.43467100  0.11004400  0.00518500  1
  C  286  1  0.42919000  0.08807300  0.96387800  1
  C  292  1  0.04083700  0.51424400  0.49107400  1
  C  293  1  0.00267800  0.54109100  0.49628700  1
  C  294  1  0.96214800  0.51862200  0.50132100  1
  C  296  1  0.99587800  0.44713300  0.49652600  1
  C  298  1  0.08778900  0.53002400  0.48510700  1
  C  299  1  0.11990500  0.48986200  0.47943500  1
  C  303  1  0.10960100  0.55527300  0.50523100  1
  C  307  1  0.08733200  0.56081000  0.46394600  1
  C  313  1  0.84307700  0.74402400  0.95225440  1
  C  314  1  0.81030900  0.74288200  0.96844840  1
  C  315  1  0.76962300  0.75467100  0.95857740  1
  C  317  1  0.82316700  0.75589000  0.93198740  1
  C  318  1  0.84658600  0.76092500  0.91142640  1
  C  319  1  0.82497000  0.76508500  0.89037100  1
  C  321  1  0.77189500  0.76614700  0.86389800  1
  C  322  1  0.81326500  0.77135600  0.85342800  1
  C  323  1  0.84588700  0.77122500  0.86974700  1
  C  324  1  0.72968600  0.76421900  0.85304800  1
  C  325  1  0.68785400  0.76139800  0.86427600  1
  C  327  1  0.63438700  0.76117100  0.89085500  1
  C  328  1  0.61353800  0.75810800  0.87002000  1
  C  329  1  0.64623200  0.75833000  0.85376300  1
  C  330  1  0.61168500  0.76390500  0.91169040  1
  C  331  1  0.63345800  0.76597100  0.93275940  1
  C  333  1  0.68636200  0.76438100  0.95932040  1
  C  334  1  0.64520200  0.77199000  0.96965440  1
  C  335  1  0.61257200  0.77223800  0.95335740  1
  C  336  1  0.72830600  0.75908600  0.97022940  1
  C  337  1  0.72869100  0.75702300  0.99421937  1
  C  338  1  0.75233400  0.78888600  0.00699900  1
  C  339  1  0.75285600  0.78667000  0.03050100  1
  C  340  1  0.72829700  0.75380400  0.04247600  1
  C  341  1  0.70424500  0.72239600  0.02934600  1
  C  342  1  0.70522900  0.72327200  0.00583600  1
  C  343  1  0.72808500  0.75226400  0.06667100  1
  C  344  1  0.71976800  0.71203700  0.07862400  1
  C  345  1  0.71944700  0.71055200  0.10213800  1
  C  346  1  0.73062200  0.74865000  0.11478500  1
  C  347  1  0.73727700  0.78935700  0.10332900  1
  C  348  1  0.73580600  0.79104200  0.07982600  1
  C  349  1  0.56391500  0.76389500  0.91153640  1
  C  350  1  0.53961900  0.80433300  0.91150640  1
  C  351  1  0.49253300  0.80399800  0.91170140  1
  C  352  1  0.46805900  0.76339700  0.91187340  1
  C  353  1  0.49294400  0.72305800  0.91178540  1
  C  354  1  0.54001300  0.72322200  0.91166340  1
  C  355  1  0.42001600  0.76306900  0.91215940  1
  C  356  1  0.39474700  0.79390000  0.89937600  1
  C  357  1  0.34767400  0.79359800  0.89969900  1
  C  358  1  0.32343800  0.76225300  0.91268940  1
  C  359  1  0.34873100  0.73158100  0.92556140  1
  C  360  1  0.39582500  0.73198500  0.92529840  1
  C  361  1  0.72931800  0.76475200  0.82919600  1
  C  362  1  0.72608100  0.72447500  0.81703200  1
  C  363  1  0.72483300  0.72500700  0.79351900  1
  C  364  1  0.72711500  0.76567000  0.78140900  1
  C  365  1  0.73067100  0.80585000  0.79380400  1
  C  366  1  0.73153400  0.80548500  0.81732800  1
  C  367  1  0.72563200  0.76614900  0.75748300  1
  C  368  1  0.75470600  0.79361800  0.74486200  1
  C  369  1  0.75327500  0.79400600  0.72133500  1
  C  370  1  0.72257200  0.76710500  0.70934600  1
  C  371  1  0.69366300  0.73947300  0.72204300  1
  C  372  1  0.69510100  0.73903500  0.74555300  1
  C  373  1  0.89451600  0.76087900  0.91190040  1
  C  374  1  0.91937460  0.72492800  0.90295640  1
  C  375  1  0.91818260  0.79705600  0.92141440  1
  C  376  1  0.96525360  0.79730200  0.92191040  1
  C  377  1  0.99039557  0.76167100  0.91271740  1
  C  378  1  0.96646160  0.72553200  0.90319440  1
  C  379  1  0.03828900  0.76257300  0.91283940  1
  C  380  1  0.06324100  0.75154400  0.89350400  1
  C  381  1  0.11027500  0.75386900  0.89342500  1
  C  382  1  0.13392000  0.76851500  0.91251840  1
  C  383  1  0.10947900  0.77654500  0.93229440  1
  C  384  1  0.06242900  0.77467700  0.93229440  1
  C  427  1  0.70985800  0.64592800  0.45264200  1
  C  428  1  0.70899400  0.67887900  0.46874600  1
  C  429  1  0.72053300  0.71947100  0.45871600  1
  C  431  1  0.72124500  0.66564200  0.43227200  1
  C  432  1  0.72583700  0.64201800  0.41175200  1
  C  433  1  0.72942100  0.66343100  0.39062600  1
  C  435  1  0.72951200  0.71621300  0.36400600  1
  C  436  1  0.73444800  0.67473100  0.35361700  1
  C  437  1  0.73494300  0.64229700  0.37002100  1
  C  438  1  0.72720700  0.75829700  0.35304600  1
  C  439  1  0.72486100  0.80027000  0.36416300  1
  C  441  1  0.72555600  0.85404400  0.39059400  1
  C  442  1  0.72199700  0.87465800  0.36971600  1
  C  443  1  0.72158100  0.84176900  0.35355000  1
  C  444  1  0.72883500  0.87695200  0.41135800  1
  C  445  1  0.73129700  0.85538200  0.43247600  1
  C  447  1  0.73018800  0.80275100  0.45918700  1
  C  448  1  0.73804300  0.84401200  0.46938100  1
  C  449  1  0.73801600  0.87646600  0.45299700  1
  C  450  1  0.72515600  0.76092400  0.47023300  1
  C  451  1  0.72354400  0.76079100  0.49423100  1
  C  452  1  0.75560000  0.73722200  0.50695600  1
  C  453  1  0.75369600  0.73677700  0.53046500  1
  C  454  1  0.72100900  0.76139600  0.54250000  1
  C  455  1  0.68946200  0.78544700  0.52942200  1
  C  456  1  0.68997400  0.78432500  0.50591200  1
  C  457  1  0.71977200  0.76165500  0.56670000  1
  C  458  1  0.67972000  0.77011000  0.57873900  1
  C  459  1  0.67854000  0.77052700  0.60225400  1
  C  460  1  0.71677100  0.75930200  0.61482500  1
  C  461  1  0.75730500  0.75247800  0.60328200  1
  C  462  1  0.75869100  0.75385900  0.57977500  1
  C  463  1  0.72900500  0.92472500  0.41109200  1
  C  464  1  0.76953600  0.94887100  0.41107700  1
  C  465  1  0.76939600  0.99595800  0.41132800  1
  C  466  1  0.72889600  0.02059900  0.41153800  1
  C  467  1  0.68845800  0.99586800  0.41142100  1
  C  468  1  0.68843200  0.94879800  0.41124800  1
  C  469  1  0.72876300  0.06864800  0.41193300  1
  C  470  1  0.75967200  0.09392800  0.39923100  1
  C  471  1  0.75949600  0.14100400  0.39963700  1
  C  472  1  0.72823600  0.16523300  0.41265100  1
  C  473  1  0.69754200  0.13992300  0.42547300  1
  C  474  1  0.69781500  0.09283300  0.42512600  1
  C  475  1  0.72688200  0.75827200  0.32919300  1
  C  476  1  0.68612800  0.76067000  0.31734700  1
  C  477  1  0.68571400  0.76021100  0.29382500  1
  C  478  1  0.72587700  0.75696000  0.28140000  1
  C  479  1  0.76656800  0.75455400  0.29348500  1
  C  480  1  0.76715100  0.75537900  0.31700700  1
  C  481  1  0.72528400  0.75584400  0.25747200  1
  C  482  1  0.75235300  0.72551700  0.24541700  1
  C  483  1  0.75168400  0.72434900  0.22190500  1
  C  484  1  0.72383000  0.75331200  0.20933200  1
  C  485  1  0.69697600  0.78381200  0.22144600  1
  C  486  1  0.69762200  0.78499800  0.24497100  1
  C  487  1  0.72589600  0.59409400  0.41233700  1
  C  488  1  0.68983900  0.56908200  0.40357300  1
  C  489  1  0.76239400  0.57058600  0.42167500  1
  C  490  1  0.76288300  0.52351700  0.42214100  1
  C  491  1  0.72716900  0.49823300  0.41309700  1
  C  492  1  0.69067700  0.52199900  0.40378100  1
  C  493  1  0.72833400  0.45035400  0.41314700  1
  C  494  1  0.71719700  0.42546500  0.39379900  1
  C  495  1  0.71970700  0.37844200  0.39365400  1
  C  496  1  0.73459900  0.35476100  0.41270300  1
  C  497  1  0.74280300  0.37913400  0.43248700  1
  C  498  1  0.74076400  0.42618100  0.43254900  1
  C  541  1  0.76702900  0.73321200  0.15215100  1
  C  542  1  0.73042900  0.74763100  0.13853200  1
  C  543  1  0.69173900  0.76408400  0.14948400  1
  C  545  1  0.72393200  0.75211200  0.18538200  1
  C  547  1  0.81198300  0.71442000  0.14467200  1
  C  548  1  0.84577500  0.70970700  0.16476400  1
  C  552  1  0.83540900  0.74541800  0.12713000  1
  C  556  1  0.80597600  0.66639500  0.13481500  1
  C  562  1  0.70169400  0.72332600  0.65232200  1
  C  563  1  0.71609700  0.75972000  0.63857600  1
  C  564  1  0.73277700  0.79848500  0.64939000  1
  C  566  1  0.72110600  0.76673600  0.68539800  1
  C  568  1  0.68267300  0.67834900  0.64500200  1
  C  569  1  0.67802800  0.64481100  0.66520100  1
  C  573  1  0.71343800  0.65461800  0.62749000  1
  C  577  1  0.63458100  0.68439800  0.63518800  1
  C  583  1  0.20835500  0.80745500  0.90745240  1
  C  584  1  0.18150100  0.76925300  0.91261040  1
  C  585  1  0.20396700  0.72871000  0.91766940  1
  C  587  1  0.27545600  0.76249600  0.91296140  1
  C  589  1  0.19260800  0.85445300  0.90150940  1
  C  590  1  0.23279800  0.88659300  0.89588000  1
  C  594  1  0.16734000  0.87612900  0.92164340  1
  C  598  1  0.16185900  0.85415800  0.88033600  1
  C  604  1  0.77350600  0.28032900  0.40753200  1
  C  605  1  0.73534700  0.30717600  0.41274500  1
  C  606  1  0.69481700  0.28470700  0.41777900  1
  C  608  1  0.72854700  0.21321800  0.41298400  1
  C  610  1  0.82045800  0.29610900  0.40156500  1
  C  611  1  0.85257400  0.25594700  0.39589300  1
  C  615  1  0.84227000  0.32135800  0.42168900  1
  C  619  1  0.82000100  0.32689500  0.38040400  1
  N  4  1  0.04637300  0.99518700  0.02015700  1
  N  8  1  0.04801600  0.99624800  0.96953900  1
  N  14  1  0.94618300  0.99658400  0.97001500  1
  N  20  1  0.94490500  0.99521300  0.02074000  1
  N  118  1  0.99401400  0.94373500  0.52029700  1
  N  122  1  0.99373600  0.94157500  0.46969400  1
  N  128  1  0.99418900  0.04344600  0.46986600  1
  N  134  1  0.99403100  0.04522600  0.52059600  1
  N  232  1  0.95674700  0.99973800  0.25570800  1
  N  234  1  0.02798600  0.97045100  0.25818400  1
  N  253  1  0.00210500  0.03497400  0.75560200  1
  N  255  1  0.97262300  0.96385500  0.75833000  1
  N  274  1  0.51673100  0.96026500  0.00129800  1
  N  276  1  0.52078900  0.03484300  0.99161000  1
  N  295  1  0.95977300  0.47319200  0.50136400  1
  N  297  1  0.03429500  0.46913700  0.49163800  1
  N  316  1  0.77904200  0.76127200  0.93661540  1
  N  320  1  0.78068500  0.76233300  0.88599700  1
  N  326  1  0.67885200  0.76266900  0.88647300  1
  N  332  1  0.67757400  0.76129800  0.93719840  1
  N  430  1  0.72668300  0.70982000  0.43675500  1
  N  434  1  0.72640500  0.70766000  0.38615200  1
  N  440  1  0.72685800  0.80953100  0.38632400  1
  N  446  1  0.72670000  0.81131100  0.43705400  1
  N  544  1  0.68941600  0.76582300  0.17216600  1
  N  546  1  0.76065500  0.73653600  0.17464200  1
  N  565  1  0.73477400  0.80105900  0.67206000  1
  N  567  1  0.70529200  0.72994000  0.67478800  1
  N  586  1  0.24940000  0.72635000  0.91775640  1
  N  588  1  0.25345800  0.80092800  0.90806840  1
  N  607  1  0.69244200  0.23927700  0.41782200  1
  N  609  1  0.76696400  0.23522200  0.40809600  1
  O  248  1  0.92302800  0.01228000  0.22124400  1
  O  269  1  0.01435400  0.06827200  0.72102400  1
  O  290  1  0.44816200  0.92480800  0.00597000  1
  O  311  1  0.92435900  0.54174700  0.50611300  1
  O  560  1  0.65569700  0.77836500  0.13770200  1
  O  581  1  0.74702300  0.83435700  0.63748200  1
  O  602  1  0.18083100  0.69089300  0.92242840  1
  O  623  1  0.65702800  0.30783200  0.42257100  1
