# generated using pymatgen
data_CuH8C19N2O9
_symmetry_space_group_name_H-M   'P 1'
_cell_length_a   7.42657000
_cell_length_b   8.67301000
_cell_length_c   23.53740000
_cell_angle_alpha   92.45555000
_cell_angle_beta   94.22073000
_cell_angle_gamma   103.09521000
_symmetry_Int_Tables_number   1
_chemical_formula_structural   CuH8C19N2O9
_chemical_formula_sum   'Cu2 H16 C38 N4 O18'
_cell_volume   1469.86354276
_cell_formula_units_Z   2
loop_
 _symmetry_equiv_pos_site_id
 _symmetry_equiv_pos_as_xyz
  1  'x, y, z'
loop_
 _atom_site_type_symbol
 _atom_site_label
 _atom_site_symmetry_multiplicity
 _atom_site_fract_x
 _atom_site_fract_y
 _atom_site_fract_z
 _atom_site_occupancy
  Cu  Cu0  1  0.31562000  0.48262000  0.49366000  1
  Cu  Cu1  1  0.68438000  0.51738000  0.50634000  1
  H  H2  1  0.67860000  0.88868000  0.06547000  1
  H  H3  1  0.94824000  0.37788000  0.45533000  1
  H  H4  1  0.71087000  0.04736000  0.97728000  1
  H  H5  1  0.32116000  0.94136000  0.02158000  1
  H  H6  1  0.81484000  0.40292000  0.83962000  1
  H  H7  1  0.88641000  0.58395000  0.17789000  1
  H  H8  1  0.25105000  0.69199000  0.63195000  1
  H  H9  1  0.16832000  0.27116000  0.35138000  1
  H  H10  1  0.34826000  0.10157000  0.93501000  1
  H  H11  1  0.73730000  0.40551000  0.67963000  1
  H  H12  1  0.79871000  0.59259000  0.33352000  1
  H  H13  1  0.26924000  0.59811000  0.78487000  1
  H  H14  1  0.23560000  0.37772000  0.20249000  1
  H  H15  1  0.71467000  0.04039000  0.50741000  1
  H  H16  1  0.28529000  0.95961000  0.49269000  1
  H  H17  1  0.05180000  0.62295000  0.54433000  1
  C  C18  1  0.54693000  0.80045000  0.50175000  1
  C  C19  1  0.34579000  0.41586000  0.29060000  1
  C  C20  1  0.36957000  0.55538000  0.76108000  1
  C  C21  1  0.35731000  0.42492000  0.23175000  1
  C  C22  1  0.50901000  0.49954000  0.79119000  1
  C  C23  1  0.52572000  0.48756000  0.20920000  1
  C  C24  1  0.57337000  0.96842000  0.50260000  1
  C  C25  1  0.42659000  0.03158000  0.49749000  1
  C  C26  1  0.49820000  0.50398000  0.60908000  1
  C  C27  1  0.50122000  0.49310000  0.39085000  1
  C  C28  1  0.48483000  0.34872000  0.11615000  1
  C  C29  1  0.45306000  0.19955000  0.49829000  1
  C  C30  1  0.56768000  0.63992000  0.88411000  1
  C  C31  1  0.56578000  0.63168000  0.12341000  1
  C  C32  1  0.45876000  0.35813000  0.87673000  1
  C  C33  1  0.57120000  0.63572000  0.06418000  1
  C  C34  1  0.46061000  0.35402000  0.93608000  1
  C  C35  1  0.51849000  0.49280000  0.03011000  1
  C  C36  1  0.52015000  0.49660000  0.97018000  1
  C  C37  1  0.46314000  0.34659000  0.05595000  1
  C  C38  1  0.58093000  0.64248000  0.94445000  1
  C  C39  1  0.63211000  0.77942000  0.03892000  1
  C  C40  1  0.64505000  0.44742000  0.76195000  1
  C  C41  1  0.39942000  0.21048000  0.96148000  1
  C  C42  1  0.64608000  0.78417000  0.98013000  1
  C  C43  1  0.39448000  0.20507000  0.02056000  1
  C  C44  1  0.74086000  0.93880000  0.95996000  1
  C  C45  1  0.30134000  0.05082000  0.04150000  1
  C  C46  1  0.79925000  0.39474000  0.79334000  1
  C  C47  1  0.87159000  0.59912000  0.22314000  1
  C  C48  1  0.22752000  0.64234000  0.67291000  1
  C  C49  1  0.16951000  0.32547000  0.31078000  1
  C  C50  1  0.68822000  0.54414000  0.24600000  1
  C  C51  1  0.63504000  0.44858000  0.70240000  1
  C  C52  1  0.67521000  0.54470000  0.30511000  1
  C  C53  1  0.49624000  0.50545000  0.67174000  1
  C  C54  1  0.50575000  0.48337000  0.32808000  1
  C  C55  1  0.36363000  0.56315000  0.70164000  1
  N  N56  1  0.52819000  0.48964000  0.14822000  1
  N  N57  1  0.51268000  0.49913000  0.85221000  1
  N  N58  1  0.96148000  0.54358000  0.51589000  1
  N  N59  1  0.03852000  0.45642000  0.48411000  1
  O  O60  1  0.38023000  0.71387000  0.49588000  1
  O  O61  1  0.60389000  0.77600000  0.85708000  1
  O  O62  1  0.59983000  0.76851000  0.15614000  1
  O  O63  1  0.40182000  0.22241000  0.84349000  1
  O  O64  1  0.86407000  0.94761000  0.92781000  1
  O  O65  1  0.19029000  0.04371000  0.07760000  1
  O  O66  1  0.91188000  0.34197000  0.76789000  1
  O  O67  1  0.00931000  0.66124000  0.25468000  1
  O  O68  1  0.08896000  0.65690000  0.69552000  1
  O  O69  1  0.02301000  0.30593000  0.28121000  1
  O  O70  1  0.61977000  0.28613000  0.50412000  1
  O  O71  1  0.69164000  0.74323000  0.50659000  1
  O  O72  1  0.30836000  0.25677000  0.49341000  1
  O  O73  1  0.34427000  0.48537000  0.57677000  1
  O  O74  1  0.65573000  0.51463000  0.42323000  1
  O  O75  1  0.65568000  0.51472000  0.58747000  1
  O  O76  1  0.34432000  0.48528000  0.41253000  1
  O  O77  1  0.46956000  0.21235000  0.14277000  1
