# generated using pymatgen
data_ZnH18C17NO12
_symmetry_space_group_name_H-M   'P 1'
_cell_length_a   9.81720000
_cell_length_b   15.41604000
_cell_length_c   15.60603000
_cell_angle_alpha   89.70486000
_cell_angle_beta   91.28872000
_cell_angle_gamma   89.89749000
_symmetry_Int_Tables_number   1
_chemical_formula_structural   ZnH18C17NO12
_chemical_formula_sum   'Zn4 H72 C68 N4 O48'
_cell_volume   2361.22019193
_cell_formula_units_Z   4
loop_
 _symmetry_equiv_pos_site_id
 _symmetry_equiv_pos_as_xyz
  1  'x, y, z'
loop_
 _atom_site_type_symbol
 _atom_site_label
 _atom_site_symmetry_multiplicity
 _atom_site_fract_x
 _atom_site_fract_y
 _atom_site_fract_z
 _atom_site_occupancy
  Zn  Zn0  1  0.34504000  0.00011000  0.50000000  1
  Zn  Zn1  1  0.65496000  0.00011000  0.50000000  1
  Zn  Zn2  1  0.34504000  0.50011000  0.00000000  1
  Zn  Zn3  1  0.65496000  0.50011000  0.00000000  1
  H  H4  1  0.47835000  0.10464000  0.19352000  1
  H  H5  1  0.59076000  0.69320000  0.60961000  1
  H  H6  1  0.63534000  0.71845000  0.39473000  1
  H  H7  1  0.40467000  0.69522000  0.38901000  1
  H  H8  1  0.42476000  0.20717000  0.09711000  1
  H  H9  1  0.65174000  0.21322000  0.13882000  1
  H  H10  1  0.63531000  0.21956000  0.89111000  1
  H  H11  1  0.40511000  0.19661000  0.88607000  1
  H  H12  1  0.32608000  0.26568000  0.34601000  1
  H  H13  1  0.47494000  0.28963000  0.40437000  1
  H  H14  1  0.61439000  0.28702000  0.62989000  1
  H  H15  1  0.68730000  0.13425000  0.25628000  1
  H  H16  1  0.44143000  0.28488000  0.60070000  1
  H  H17  1  0.38050000  0.77990000  0.86246000  1
  H  H18  1  0.55399000  0.77829000  0.89567000  1
  H  H19  1  0.61859000  0.78208000  0.13485000  1
  H  H20  1  0.44519000  0.78135000  0.10306000  1
  H  H21  1  0.45042000  0.89691000  0.78042000  1
  H  H22  1  0.62102000  0.86415000  0.78284000  1
  H  H23  1  0.55279000  0.89819000  0.21855000  1
  H  H24  1  0.38154000  0.86765000  0.21531000  1
  H  H25  1  0.38396000  0.39212000  0.27075000  1
  H  H26  1  0.60142000  0.10961000  0.79984000  1
  H  H27  1  0.55734000  0.38320000  0.30011000  1
  H  H28  1  0.55290000  0.40099000  0.71664000  1
  H  H29  1  0.38155000  0.37194000  0.71397000  1
  H  H30  1  0.88773000  0.02079000  0.36542000  1
  H  H31  1  0.12505000  0.98885000  0.36379000  1
  H  H32  1  0.11579000  0.98270000  0.63406000  1
  H  H33  1  0.87938000  0.96200000  0.62961000  1
  H  H34  1  0.87161000  0.48100000  0.86609000  1
  H  H35  1  0.11020000  0.49143000  0.86502000  1
  H  H36  1  0.12934000  0.48144000  0.13556000  1
  H  H37  1  0.36924000  0.10677000  0.77685000  1
  H  H38  1  0.89123000  0.49685000  0.13451000  1
  H  H39  1  0.87088000  0.91249000  0.40031000  1
  H  H40  1  0.09809000  0.89259000  0.42426000  1
  H  H41  1  0.12640000  0.88708000  0.57021000  1
  H  H42  1  0.89646000  0.87734000  0.55123000  1
  H  H43  1  0.88629000  0.38660000  0.93281000  1
  H  H44  1  0.11526000  0.39246000  0.92455000  1
  H  H45  1  0.11326000  0.38680000  0.07210000  1
  H  H46  1  0.88306000  0.39519000  0.08006000  1
  H  H47  1  0.86838000  0.13748000  0.47564000  1
  H  H48  1  0.40952000  0.60762000  0.68996000  1
  H  H49  1  0.10345000  0.12672000  0.44403000  1
  H  H50  1  0.13000000  0.12605000  0.55522000  1
  H  H51  1  0.90115000  0.10572000  0.58184000  1
  H  H52  1  0.89165000  0.61865000  0.93241000  1
  H  H53  1  0.12787000  0.63240000  0.95735000  1
  H  H54  1  0.10742000  0.61896000  0.06573000  1
  H  H55  1  0.87198000  0.63244000  0.04102000  1
  H  H56  1  0.08794000  0.11185000  0.28347000  1
  H  H57  1  0.79136000  0.29311000  0.45661000  1
  H  H58  1  0.92415000  0.20992000  0.67165000  1
  H  H59  1  0.63139000  0.60235000  0.71872000  1
  H  H60  1  0.12006000  0.25696000  0.61745000  1
  H  H61  1  0.07516000  0.66886000  0.82690000  1
  H  H62  1  0.88505000  0.75112000  0.87202000  1
  H  H63  1  0.92361000  0.67899000  0.16929000  1
  H  H64  1  0.11671000  0.75283000  0.12262000  1
  H  H65  1  0.12720000  0.88177000  0.74972000  1
  H  H66  1  0.92213000  0.83033000  0.69613000  1
  H  H67  1  0.87379000  0.88105000  0.25146000  1
  H  H68  1  0.07749000  0.83466000  0.29657000  1
  H  H69  1  0.09374000  0.32562000  0.20673000  1
  H  H70  1  0.59282000  0.60760000  0.30694000  1
  H  H71  1  0.88765000  0.40240000  0.24906000  1
  H  H72  1  0.87273000  0.38640000  0.75254000  1
  H  H73  1  0.07920000  0.33864000  0.79428000  1
  H  H74  1  0.36815000  0.60468000  0.28041000  1
  H  H75  1  0.36047000  0.72075000  0.60452000  1
  C  C76  1  0.49921000  0.87469000  0.38302000  1
  C  C77  1  0.50110000  0.11798000  0.62403000  1
  C  C78  1  0.49877000  0.61420000  0.87303000  1
  C  C79  1  0.50113000  0.61565000  0.12599000  1
  C  C80  1  0.41400000  0.15369000  0.22608000  1
  C  C81  1  0.64846000  0.19883000  0.27691000  1
  C  C82  1  0.62506000  0.16856000  0.76119000  1
  C  C83  1  0.37003000  0.17403000  0.75004000  1
  C  C84  1  0.37846000  0.66242000  0.73176000  1
  C  C85  1  0.63001000  0.66941000  0.74542000  1
  C  C86  1  0.62202000  0.66417000  0.26643000  1
  C  C87  1  0.50079000  0.87415000  0.61634000  1
  C  C88  1  0.36935000  0.67173000  0.25304000  1
  C  C89  1  0.36661000  0.74448000  0.67194000  1
  C  C90  1  0.62056000  0.73291000  0.66666667  1
  C  C91  1  0.63175000  0.74440000  0.32781000  1
  C  C92  1  0.37748000  0.73525000  0.33132000  1
  C  C93  1  0.39757000  0.23188000  0.16162000  1
  C  C94  1  0.64587000  0.25711000  0.19532000  1
  C  C95  1  0.63233000  0.24716000  0.82487000  1
  C  C96  1  0.37799000  0.23688000  0.82853000  1
  C  C97  1  0.43774000  0.27193000  0.33925000  1
  C  C98  1  0.49913000  0.37555000  0.88202000  1
  C  C99  1  0.51225000  0.27578000  0.65642000  1
  C  C100  1  0.48518000  0.76983000  0.83882000  1
  C  C101  1  0.51465000  0.77213000  0.15953000  1
  C  C102  1  0.49834000  0.18475000  0.30751000  1
  C  C103  1  0.50262000  0.18287000  0.69539000  1
  C  C104  1  0.49738000  0.67751000  0.79997000  1
  C  C105  1  0.50243000  0.67951000  0.19855000  1
  C  C106  1  0.50158000  0.80064000  0.68017000  1
  C  C107  1  0.49803000  0.80176000  0.31873000  1
  C  C108  1  0.50387000  0.30570000  0.18622000  1
  C  C109  1  0.50143000  0.37659000  0.11937000  1
  C  C110  1  0.49801000  0.30388000  0.81645000  1
  C  C111  1  0.51640000  0.83934000  0.77150000  1
  C  C112  1  0.48524000  0.84138000  0.22712000  1
  C  C113  1  0.46957000  0.34508000  0.27498000  1
  C  C114  1  0.48471000  0.34453000  0.72508000  1
  C  C115  1  0.91722000  0.97384000  0.41705000  1
  C  C116  1  0.07705000  0.96230000  0.42180000  1
  C  C117  1  0.08297000  0.95234000  0.57271000  1
  C  C118  1  0.92286000  0.94476000  0.56702000  1
  C  C119  1  0.91688000  0.45456000  0.92642000  1
  C  C120  1  0.92050000  0.08835000  0.51576000  1
  C  C121  1  0.07708000  0.45881000  0.92413000  1
  C  C122  1  0.08341000  0.45542000  0.07529000  1
  C  C123  1  0.92296000  0.46082000  0.07743000  1
  C  C124  1  0.28132000  0.10582000  0.24286000  1
  C  C125  1  0.75141000  0.22856000  0.34666000  1
  C  C126  1  0.76248000  0.15035000  0.72227000  1
  C  C127  1  0.23670000  0.18315000  0.69879000  1
  C  C128  1  0.24265000  0.63351000  0.76535000  1
  C  C129  1  0.76356000  0.67720000  0.79525000  1
  C  C130  1  0.75948000  0.63900000  0.23227000  1
  C  C131  1  0.08011000  0.09011000  0.50337000  1
  C  C132  1  0.23612000  0.67972000  0.20253000  1
  C  C133  1  0.23337000  0.79190000  0.68473000  1
  C  C134  1  0.75904000  0.76810000  0.64607000  1
  C  C135  1  0.76499000  0.79241000  0.31782000  1
  C  C136  1  0.23920000  0.77275000  0.34993000  1
  C  C137  1  0.25090000  0.26224000  0.15293000  1
  C  C138  1  0.77549000  0.30801000  0.19329000  1
  C  C139  1  0.76548000  0.29614000  0.81726000  1
  C  C140  1  0.23907000  0.27363000  0.84654000  1
  C  C141  1  0.91948000  0.58985000  0.99436000  1
  C  C142  1  0.08001000  0.58986000  0.00403000  1
  C  C143  1  0.49896000  0.11938000  0.37764000  1
  N  N144  1  0.86139000  0.00124000  0.50000000  1
  N  N145  1  0.13861000  0.00124000  0.50000000  1
  N  N146  1  0.86139000  0.50124000  0.00000000  1
  N  N147  1  0.13861000  0.50124000  0.00000000  1
  O  O148  1  0.38396000  0.90747000  0.40744000  1
  O  O149  1  0.61604000  0.09267000  0.40742000  1
  O  O150  1  0.61604000  0.09267000  0.59258000  1
  O  O151  1  0.38396000  0.09267000  0.59258000  1
  O  O152  1  0.38396000  0.59267000  0.90742000  1
  O  O153  1  0.61604000  0.59267000  0.90742000  1
  O  O154  1  0.61604000  0.59267000  0.09258000  1
  O  O155  1  0.38396000  0.59267000  0.09258000  1
  O  O156  1  0.26672000  0.03139000  0.21753000  1
  O  O157  1  0.17518000  0.14682000  0.28513000  1
  O  O158  1  0.87182000  0.21028000  0.33877000  1
  O  O159  1  0.61604000  0.90747000  0.40744000  1
  O  O160  1  0.71192000  0.27735000  0.41711000  1
  O  O161  1  0.82537000  0.08432000  0.74169000  1
  O  O162  1  0.82152000  0.21343000  0.67031000  1
  O  O163  1  0.14484000  0.13154000  0.71153000  1
  O  O164  1  0.21589000  0.25300000  0.64229000  1
  O  O165  1  0.19031000  0.56662000  0.73880000  1
  O  O166  1  0.17279000  0.68725000  0.82087000  1
  O  O167  1  0.85440000  0.62556000  0.78031000  1
  O  O168  1  0.78666000  0.74604000  0.85186000  1
  O  O169  1  0.81816000  0.57470000  0.26070000  1
  O  O170  1  0.61604000  0.90747000  0.59256000  1
  O  O171  1  0.82447000  0.69420000  0.17528000  1
  O  O172  1  0.14444000  0.62891000  0.21811000  1
  O  O173  1  0.21446000  0.74785000  0.14413000  1
  O  O174  1  0.13001000  0.76157000  0.65155000  1
  O  O175  1  0.22423000  0.86246000  0.74016000  1
  O  O176  1  0.82265000  0.73665000  0.58725000  1
  O  O177  1  0.82018000  0.82799000  0.70145000  1
  O  O178  1  0.86489000  0.76744000  0.35937000  1
  O  O179  1  0.77802000  0.85781000  0.25609000  1
  O  O180  1  0.17549000  0.74531000  0.41084000  1
  O  O181  1  0.38396000  0.90747000  0.59256000  1
  O  O182  1  0.17970000  0.83215000  0.29242000  1
  O  O183  1  0.18065000  0.23738000  0.09223000  1
  O  O184  1  0.19345000  0.31286000  0.21677000  1
  O  O185  1  0.87511000  0.27341000  0.16238000  1
  O  O186  1  0.78906000  0.38475000  0.24002000  1
  O  O187  1  0.86821000  0.26465000  0.85075000  1
  O  O188  1  0.77563000  0.36801000  0.76281000  1
  O  O189  1  0.17236000  0.24281000  0.90450000  1
  O  O190  1  0.18146000  0.33520000  0.79048000  1
  O  O191  1  0.38396000  0.40747000  0.90744000  1
  O  O192  1  0.61604000  0.40747000  0.90744000  1
  O  O193  1  0.61604000  0.40747000  0.09256000  1
  O  O194  1  0.38396000  0.40747000  0.09256000  1
  O  O195  1  0.38396000  0.09267000  0.40742000  1
