# generated using pymatgen
data_Cd2H11C21(NO2)3
_symmetry_space_group_name_H-M   'P 1'
_cell_length_a   10.61157000
_cell_length_b   14.50207273
_cell_length_c   18.18514693
_cell_angle_alpha   75.44503727
_cell_angle_beta   73.10971842
_cell_angle_gamma   68.67752574
_symmetry_Int_Tables_number   1
_chemical_formula_structural   Cd2H11C21(NO2)3
_chemical_formula_sum   'Cd8 H44 C84 N12 O24'
_cell_volume   2460.95722088
_cell_formula_units_Z   4
loop_
 _symmetry_equiv_pos_site_id
 _symmetry_equiv_pos_as_xyz
  1  'x, y, z'
loop_
 _atom_site_type_symbol
 _atom_site_label
 _atom_site_symmetry_multiplicity
 _atom_site_fract_x
 _atom_site_fract_y
 _atom_site_fract_z
 _atom_site_occupancy
  Cd  Cd0  1  0.38145000  0.10056000  0.54725000  1
  Cd  Cd1  1  0.09546000  0.28425000  0.62596000  1
  Cd  Cd2  1  0.02995000  0.40009000  0.95142000  1
  Cd  Cd3  1  0.00505000  0.21496000  0.87245000  1
  Cd  Cd4  1  0.61854000  0.89944000  0.45275000  1
  Cd  Cd5  1  0.90455000  0.71574000  0.37404000  1
  Cd  Cd6  1  0.97004000  0.59991000  0.04858000  1
  Cd  Cd7  1  0.99495000  0.78504000  0.12755000  1
  H  H8  1  0.22549000  0.41968000  0.14664000  1
  H  H9  1  0.52059000  0.36665000  0.93133000  1
  H  H10  1  0.66044000  0.36074000  0.13262000  1
  H  H11  1  0.58745000  0.26921000  0.25898000  1
  H  H12  1  0.22934000  0.98019000  0.93350000  1
  H  H13  1  0.50759000  0.25020000  0.40248000  1
  H  H14  1  0.12618000  0.48547000  0.37921000  1
  H  H15  1  0.20834000  0.50873000  0.23477000  1
  H  H16  1  0.55525000  0.91256000  0.67309000  1
  H  H17  1  0.61038000  0.80542000  0.79814000  1
  H  H18  1  0.45112000  0.83737000  0.92431000  1
  H  H19  1  0.79172000  0.08021000  0.35162000  1
  H  H20  1  0.82097000  0.13348000  0.56687000  1
  H  H21  1  0.15451000  0.13848000  0.36503000  1
  H  H22  1  0.11627000  0.23067000  0.24037000  1
  H  H23  1  0.14397000  0.51848000  0.56573000  1
  H  H24  1  0.16122000  0.25120000  0.09673000  1
  H  H25  1  0.99406000  0.01506000  0.11748000  1
  H  H26  1  0.95424000  0.99030000  0.26209000  1
  H  H27  1  0.13669000  0.58890000  0.82651000  1
  H  H28  1  0.21293000  0.69480000  0.70143000  1
  H  H29  1  0.21427000  0.66149000  0.57504000  1
  H  H30  1  0.77450000  0.58032000  0.85336000  1
  H  H31  1  0.47941000  0.63335000  0.06867000  1
  H  H32  1  0.33956000  0.63926000  0.86738000  1
  H  H33  1  0.41254000  0.73079000  0.74102000  1
  H  H34  1  0.77066000  0.01981000  0.06650000  1
  H  H35  1  0.49241000  0.74980000  0.59752000  1
  H  H36  1  0.87381000  0.51453000  0.62079000  1
  H  H37  1  0.79167000  0.49126000  0.76522000  1
  H  H38  1  0.44475000  0.08743000  0.32691000  1
  H  H39  1  0.38962000  0.19458000  0.20185000  1
  H  H40  1  0.54887000  0.16263000  0.07569000  1
  H  H41  1  0.20827000  0.91979000  0.64838000  1
  H  H42  1  0.17902000  0.86652000  0.43313000  1
  H  H43  1  0.84549000  0.86151000  0.63497000  1
  H  H44  1  0.88373000  0.76932000  0.75963000  1
  H  H45  1  0.85603000  0.48152000  0.43426000  1
  H  H46  1  0.83877000  0.74880000  0.90327000  1
  H  H47  1  0.00594000  0.98493000  0.88252000  1
  H  H48  1  0.04577000  0.00969000  0.73791000  1
  H  H49  1  0.86330000  0.41110000  0.17349000  1
  H  H50  1  0.78706000  0.30520000  0.29857000  1
  H  H51  1  0.78574000  0.33850000  0.42496000  1
  C  C52  1  0.36140000  0.00723000  0.73465000  1
  C  C53  1  0.33236000  0.40558000  0.11398000  1
  C  C54  1  0.40279000  0.38920000  0.23634000  1
  C  C55  1  0.36089000  0.39873000  0.03521000  1
  C  C56  1  0.24868000  0.34411000  0.48417000  1
  C  C57  1  0.49825000  0.37440000  0.99209000  1
  C  C58  1  0.43883000  0.39040000  0.15122000  1
  C  C59  1  0.24541000  0.41276000  0.99864000  1
  C  C60  1  0.60521000  0.36101000  0.02781000  1
  C  C61  1  0.57534000  0.37016000  0.10664000  1
  C  C62  1  0.75293000  0.33705000  0.98266000  1
  C  C63  1  0.27097000  0.02799000  0.80735000  1
  C  C64  1  0.48852000  0.31937000  0.28492000  1
  C  C65  1  0.30031000  0.96646000  0.87777000  1
  C  C66  1  0.44312000  0.30789000  0.36578000  1
  C  C67  1  0.31052000  0.36606000  0.39985000  1
  C  C68  1  0.22803000  0.44028000  0.35184000  1
  C  C69  1  0.27385000  0.45197000  0.27138000  1
  C  C70  1  0.48608000  0.92685000  0.72919000  1
  C  C71  1  0.51526000  0.86843000  0.79885000  1
  C  C72  1  0.42337000  0.88731000  0.87178000  1
  C  C73  1  0.10034000  0.49355000  0.76463000  1
  C  C74  1  0.85198000  0.09446000  0.38424000  1
  C  C75  1  0.02895000  0.11068000  0.26174000  1
  C  C76  1  0.79535000  0.10195000  0.46306000  1
  C  C77  1  0.07759000  0.15723000  0.01373000  1
  C  C78  1  0.86667000  0.12552000  0.50609000  1
  C  C79  1  0.98061000  0.10931000  0.34685000  1
  C  C80  1  0.65664000  0.08883000  0.50002000  1
  C  C81  1  0.99661000  0.13778000  0.47030000  1
  C  C82  1  0.05306000  0.12911000  0.39132000  1
  C  C83  1  0.07806000  0.16040000  0.51484000  1
  C  C84  1  0.10480000  0.47196000  0.69191000  1
  C  C85  1  0.09341000  0.18093000  0.21379000  1
  C  C86  1  0.14454000  0.53284000  0.62149000  1
  C  C87  1  0.11805000  0.19303000  0.13282000  1
  C  C88  1  0.07822000  0.13498000  0.09803000  1
  C  C89  1  0.02265000  0.06009000  0.14554000  1
  C  C90  1  0.99893000  0.04776000  0.22607000  1
  C  C91  1  0.13916000  0.57408000  0.77027000  1
  C  C92  1  0.18126000  0.63179000  0.70061000  1
  C  C93  1  0.18265000  0.61208000  0.62758000  1
  C  C94  1  0.63860000  0.99277000  0.26534000  1
  C  C95  1  0.66765000  0.59441000  0.88602000  1
  C  C96  1  0.59720000  0.61080000  0.76366000  1
  C  C97  1  0.63912000  0.60126000  0.96479000  1
  C  C98  1  0.75132000  0.65589000  0.51583000  1
  C  C99  1  0.50175000  0.62560000  0.00790000  1
  C  C100  1  0.56117000  0.60960000  0.84878000  1
  C  C101  1  0.75458000  0.58724000  0.00136000  1
  C  C102  1  0.39478000  0.63899000  0.97219000  1
  C  C103  1  0.42465000  0.62984000  0.89336000  1
  C  C104  1  0.24707000  0.66295000  0.01734000  1
  C  C105  1  0.72903000  0.97201000  0.19265000  1
  C  C106  1  0.51148000  0.68063000  0.71507000  1
  C  C107  1  0.69969000  0.03354000  0.12223000  1
  C  C108  1  0.55687000  0.69211000  0.63422000  1
  C  C109  1  0.68947000  0.63394000  0.60015000  1
  C  C110  1  0.77198000  0.55972000  0.64815000  1
  C  C111  1  0.72615000  0.54803000  0.72862000  1
  C  C112  1  0.51392000  0.07315000  0.27081000  1
  C  C113  1  0.48474000  0.13157000  0.20115000  1
  C  C114  1  0.57663000  0.11269000  0.12822000  1
  C  C115  1  0.89967000  0.50645000  0.23536000  1
  C  C116  1  0.14803000  0.90553000  0.61575000  1
  C  C117  1  0.97105000  0.88932000  0.73825000  1
  C  C118  1  0.20466000  0.89804000  0.53693000  1
  C  C119  1  0.92241000  0.84277000  0.98626000  1
  C  C120  1  0.13333000  0.87448000  0.49391000  1
  C  C121  1  0.01938000  0.89069000  0.65315000  1
  C  C122  1  0.34335000  0.91117000  0.49998000  1
  C  C123  1  0.00338000  0.86222000  0.52970000  1
  C  C124  1  0.94694000  0.87089000  0.60868000  1
  C  C125  1  0.92193000  0.83960000  0.48516000  1
  C  C126  1  0.89520000  0.52803000  0.30809000  1
  C  C127  1  0.90658000  0.81907000  0.78621000  1
  C  C128  1  0.85545000  0.46716000  0.37851000  1
  C  C129  1  0.88196000  0.80697000  0.86717000  1
  C  C130  1  0.92179000  0.86501000  0.90196000  1
  C  C131  1  0.97734000  0.93991000  0.85446000  1
  C  C132  1  0.00107000  0.95223000  0.77393000  1
  C  C133  1  0.86084000  0.42592000  0.22972000  1
  C  C134  1  0.81873000  0.36821000  0.29939000  1
  C  C135  1  0.81735000  0.38792000  0.37241000  1
  N  N136  1  0.18604000  0.14034000  0.71359000  1
  N  N137  1  0.16279000  0.11222000  0.79122000  1
  N  N138  1  0.30316000  0.07851000  0.67848000  1
  N  N139  1  0.03672000  0.36022000  0.78565000  1
  N  N140  1  0.06440000  0.38771000  0.70796000  1
  N  N141  1  0.05628000  0.42261000  0.82075000  1
  N  N142  1  0.81397000  0.85966000  0.28640000  1
  N  N143  1  0.83721000  0.88778000  0.20878000  1
  N  N144  1  0.69683000  0.92149000  0.32152000  1
  N  N145  1  0.96328000  0.63978000  0.21435000  1
  N  N146  1  0.93560000  0.61229000  0.29203000  1
  N  N147  1  0.94371000  0.57739000  0.17925000  1
  O  O148  1  0.32053000  0.27605000  0.53037000  1
  O  O149  1  0.11938000  0.43052000  0.04317000  1
  O  O150  1  0.83588000  0.35700000  0.01011000  1
  O  O151  1  0.26867000  0.40307000  0.92883000  1
  O  O152  1  0.12109000  0.39118000  0.50920000  1
  O  O153  1  0.78344000  0.29790000  0.92135000  1
  O  O154  1  0.12769000  0.22504000  0.96697000  1
  O  O155  1  0.59296000  0.06974000  0.45598000  1
  O  O156  1  0.20733000  0.14293000  0.48522000  1
  O  O157  1  0.60013000  0.09997000  0.56951000  1
  O  O158  1  0.02107000  0.11012000  0.98919000  1
  O  O159  1  0.01222000  0.19533000  0.57831000  1
  O  O160  1  0.67947000  0.72395000  0.46963000  1
  O  O161  1  0.88062000  0.56948000  0.95682000  1
  O  O162  1  0.16412000  0.64300000  0.98988000  1
  O  O163  1  0.73133000  0.59692000  0.07117000  1
  O  O164  1  0.87890000  0.60882000  0.49080000  1
  O  O165  1  0.21656000  0.70209000  0.07865000  1
  O  O166  1  0.87231000  0.77496000  0.03303000  1
  O  O167  1  0.40703000  0.93026000  0.54402000  1
  O  O168  1  0.79266000  0.85707000  0.51478000  1
  O  O169  1  0.39988000  0.90003000  0.43048000  1
  O  O170  1  0.97894000  0.88987000  0.01081000  1
  O  O171  1  0.98777000  0.80467000  0.42169000  1
