# generated using pymatgen
data_VH9C31Br2N3O7
_symmetry_space_group_name_H-M   'P 1'
_cell_length_a   7.03516000
_cell_length_b   12.23923000
_cell_length_c   35.52063000
_cell_angle_alpha   89.99994000
_cell_angle_beta   92.74027000
_cell_angle_gamma   89.99989000
_symmetry_Int_Tables_number   1
_chemical_formula_structural   VH9C31Br2N3O7
_chemical_formula_sum   'V4 H36 C124 Br8 N12 O28'
_cell_volume   3055.00442568
_cell_formula_units_Z   4
loop_
 _symmetry_equiv_pos_site_id
 _symmetry_equiv_pos_as_xyz
  1  'x, y, z'
loop_
 _atom_site_type_symbol
 _atom_site_label
 _atom_site_symmetry_multiplicity
 _atom_site_fract_x
 _atom_site_fract_y
 _atom_site_fract_z
 _atom_site_occupancy
  V  V0  1  0.82763000  0.23438000  0.70216000  1
  V  V1  1  0.17237000  0.76562000  0.29784000  1
  V  V2  1  0.67237000  0.73438000  0.29784000  1
  V  V3  1  0.32763000  0.26562000  0.70216000  1
  H  H4  1  0.22354000  0.49989000  0.87613000  1
  H  H5  1  0.74393000  0.46933000  0.12973000  1
  H  H6  1  0.27646000  0.99989000  0.12387000  1
  H  H7  1  0.75607000  0.96933000  0.87027000  1
  H  H8  1  0.95458000  0.59836000  0.98609000  1
  H  H9  1  0.02343000  0.37698000  0.01946000  1
  H  H10  1  0.54542000  0.09835000  0.01391000  1
  H  H11  1  0.47658000  0.87698000  0.98054000  1
  H  H12  1  0.14894000  0.41937000  0.24621000  1
  H  H13  1  0.87291000  0.58697000  0.75570000  1
  H  H14  1  0.35107000  0.91937000  0.75379000  1
  H  H15  1  0.62708000  0.08697000  0.24430000  1
  H  H16  1  0.15095000  0.28020000  0.19686000  1
  H  H17  1  0.86300000  0.71521000  0.80824000  1
  H  H18  1  0.34906000  0.78020000  0.80314000  1
  H  H19  1  0.63699000  0.21521000  0.19176000  1
  H  H20  1  0.82660000  0.84304000  0.08124000  1
  H  H21  1  0.19756000  0.13135000  0.93046000  1
  H  H22  1  0.67341000  0.34303000  0.91876000  1
  H  H23  1  0.30243000  0.63134000  0.06953000  1
  H  H24  1  0.13824000  0.23662000  0.46437000  1
  H  H25  1  0.86179000  0.76336000  0.53562000  1
  H  H26  1  0.36177000  0.73662000  0.53563000  1
  H  H27  1  0.63816000  0.26337000  0.46437000  1
  H  H28  1  0.14979000  0.36823000  0.58299000  1
  H  H29  1  0.85007000  0.63170000  0.41700000  1
  H  H30  1  0.35018000  0.86824000  0.41701000  1
  H  H31  1  0.64982000  0.13174000  0.58300000  1
  H  H32  1  0.88184000  0.59501000  0.65432000  1
  H  H33  1  0.11833000  0.40502000  0.34567000  1
  H  H34  1  0.61820000  0.09501000  0.34568000  1
  H  H35  1  0.38180000  0.90499000  0.65433000  1
  H  H36  1  0.17827000  0.28064000  0.39917000  1
  H  H37  1  0.82189000  0.71938000  0.60083000  1
  H  H38  1  0.32184000  0.78061000  0.60084000  1
  H  H39  1  0.67813000  0.21938000  0.39917000  1
  C  C40  1  0.55487000  0.10953000  0.75350000  1
  C  C41  1  0.44499000  0.88972000  0.24622000  1
  C  C42  1  0.94513000  0.60954000  0.24650000  1
  C  C43  1  0.05501000  0.38972000  0.75377000  1
  C  C44  1  0.53729000  0.10686000  0.65162000  1
  C  C45  1  0.46271000  0.89314000  0.34838000  1
  C  C46  1  0.96271000  0.60686000  0.34838000  1
  C  C47  1  0.03729000  0.39314000  0.65162000  1
  C  C48  1  0.00948000  0.65557000  0.91514000  1
  C  C49  1  0.97633000  0.32237000  0.09085000  1
  C  C50  1  0.49052000  0.15556000  0.08486000  1
  C  C51  1  0.52367000  0.82237000  0.90915000  1
  C  C52  1  0.05754000  0.80544000  0.87457000  1
  C  C53  1  0.95182000  0.17445000  0.13322000  1
  C  C54  1  0.44246000  0.30544000  0.12543000  1
  C  C55  1  0.54818000  0.67445000  0.86678000  1
  C  C56  1  0.94806000  0.64219000  0.81210000  1
  C  C57  1  0.05868000  0.35012000  0.19249000  1
  C  C58  1  0.55194000  0.14219000  0.18790000  1
  C  C59  1  0.44132000  0.85012000  0.80751000  1
  C  C60  1  0.95121000  0.56787000  0.78186000  1
  C  C61  1  0.06002000  0.43079000  0.22078000  1
  C  C62  1  0.54878000  0.06787000  0.21814000  1
  C  C63  1  0.43998000  0.93079000  0.77922000  1
  C  C64  1  0.15151000  0.44714000  0.81996000  1
  C  C65  1  0.83268000  0.53652000  0.18307000  1
  C  C66  1  0.34849000  0.94714000  0.18004000  1
  C  C67  1  0.66731000  0.03652000  0.81693000  1
  C  C68  1  0.14862000  0.52148000  0.85003000  1
  C  C69  1  0.83143000  0.45605000  0.15501000  1
  C  C70  1  0.35138000  0.02148000  0.14997000  1
  C  C71  1  0.66857000  0.95605000  0.84499000  1
  C  C72  1  0.04529000  0.62008000  0.84711000  1
  C  C73  1  0.94753000  0.36248000  0.15849000  1
  C  C74  1  0.45471000  0.12008000  0.15288000  1
  C  C75  1  0.55247000  0.86248000  0.84151000  1
  C  C76  1  0.02285000  0.83944000  0.94184000  1
  C  C77  1  0.97915000  0.13681000  0.06596000  1
  C  C78  1  0.47715000  0.33944000  0.05816000  1
  C  C79  1  0.52085000  0.63681000  0.93404000  1
  C  C80  1  0.99806000  0.72681000  0.94633000  1
  C  C81  1  0.99414000  0.24966000  0.06040000  1
  C  C82  1  0.50194000  0.22681000  0.05367000  1
  C  C83  1  0.50587000  0.74965000  0.93960000  1
  C  C84  1  0.96799000  0.68597000  0.98213000  1
  C  C85  1  0.01838000  0.28940000  0.02423000  1
  C  C86  1  0.53201000  0.18597000  0.01787000  1
  C  C87  1  0.48162000  0.78940000  0.97577000  1
  C  C88  1  0.06380000  0.87850000  0.90576000  1
  C  C89  1  0.94597000  0.09923000  0.10259000  1
  C  C90  1  0.43620000  0.37850000  0.09424000  1
  C  C91  1  0.55403000  0.59923000  0.89741000  1
  C  C92  1  0.05244000  0.46932000  0.78550000  1
  C  C93  1  0.94800000  0.52530000  0.21627000  1
  C  C94  1  0.44755000  0.96932000  0.21451000  1
  C  C95  1  0.55200000  0.02530000  0.78373000  1
  C  C96  1  0.95608000  0.94865000  0.04039000  1
  C  C97  1  0.05034000  0.02563000  0.96835000  1
  C  C98  1  0.54392000  0.44865000  0.95961000  1
  C  C99  1  0.44966000  0.52563000  0.03165000  1
  C  C100  1  0.02819000  0.10274000  0.99833000  1
  C  C101  1  0.97146000  0.87152000  0.00979000  1
  C  C102  1  0.47181000  0.60274000  0.00167000  1
  C  C103  1  0.52854000  0.37152000  0.99021000  1
  C  C104  1  0.99048000  0.06223000  0.03481000  1
  C  C105  1  0.01232000  0.91257000  0.97344000  1
  C  C106  1  0.50952000  0.56222000  0.96518000  1
  C  C107  1  0.48768000  0.41257000  0.02655000  1
  C  C108  1  0.89494000  0.91849000  0.07616000  1
  C  C109  1  0.12276000  0.05638000  0.93374000  1
  C  C110  1  0.60506000  0.41849000  0.92384000  1
  C  C111  1  0.37723000  0.55638000  0.06626000  1
  C  C112  1  0.89831000  0.98876000  0.10685000  1
  C  C113  1  0.11961000  0.98824000  0.90261000  1
  C  C114  1  0.60169000  0.48876000  0.89315000  1
  C  C115  1  0.38039000  0.48824000  0.09739000  1
  C  C116  1  0.95723000  0.75449000  0.01341000  1
  C  C117  1  0.03255000  0.21951000  0.99354000  1
  C  C118  1  0.54277000  0.25449000  0.98659000  1
  C  C119  1  0.46745000  0.71950000  0.00646000  1
  C  C120  1  0.98465000  0.52817000  0.37895000  1
  C  C121  1  0.01535000  0.47181000  0.62104000  1
  C  C122  1  0.51535000  0.02817000  0.62105000  1
  C  C123  1  0.48464000  0.97181000  0.37896000  1
  C  C124  1  0.11584000  0.36007000  0.40403000  1
  C  C125  1  0.88424000  0.63993000  0.59596000  1
  C  C126  1  0.38421000  0.86006000  0.59597000  1
  C  C127  1  0.61576000  0.13993000  0.40403000  1
  C  C128  1  0.07833000  0.42932000  0.37353000  1
  C  C129  1  0.92176000  0.57069000  0.62646000  1
  C  C130  1  0.42174000  0.92931000  0.62647000  1
  C  C131  1  0.57825000  0.07069000  0.37354000  1
  C  C132  1  0.93710000  0.55986000  0.41496000  1
  C  C133  1  0.06282000  0.44009000  0.58503000  1
  C  C134  1  0.56283000  0.05989000  0.58503000  1
  C  C135  1  0.43715000  0.94010000  0.41497000  1
  C  C136  1  0.00056000  0.49947000  0.44694000  1
  C  C137  1  0.99939000  0.50049000  0.55305000  1
  C  C138  1  0.49939000  0.99948000  0.55306000  1
  C  C139  1  0.50057000  0.00050000  0.44695000  1
  C  C140  1  0.07526000  0.39389000  0.44055000  1
  C  C141  1  0.92474000  0.60608000  0.55944000  1
  C  C142  1  0.42473000  0.89390000  0.55945000  1
  C  C143  1  0.57522000  0.10609000  0.44056000  1
  C  C144  1  0.98589000  0.53819000  0.48475000  1
  C  C145  1  0.01404000  0.46176000  0.51524000  1
  C  C146  1  0.51404000  0.03821000  0.51525000  1
  C  C147  1  0.48590000  0.96178000  0.48475000  1
  C  C148  1  0.05172000  0.34986000  0.50635000  1
  C  C149  1  0.94822000  0.65009000  0.49364000  1
  C  C150  1  0.44823000  0.84988000  0.49365000  1
  C  C151  1  0.55170000  0.15011000  0.50636000  1
  C  C152  1  0.09778000  0.32044000  0.47013000  1
  C  C153  1  0.90221000  0.67953000  0.52986000  1
  C  C154  1  0.40220000  0.82045000  0.52987000  1
  C  C155  1  0.59773000  0.17955000  0.47013000  1
  C  C156  1  0.02439000  0.25912000  0.53161000  1
  C  C157  1  0.97555000  0.74083000  0.46837000  1
  C  C158  1  0.47555000  0.75913000  0.46838000  1
  C  C159  1  0.52438000  0.24086000  0.53162000  1
  C  C160  1  0.94108000  0.69612000  0.04831000  1
  C  C161  1  0.03492000  0.27524000  0.95774000  1
  C  C162  1  0.55891000  0.19612000  0.95169000  1
  C  C163  1  0.46509000  0.77524000  0.04226000  1
  Br  Br164  1  0.27427000  0.30984000  0.82840000  1
  Br  Br165  1  0.68999000  0.66654000  0.17311000  1
  Br  Br166  1  0.22573000  0.80984000  0.17159000  1
  Br  Br167  1  0.81001000  0.16654000  0.82689000  1
  Br  Br168  1  0.80430000  0.92815000  0.15193000  1
  Br  Br169  1  0.22376000  0.05070000  0.85880000  1
  Br  Br170  1  0.69571000  0.42815000  0.84807000  1
  Br  Br171  1  0.27624000  0.55070000  0.14119000  1
  N  N172  1  0.03614000  0.69486000  0.87945000  1
  N  N173  1  0.95947000  0.28506000  0.12706000  1
  N  N174  1  0.46386000  0.19486000  0.12055000  1
  N  N175  1  0.54053000  0.78505000  0.87294000  1
  N  N176  1  0.00304000  0.18574000  0.55154000  1
  N  N177  1  0.99690000  0.81420000  0.44844000  1
  N  N178  1  0.49690000  0.68575000  0.44846000  1
  N  N179  1  0.50305000  0.31423000  0.55155000  1
  N  N180  1  0.92590000  0.64924000  0.07628000  1
  N  N181  1  0.03943000  0.31995000  0.92910000  1
  N  N182  1  0.57409000  0.14924000  0.92372000  1
  N  N183  1  0.46059000  0.81994000  0.07090000  1
  O  O184  1  0.37973000  0.14860000  0.66271000  1
  O  O185  1  0.62027000  0.85140000  0.33729000  1
  O  O186  1  0.12027000  0.64860000  0.33729000  1
  O  O187  1  0.87973000  0.35140000  0.66271000  1
  O  O188  1  0.72248000  0.13449000  0.74133000  1
  O  O189  1  0.27752000  0.86551000  0.25867000  1
  O  O190  1  0.77752000  0.63449000  0.25867000  1
  O  O191  1  0.22248000  0.36551000  0.74133000  1
  O  O192  1  0.89288000  0.34589000  0.74160000  1
  O  O193  1  0.10712000  0.65411000  0.25840000  1
  O  O194  1  0.60712000  0.84589000  0.25840000  1
  O  O195  1  0.39288000  0.15411000  0.74160000  1
  O  O196  1  0.70949000  0.13556000  0.66299000  1
  O  O197  1  0.29051000  0.86444000  0.33701000  1
  O  O198  1  0.79051000  0.63556000  0.33701000  1
  O  O199  1  0.20949000  0.36444000  0.66299000  1
  O  O200  1  0.55280000  0.31661000  0.70216000  1
  O  O201  1  0.44720000  0.68339000  0.29784000  1
  O  O202  1  0.94720000  0.81661000  0.29784000  1
  O  O203  1  0.05280000  0.18339000  0.70216000  1
  O  O204  1  0.98978000  0.54763000  0.92081000  1
  O  O205  1  0.97939000  0.43015000  0.08387000  1
  O  O206  1  0.51021000  0.04763000  0.07919000  1
  O  O207  1  0.52061000  0.93015000  0.91613000  1
  O  O208  1  0.95155000  0.13704000  0.16880000  1
  O  O209  1  0.07123000  0.84526000  0.83959000  1
  O  O210  1  0.54845000  0.63704000  0.83120000  1
  O  O211  1  0.42877000  0.34525000  0.16041000  1
