# generated using pymatgen
data_Ba2P8H51C42BrO24
_symmetry_space_group_name_H-M   'P 1'
_cell_length_a   8.19503000
_cell_length_b   14.23086000
_cell_length_c   15.04197000
_cell_angle_alpha   93.64073000
_cell_angle_beta   99.07364000
_cell_angle_gamma   90.80611000
_symmetry_Int_Tables_number   1
_chemical_formula_structural   Ba2P8H51C42BrO24
_chemical_formula_sum   'Ba2 P8 H51 C42 Br1 O24'
_cell_volume   1728.26560010
_cell_formula_units_Z   1
loop_
 _symmetry_equiv_pos_site_id
 _symmetry_equiv_pos_as_xyz
  1  'x, y, z'
loop_
 _atom_site_type_symbol
 _atom_site_label
 _atom_site_symmetry_multiplicity
 _atom_site_fract_x
 _atom_site_fract_y
 _atom_site_fract_z
 _atom_site_occupancy
  Ba  Ba0  1  0.14288000  0.54478000  0.45402000  1
  Ba  Ba1  1  0.66729000  0.45521000  0.54590000  1
  P  P2  1  0.94756000  0.71405000  0.56048000  1
  P  P3  1  0.32515000  0.42386000  0.29797000  1
  P  P4  1  0.86231000  0.61771000  0.21238000  1
  P  P5  1  0.86273000  0.28594000  0.43944000  1
  P  P6  1  0.94648000  0.37559000  0.78762000  1
  P  P7  1  0.33988000  0.79059000  0.36633000  1
  P  P8  1  0.48079000  0.58163000  0.71605000  1
  P  P9  1  0.47079000  0.20888000  0.63211000  1
  H  H10  1  0.26036000  0.67828000  0.20322000  1
  H  H11  1  0.62220000  0.25201000  0.16537000  1
  H  H12  1  0.67958000  0.36803000  0.13783000  1
  H  H13  1  0.83357000  0.27889000  0.15322000  1
  H  H14  1  0.18052000  0.67163000  0.69495000  1
  H  H15  1  0.23262000  0.84672000  0.75260000  1
  H  H16  1  0.29196000  0.76543000  0.83933000  1
  H  H17  1  0.10086000  0.82759000  0.83578000  1
  H  H18  1  0.16359000  0.28340000  0.37406000  1
  H  H19  1  0.38376000  0.27612000  0.41376000  1
  H  H20  1  0.13653000  0.77208000  0.08108000  1
  H  H21  1  0.16823000  0.13348000  0.28168000  1
  H  H22  1  0.25364000  0.11584000  0.39718000  1
  H  H23  1  0.39000000  0.12792000  0.31497000  1
  H  H24  1  0.45639000  0.74062000  0.21022000  1
  H  H25  1  0.32412000  0.72195000  0.05328000  1
  H  H26  1  0.63702000  0.70762000  0.63008000  1
  H  H27  1  0.42075000  0.73453000  0.60119000  1
  H  H28  1  0.68413000  0.85716000  0.72689000  1
  H  H29  1  0.59998000  0.87842000  0.61190000  1
  H  H30  1  0.46904000  0.88474000  0.69705000  1
  H  H31  1  0.32204000  0.84451000  0.09130000  1
  H  H32  1  0.80847000  0.94700000  0.25674000  1
  H  H33  1  0.88198000  0.19985000  0.68578000  1
  H  H34  1  0.09337000  0.21276000  0.74345000  1
  H  H35  1  0.82551000  0.07753000  0.78687000  1
  H  H36  1  0.00019000  0.04574000  0.73262000  1
  H  H37  1  0.03429000  0.09280000  0.84871000  1
  H  H38  1  0.35399000  0.26275000  0.78633000  1
  H  H39  1  0.55534000  0.31968000  0.79644000  1
  H  H40  1  0.48932000  0.27978000  0.94508000  1
  H  H41  1  0.66533000  0.21635000  0.91732000  1
  H  H42  1  0.93677000  0.79621000  0.30617000  1
  H  H43  1  0.46547000  0.15732000  0.90604000  1
  H  H44  1  0.62865000  0.69788000  0.44999000  1
  H  H45  1  0.50535000  0.97760000  0.37899000  1
  H  H46  1  0.30721000  0.02066000  0.61744000  1
  H  H47  1  0.18111000  0.30121000  0.54917000  1
  H  H48  1  0.10504000  0.89392000  0.58222000  1
  H  H49  1  0.70727000  0.10467000  0.41460000  1
  H  H50  1  0.66938000  0.57395000  0.03731000  1
  H  H51  1  0.14396000  0.40678000  0.96759000  1
  H  H52  1  0.23666000  0.43195000  0.10534000  1
  H  H53  1  0.72144000  0.78190000  0.25654000  1
  H  H54  1  0.54815000  0.58199000  0.90780000  1
  H  H55  1  0.61825000  0.54453000  0.31100000  1
  H  H56  1  0.19534000  0.45517000  0.69664000  1
  H  H57  1  0.97915000  0.91514000  0.20008000  1
  H  H58  1  0.76963000  0.89638000  0.14261000  1
  H  H59  1  0.64719000  0.35970000  0.30214000  1
  H  H60  1  0.85417000  0.39517000  0.28791000  1
  C  C61  1  0.27276000  0.77319000  0.09948000  1
  C  C62  1  0.32053000  0.74725000  0.19648000  1
  C  C63  1  0.53066000  0.74255000  0.65460000  1
  C  C64  1  0.57369000  0.84710000  0.67392000  1
  C  C65  1  0.96410000  0.19697000  0.75177000  1
  C  C66  1  0.95533000  0.09701000  0.78208000  1
  C  C67  1  0.48908000  0.25226000  0.80175000  1
  C  C68  1  0.53006000  0.22452000  0.89861000  1
  C  C69  1  0.01744000  0.93841000  0.54458000  1
  C  C70  1  0.82044000  0.80212000  0.49512000  1
  C  C71  1  0.66489000  0.77131000  0.45017000  1
  C  C72  1  0.84757000  0.79685000  0.24265000  1
  C  C73  1  0.55067000  0.83460000  0.41132000  1
  C  C74  1  0.59500000  0.92968000  0.41059000  1
  C  C75  1  0.75249000  0.96327000  0.45248000  1
  C  C76  1  0.86534000  0.90040000  0.49789000  1
  C  C77  1  0.94745000  0.09753000  0.49775000  1
  C  C78  1  0.06037000  0.03471000  0.54327000  1
  C  C79  1  0.99180000  0.19587000  0.50095000  1
  C  C80  1  0.14614000  0.22720000  0.54745000  1
  C  C81  1  0.26107000  0.16399000  0.58587000  1
  C  C82  1  0.21757000  0.06853000  0.58570000  1
  C  C83  1  0.85161000  0.89501000  0.20830000  1
  C  C84  1  0.79511000  0.05972000  0.45149000  1
  C  C85  1  0.24313000  0.46348000  0.76807000  1
  C  C86  1  0.15474000  0.42624000  0.83023000  1
  C  C87  1  0.21661000  0.43778000  0.92281000  1
  C  C88  1  0.36493000  0.49126000  0.95478000  1
  C  C89  1  0.44339000  0.53416000  0.88969000  1
  C  C90  1  0.38406000  0.51955000  0.79786000  1
  C  C91  1  0.59126000  0.55138000  0.08349000  1
  C  C92  1  0.65529000  0.56581000  0.17515000  1
  C  C93  1  0.41864000  0.48455000  0.21348000  1
  C  C94  1  0.76136000  0.33648000  0.27773000  1
  C  C95  1  0.35171000  0.47125000  0.12169000  1
  C  C96  1  0.43512000  0.50570000  0.05414000  1
  C  C97  1  0.56656000  0.53510000  0.24000000  1
  C  C98  1  0.72151000  0.30728000  0.17737000  1
  C  C99  1  0.09354000  0.71157000  0.73212000  1
  C  C100  1  0.18621000  0.79261000  0.79346000  1
  C  C101  1  0.28305000  0.25912000  0.35638000  1
  C  C102  1  0.27288000  0.15253000  0.33655000  1
  Br  Br103  1  0.99416000  0.63313000  0.81209000  1
  O  O104  1  0.11369000  0.72820000  0.53275000  1
  O  O105  1  0.31471000  0.30109000  0.27871000  1
  O  O106  1  0.89053000  0.73095000  0.17744000  1
  O  O107  1  0.69660000  0.27174000  0.46723000  1
  O  O108  1  0.93838000  0.38788000  0.45949000  1
  O  O109  1  0.48463000  0.33110000  0.62733000  1
  O  O110  1  0.82319000  0.25826000  0.32287000  1
  O  O111  1  0.38911000  0.54897000  0.60521000  1
  O  O112  1  0.90474000  0.37863000  0.67033000  1
  O  O113  1  0.81227000  0.43425000  0.82595000  1
  O  O114  1  0.91259000  0.26035000  0.81672000  1
  O  O115  1  0.87190000  0.61211000  0.54044000  1
  O  O116  1  0.42118000  0.45102000  0.39472000  1
  O  O117  1  0.66273000  0.54823000  0.71735000  1
  O  O118  1  0.49696000  0.70439000  0.73399000  1
  O  O119  1  0.59909000  0.16501000  0.57770000  1
  O  O120  1  0.53916000  0.18121000  0.74340000  1
  O  O121  1  0.32566000  0.66889000  0.37260000  1
  O  O122  1  0.21395000  0.83507000  0.42199000  1
  O  O123  1  0.96363000  0.75049000  0.67554000  1
  O  O124  1  0.26772000  0.81721000  0.25515000  1
  O  O125  1  0.14757000  0.45171000  0.28263000  1
  O  O126  1  0.90554000  0.62135000  0.32960000  1
  O  O127  1  0.99492000  0.55812000  0.17424000  1
