# generated using pymatgen
data_H7(C3O)4
_symmetry_space_group_name_H-M   'P 1'
_cell_length_a   27.42920000
_cell_length_b   27.42920000
_cell_length_c   42.36930000
_cell_angle_alpha   90.00010000
_cell_angle_beta   90.00000000
_cell_angle_gamma   90.00000000
_symmetry_Int_Tables_number   1
_chemical_formula_structural   H7(C3O)4
_chemical_formula_sum   'H224 C384 O128'
_cell_volume   31877.00945280
_cell_formula_units_Z   32
loop_
 _symmetry_equiv_pos_site_id
 _symmetry_equiv_pos_as_xyz
  1  'x, y, z'
loop_
 _atom_site_type_symbol
 _atom_site_label
 _atom_site_symmetry_multiplicity
 _atom_site_fract_x
 _atom_site_fract_y
 _atom_site_fract_z
 _atom_site_occupancy
  H  7  1  0.19192900  0.31717300  0.87808900  1
  H  16  1  0.10020800  0.40832900  0.87554200  1
  H  19  1  0.21684600  0.48631200  0.90903100  1
  H  20  1  0.26924100  0.43360100  0.84532000  1
  H  21  1  0.18302900  0.32949500  0.99157400  1
  H  22  1  0.11123100  0.39963400  0.76219300  1
  H  29  1  0.31167000  0.61819200  0.37806400  1
  H  38  1  0.40340500  0.52706600  0.37555000  1
  H  41  1  0.28679200  0.44904000  0.40901500  1
  H  42  1  0.23437700  0.50171400  0.34532100  1
  H  43  1  0.32059700  0.60587700  0.49155400  1
  H  44  1  0.39240200  0.53573500  0.26219200  1
  H  51  1  0.90239400  0.90808600  0.12814600  1
  H  60  1  0.81103200  0.81644600  0.12576100  1
  H  63  1  0.73322800  0.93302600  0.15906400  1
  H  64  1  0.78620500  0.98527300  0.09523300  1
  H  65  1  0.89002400  0.89909200  0.24161100  1
  H  66  1  0.82146600  0.82711000  0.01237100  1
  H  73  1  0.60123100  0.02730800  0.62814300  1
  H  82  1  0.69256000  0.11891800  0.62576200  1
  H  85  1  0.77038600  0.00228900  0.65906400  1
  H  86  1  0.71742400  0.95009700  0.59524200  1
  H  87  1  0.61358600  0.03627700  0.74161000  1
  H  88  1  0.68209700  0.10829500  0.51238300  1
  H  95  1  0.31133700  0.31620000  0.62558700  1
  H  104  1  0.40244300  0.40798200  0.62813200  1
  H  107  1  0.28592500  0.48518100  0.59531300  1
  H  108  1  0.23325100  0.43273700  0.65903100  1
  H  109  1  0.31998900  0.32713100  0.51222900  1
  H  110  1  0.39003300  0.39903600  0.74161200  1
  H  117  1  0.19229700  0.61916800  0.12560800  1
  H  126  1  0.10118300  0.52741200  0.12812200  1
  H  129  1  0.21768000  0.45016900  0.09532800  1
  H  130  1  0.27036800  0.50257300  0.15903300  1
  H  131  1  0.18363000  0.60824100  0.01224900  1
  H  132  1  0.11358600  0.53631500  0.24161100  1
  H  139  1  0.60024600  0.90841800  0.37552200  1
  H  148  1  0.69232300  0.81741300  0.37789400  1
  H  151  1  0.76924500  0.93387300  0.34527600  1
  H  152  1  0.71648700  0.98640800  0.40916900  1
  H  153  1  0.61121300  0.89969700  0.26218300  1
  H  154  1  0.68163400  0.82949500  0.49143400  1
  H  161  1  0.90337900  0.02699300  0.87552100  1
  H  170  1  0.81130200  0.11795400  0.87789700  1
  H  173  1  0.73439100  0.00145500  0.84528900  1
  H  174  1  0.78718200  0.94894900  0.90916800  1
  H  175  1  0.89242300  0.03571100  0.76218400  1
  H  176  1  0.82203500  0.10588600  0.99142800  1
  H  183  1  0.81150200  0.61829700  0.12545800  1
  H  192  1  0.90308300  0.52688300  0.12787200  1
  H  195  1  0.78638000  0.44915600  0.09453800  1
  H  196  1  0.73422700  0.50217600  0.15837100  1
  H  197  1  0.82032900  0.60591500  0.01197700  1
  H  198  1  0.89240100  0.53737600  0.24124500  1
  H  205  1  0.69211900  0.31707600  0.62548100  1
  H  214  1  0.60053400  0.40846700  0.62787000  1
  H  217  1  0.71722000  0.48622700  0.59455500  1
  H  218  1  0.76939000  0.43323300  0.65836100  1
  H  219  1  0.68326700  0.32945000  0.51199800  1
  H  220  1  0.61120900  0.39802600  0.74125400  1
  H  227  1  0.10156100  0.02694700  0.87570200  1
  H  236  1  0.19271300  0.11894300  0.87790400  1
  H  239  1  0.27056200  0.00275700  0.84441300  1
  H  240  1  0.21785700  0.95017800  0.90843400  1
  H  241  1  0.11361300  0.03776900  0.76218600  1
  H  242  1  0.18222400  0.10834400  0.99127900  1
  H  249  1  0.40205600  0.90838900  0.37570600  1
  H  258  1  0.31092500  0.81643600  0.37790100  1
  H  261  1  0.23306500  0.93269500  0.34441400  1
  H  262  1  0.28575800  0.98519400  0.40843700  1
  H  263  1  0.39000300  0.89763000  0.26218700  1
  H  264  1  0.32142800  0.82698400  0.49126600  1
  H  271  1  0.69242900  0.61926300  0.37811300  1
  H  280  1  0.60150000  0.52711400  0.37570800  1
  H  283  1  0.71807700  0.45029400  0.40835000  1
  H  284  1  0.77053500  0.50313200  0.34445200  1
  H  285  1  0.68385000  0.60829000  0.49146400  1
  H  286  1  0.61360400  0.53787900  0.26218500  1
  H  293  1  0.81119300  0.31610700  0.87809300  1
  H  302  1  0.90212800  0.40824200  0.87571900  1
  H  305  1  0.78556700  0.48508700  0.90833200  1
  H  306  1  0.73309300  0.43229600  0.84445800  1
  H  307  1  0.81976700  0.32706900  0.99144700  1
  H  308  1  0.89001000  0.39754900  0.76218200  1
  H  315  1  0.40303300  0.02673100  0.62788600  1
  H  324  1  0.31112000  0.11798000  0.62569100  1
  H  327  1  0.23422000  0.00181400  0.65843000  1
  H  328  1  0.28667900  0.94902900  0.59437800  1
  H  329  1  0.39242800  0.03724300  0.74125600  1
  H  330  1  0.32186000  0.10593200  0.51216300  1
  H  337  1  0.10059000  0.90858500  0.12788900  1
  H  346  1  0.19249700  0.81738700  0.12568800  1
  H  349  1  0.26939200  0.93360200  0.15840100  1
  H  350  1  0.21690800  0.98634500  0.09437200  1
  H  351  1  0.11118600  0.89810000  0.24125700  1
  H  352  1  0.18171400  0.82942100  0.01216900  1
  H  359  1  0.21494900  0.34365100  0.77032700  1
  H  361  1  0.28774000  0.49478000  0.73367000  1
  H  363  1  0.20287000  0.52056000  0.77225200  1
  H  364  1  0.30082000  0.31881900  0.73135700  1
  H  371  1  0.28872200  0.59168300  0.27029700  1
  H  373  1  0.21582100  0.44057400  0.23370300  1
  H  375  1  0.30068200  0.41477700  0.27230600  1
  H  376  1  0.20280000  0.61648100  0.23126400  1
  H  383  1  0.87665200  0.93049600  0.02016900  1
  H  385  1  0.72566000  0.00396700  0.98383700  1
  H  387  1  0.69970900  0.91916900  0.02242900  1
  H  388  1  0.90183700  0.01613900  0.98138300  1
  H  395  1  0.62700200  0.00503800  0.52007900  1
  H  397  1  0.77794000  0.93125900  0.48391900  1
  H  399  1  0.80393700  0.01603400  0.52256900  1
  H  400  1  0.60194500  0.91921000  0.48108400  1
  H  407  1  0.78909200  0.59255100  0.23350400  1
  H  409  1  0.71544100  0.44159100  0.26973100  1
  H  411  1  0.80022600  0.41561200  0.23111600  1
  H  412  1  0.70334800  0.61767400  0.27240000  1
  H  419  1  0.71444500  0.34286500  0.73355200  1
  H  421  1  0.78827200  0.49380000  0.76968000  1
  H  423  1  0.70351200  0.51980500  0.73103200  1
  H  424  1  0.80029200  0.31781900  0.77257100  1
  H  431  1  0.12730500  0.00508400  0.98358200  1
  H  433  1  0.27823500  0.93117400  0.01965700  1
  H  435  1  0.30421900  0.01607300  0.98106600  1
  H  436  1  0.10221500  0.91917600  0.02248400  1
  H  443  1  0.37628800  0.93016200  0.48364700  1
  H  445  1  0.22539500  0.00427800  0.51960700  1
  H  447  1  0.19937700  0.91939600  0.48097800  1
  H  448  1  0.40131600  0.01616600  0.52265900  1
  H  455  1  0.71495900  0.84384500  0.27032500  1
  H  457  1  0.78771000  0.99499300  0.23365900  1
  H  459  1  0.70279700  0.02074600  0.27222500  1
  H  460  1  0.80085700  0.81902100  0.23139100  1
  H  467  1  0.78872700  0.09150000  0.77028400  1
  H  469  1  0.71583800  0.94037000  0.73370300  1
  H  471  1  0.80074700  0.91460200  0.77229500  1
  H  472  1  0.70274300  0.11626000  0.73125600  1
  H  479  1  0.37594500  0.43088500  0.52035100  1
  H  481  1  0.22479400  0.50354800  0.48362800  1
  H  483  1  0.19903500  0.41872600  0.52225100  1
  H  484  1  0.40076600  0.51669100  0.48134800  1
  H  491  1  0.12768400  0.50450500  0.02036000  1
  H  493  1  0.27882100  0.43179700  0.98365100  1
  H  495  1  0.30459900  0.51660900  0.02227900  1
  H  496  1  0.10287500  0.41867600  0.98133300  1
  H  503  1  0.28907800  0.09228200  0.73350000  1
  H  505  1  0.21547800  0.94130000  0.76975100  1
  H  507  1  0.30032400  0.91534600  0.73116100  1
  H  508  1  0.20332800  0.11742400  0.77231900  1
  H  515  1  0.21441700  0.84314100  0.23357900  1
  H  517  1  0.28828100  0.99408600  0.26966900  1
  H  519  1  0.20346100  0.02006700  0.23102600  1
  H  520  1  0.30033900  0.81813100  0.27260100  1
  H  527  1  0.62800500  0.50460100  0.48334500  1
  H  529  1  0.77912800  0.43170100  0.51992400  1
  H  531  1  0.80490000  0.51662100  0.48134100  1
  H  532  1  0.60321000  0.41864200  0.52233800  1
  H  539  1  0.87560900  0.43075100  0.98333700  1
  H  541  1  0.72448900  0.50368500  0.01989800  1
  H  543  1  0.69870700  0.41877100  0.98131400  1
  H  544  1  0.90038200  0.51673300  0.02235000  1
  H  551  1  0.12968500  0.26269800  0.92088100  1
  H  553  1  0.27955500  0.17360300  0.94053900  1
  H  555  1  0.29813200  0.26748900  0.96423300  1
  H  556  1  0.11113200  0.17239600  0.89691400  1
  H  563  1  0.37391800  0.67264400  0.42084000  1
  H  565  1  0.22409100  0.76177600  0.44058100  1
  H  567  1  0.20550700  0.66792000  0.46426800  1
  H  568  1  0.39247900  0.76295300  0.39687900  1
  H  575  1  0.95672700  0.84579500  0.17078100  1
  H  577  1  0.04607700  0.99543800  0.19068700  1
  H  579  1  0.95229000  0.01408300  0.21445300  1
  H  580  1  0.04691500  0.82716500  0.14674700  1
  H  587  1  0.54685400  0.08959300  0.67080600  1
  H  589  1  0.45759200  0.93988500  0.69066700  1
  H  591  1  0.55137100  0.92127800  0.71443000  1
  H  592  1  0.45665100  0.10819400  0.64678000  1
  H  599  1  0.37383800  0.26165300  0.58270000  1
  H  601  1  0.22398000  0.17246100  0.56316200  1
  H  603  1  0.20537900  0.26650100  0.53950600  1
  H  604  1  0.39261000  0.17143100  0.60656400  1
  H  611  1  0.12979800  0.67369400  0.08273900  1
  H  613  1  0.27961300  0.76291900  0.06311100  1
  H  615  1  0.29822300  0.66890700  0.03946600  1
  H  616  1  0.11102100  0.76392200  0.10659200  1
  H  623  1  0.54583000  0.84588300  0.33280000  1
  H  625  1  0.45639600  0.99552200  0.31300500  1
  H  627  1  0.55033200  0.01418400  0.28927300  1
  H  628  1  0.45571800  0.82704900  0.35673700  1
  H  635  1  0.95783200  0.08953600  0.83278500  1
  H  637  1  0.04718300  0.93984600  0.81300400  1
  H  639  1  0.95326700  0.92121600  0.78927700  1
  H  640  1  0.04795300  0.10833500  0.85671500  1
  H  647  1  0.87384100  0.67261400  0.08249600  1
  H  649  1  0.72398600  0.76198600  0.06329300  1
  H  651  1  0.70521400  0.66803200  0.03955400  1
  H  652  1  0.89264200  0.76294100  0.10647600  1
  H  659  1  0.62978000  0.26277600  0.58254000  1
  H  661  1  0.77958800  0.17337200  0.56324700  1
  H  663  1  0.79836700  0.26729600  0.53951800  1
  H  664  1  0.61096800  0.17244100  0.60651000  1
  H  671  1  0.62982800  0.67365400  0.42115600  1
  H  673  1  0.77965300  0.76313200  0.44026700  1
  H  675  1  0.79845400  0.66902800  0.46396600  1
  H  676  1  0.61080800  0.76389700  0.39728100  1
  H  683  1  0.87378300  0.26173100  0.92112000  1
  H  685  1  0.72399400  0.17222500  0.94031300  1
  H  687  1  0.70518200  0.26629800  0.96399700  1
  H  688  1  0.89281000  0.17147300  0.89725800  1
  H  695  1  0.45674200  0.34562700  0.67121000  1
  H  697  1  0.54607800  0.49555300  0.69024300  1
  H  699  1  0.45199900  0.51430300  0.71394600  1
  H  700  1  0.54714600  0.32680300  0.64727100  1
  H  707  1  0.04686700  0.58975800  0.17120000  1
  H  709  1  0.95756200  0.43982300  0.19025200  1
  H  711  1  0.05160800  0.42107700  0.21394900  1
  H  712  1  0.95645400  0.60855900  0.14726300  1
  H  719  1  0.04584000  0.34571300  0.83237600  1
  H  721  1  0.95640600  0.49562300  0.81344500  1
  H  723  1  0.05064000  0.51439500  0.78978200  1
  H  724  1  0.95552400  0.32667100  0.85621200  1
  H  731  1  0.45778900  0.58968200  0.33239400  1
  H  733  1  0.54720100  0.43977200  0.31341800  1
  H  735  1  0.45300200  0.42100400  0.28976400  1
  H  736  1  0.54811900  0.60869400  0.35622500  1
  C  1  1  0.19012700  0.39108100  0.89188900  1
  C  2  1  0.19616900  0.34062200  0.89678100  1
  C  3  1  0.20520000  0.32150500  0.92714500  1
  C  4  1  0.20865900  0.35378200  0.95315200  1
  C  5  1  0.20275000  0.40477100  0.94872500  1
  C  6  1  0.19302500  0.42313500  0.91801800  1
  C  9  1  0.17415100  0.40699500  0.86174400  1
  C  10  1  0.20621000  0.41010800  0.83561400  1
  C  11  1  0.18766600  0.41943000  0.80493700  1
  C  12  1  0.13667600  0.42477100  0.80042600  1
  C  13  1  0.10444700  0.42143900  0.82645900  1
  C  14  1  0.12363400  0.41269300  0.85684700  1
  C  23  1  0.31347800  0.54429200  0.39188300  1
  C  24  1  0.30739400  0.59474600  0.39675900  1
  C  25  1  0.29838500  0.61386100  0.42712800  1
  C  26  1  0.29495100  0.58158800  0.45313700  1
  C  27  1  0.30086600  0.53059900  0.44870700  1
  C  28  1  0.31058200  0.51222400  0.41800500  1
  C  31  1  0.32946700  0.52837500  0.36173400  1
  C  32  1  0.29739700  0.52523200  0.33561300  1
  C  33  1  0.31595400  0.51592100  0.30493800  1
  C  34  1  0.36694800  0.51060200  0.30042500  1
  C  35  1  0.39916900  0.51396000  0.32646000  1
  C  36  1  0.37998900  0.52272400  0.35684800  1
  C  45  1  0.82847000  0.90640900  0.14193400  1
  C  46  1  0.87893400  0.91242400  0.14682700  1
  C  47  1  0.89805200  0.92139700  0.17720000  1
  C  48  1  0.86577300  0.92481300  0.20320700  1
  C  49  1  0.81478700  0.91892500  0.19876300  1
  C  50  1  0.79641300  0.90924200  0.16805900  1
  C  53  1  0.81265800  0.89029100  0.11180100  1
  C  54  1  0.80981100  0.92225300  0.08561000  1
  C  55  1  0.80087500  0.90355800  0.05492400  1
  C  56  1  0.79579700  0.85253200  0.05045700  1
  C  57  1  0.79890300  0.82042700  0.07656400  1
  C  58  1  0.80694200  0.83976800  0.10698900  1
  C  67  1  0.67515500  0.02894800  0.64193200  1
  C  68  1  0.62468700  0.02295700  0.64682200  1
  C  69  1  0.60556900  0.01402200  0.67719800  1
  C  70  1  0.63784100  0.01055600  0.70320500  1
  C  71  1  0.68883400  0.01641700  0.69876100  1
  C  72  1  0.70720900  0.02609900  0.66805700  1
  C  75  1  0.69097000  0.04506800  0.61179900  1
  C  76  1  0.69381800  0.01311500  0.58560600  1
  C  77  1  0.70273500  0.03182000  0.55492100  1
  C  78  1  0.70779200  0.08285000  0.55045700  1
  C  79  1  0.70466400  0.11494900  0.57656600  1
  C  80  1  0.69669400  0.09559300  0.60699600  1
  C  89  1  0.31267700  0.39012500  0.61176100  1
  C  90  1  0.30703900  0.33960300  0.60687600  1
  C  91  1  0.29827200  0.32039200  0.57649800  1
  C  92  1  0.29486400  0.35260500  0.55046000  1
  C  93  1  0.30017200  0.40360000  0.55495800  1
  C  94  1  0.30949900  0.42217100  0.58562900  1
  C  97  1  0.32852000  0.40617800  0.64190800  1
  C  98  1  0.29645300  0.40900000  0.66803600  1
  C  99  1  0.31479400  0.41871900  0.69874400  1
  C  100  1  0.36577400  0.42467300  0.70318600  1
  C  101  1  0.39806800  0.42130000  0.67718400  1
  C  102  1  0.37897100  0.41228800  0.64681000  1
  C  111  1  0.19095400  0.54525000  0.11176600  1
  C  112  1  0.19663200  0.59576900  0.10689700  1
  C  113  1  0.20538200  0.61497500  0.07651500  1
  C  114  1  0.20877000  0.58276500  0.05047300  1
  C  115  1  0.20345800  0.53176800  0.05497300  1
  C  116  1  0.19413800  0.51319000  0.08564200  1
  C  119  1  0.17509900  0.52919800  0.14191400  1
  C  120  1  0.20717700  0.52634000  0.16803200  1
  C  121  1  0.18882800  0.51662100  0.19874200  1
  C  122  1  0.13784300  0.51068500  0.20318300  1
  C  123  1  0.10555800  0.51408700  0.17717800  1
  C  124  1  0.12464400  0.52312800  0.14680600  1
  C  133  1  0.67418500  0.90720400  0.36170500  1
  C  134  1  0.62365500  0.91281900  0.35682200  1
  C  135  1  0.60444200  0.92152800  0.32643700  1
  C  136  1  0.63665600  0.92490400  0.30039900  1
  C  137  1  0.68764900  0.91962500  0.30490700  1
  C  138  1  0.70623200  0.91032800  0.33557500  1
  C  141  1  0.69013900  0.89123200  0.39183800  1
  C  142  1  0.69265500  0.92319500  0.41803100  1
  C  143  1  0.70202800  0.90471100  0.44875200  1
  C  144  1  0.70778800  0.85369600  0.45314200  1
  C  145  1  0.70466400  0.82153700  0.42706200  1
  C  146  1  0.69633300  0.84078200  0.39665000  1
  C  155  1  0.82943600  0.02816100  0.86170600  1
  C  156  1  0.87996900  0.02258500  0.85682100  1
  C  157  1  0.89918300  0.01391900  0.82643300  1
  C  158  1  0.86697200  0.01049600  0.80039600  1
  C  159  1  0.81597600  0.01574200  0.80490800  1
  C  160  1  0.79739000  0.02502500  0.83557900  1
  C  163  1  0.81347800  0.04413100  0.89184100  1
  C  164  1  0.81098500  0.01217400  0.91803700  1
  C  165  1  0.80161500  0.03066200  0.94875300  1
  C  166  1  0.79585500  0.08167900  0.95314300  1
  C  167  1  0.79899800  0.11383700  0.92706300  1
  C  168  1  0.80725500  0.09458000  0.89664400  1
  C  177  1  0.81318300  0.54437500  0.11167300  1
  C  178  1  0.80720800  0.59484000  0.10677200  1
  C  179  1  0.79818500  0.61395400  0.07640800  1
  C  180  1  0.79468500  0.58167500  0.05040600  1
  C  181  1  0.80054300  0.53068200  0.05484600  1
  C  182  1  0.81025200  0.51231500  0.08555100  1
  C  185  1  0.82921700  0.52848700  0.14180700  1
  C  186  1  0.79726900  0.52572000  0.16800500  1
  C  187  1  0.81595000  0.51679600  0.19869600  1
  C  188  1  0.86697200  0.51168800  0.20316500  1
  C  189  1  0.89908400  0.51475000  0.17706200  1
  C  190  1  0.87974300  0.52276400  0.14663200  1
  C  199  1  0.69043800  0.39098900  0.61168100  1
  C  200  1  0.69645400  0.34052600  0.60679500  1
  C  201  1  0.70545500  0.32141700  0.57642700  1
  C  202  1  0.70892900  0.35369300  0.55042200  1
  C  203  1  0.70306700  0.40468600  0.55486200  1
  C  204  1  0.69336900  0.42306500  0.58556500  1
  C  207  1  0.67439700  0.40687800  0.64181800  1
  C  208  1  0.70635900  0.40967400  0.66800500  1
  C  209  1  0.68767500  0.41859500  0.69869700  1
  C  210  1  0.63664900  0.42368800  0.70316900  1
  C  211  1  0.60453700  0.42059700  0.67706600  1
  C  212  1  0.62386700  0.41256100  0.64663600  1
  C  221  1  0.17540000  0.02898200  0.86176300  1
  C  222  1  0.12493100  0.02287500  0.85695100  1
  C  223  1  0.10565200  0.01464000  0.82653700  1
  C  224  1  0.13780300  0.01151600  0.80045200  1
  C  225  1  0.18882100  0.01723400  0.80484400  1
  C  226  1  0.20733200  0.02655800  0.83555800  1
  C  229  1  0.19125900  0.04509800  0.89187900  1
  C  230  1  0.19415500  0.01315700  0.91807300  1
  C  231  1  0.20303000  0.03188800  0.94875300  1
  C  232  1  0.20798600  0.08292800  0.95321800  1
  C  233  1  0.20482400  0.11501500  0.92710500  1
  C  234  1  0.19686000  0.09563800  0.89668200  1
  C  243  1  0.32821500  0.90640600  0.36176900  1
  C  244  1  0.37868700  0.91248000  0.35695700  1
  C  245  1  0.39796900  0.92067500  0.32654100  1
  C  246  1  0.36581800  0.92387600  0.30046000  1
  C  247  1  0.31479400  0.91818900  0.30485000  1
  C  248  1  0.29628300  0.90885600  0.33556600  1
  C  251  1  0.31235100  0.89028100  0.39188300  1
  C  252  1  0.30945500  0.92221400  0.41807900  1
  C  253  1  0.30058900  0.90346700  0.44875600  1
  C  254  1  0.29564800  0.85242300  0.45321500  1
  C  255  1  0.29883300  0.82034400  0.42709900  1
  C  256  1  0.30673600  0.83974000  0.39667400  1
  C  265  1  0.69122600  0.54532400  0.39192500  1
  C  266  1  0.69678500  0.59585400  0.39681800  1
  C  267  1  0.70553900  0.61506700  0.42719600  1
  C  268  1  0.70899500  0.58285400  0.45322900  1
  C  269  1  0.70375600  0.53185300  0.44872100  1
  C  270  1  0.69444500  0.51327400  0.41805300  1
  C  273  1  0.67533800  0.52929400  0.36179000  1
  C  274  1  0.70728500  0.52688000  0.33558700  1
  C  275  1  0.68881900  0.51751000  0.30486500  1
  C  276  1  0.63780800  0.51170600  0.30047200  1
  C  277  1  0.60563800  0.51477300  0.32655000  1
  C  278  1  0.62488800  0.52307800  0.35696600  1
  C  287  1  0.81239600  0.39003900  0.89192400  1
  C  288  1  0.80679600  0.33950800  0.89679500  1
  C  289  1  0.79805300  0.32030100  0.92717600  1
  C  290  1  0.79461500  0.35251000  0.95321600  1
  C  291  1  0.79985800  0.40351000  0.94870600  1
  C  292  1  0.80916500  0.42209900  0.91804000  1
  C  295  1  0.82829500  0.40606900  0.86178400  1
  C  296  1  0.79632900  0.40852200  0.83559300  1
  C  297  1  0.81480200  0.41789900  0.80487000  1
  C  298  1  0.86581300  0.42369200  0.80047600  1
  C  299  1  0.89797900  0.42059000  0.82655400  1
  C  300  1  0.87874800  0.41224800  0.85696700  1
  C  309  1  0.32917100  0.02819300  0.64185100  1
  C  310  1  0.37971100  0.02257200  0.64665400  1
  C  311  1  0.39909200  0.01461400  0.67708000  1
  C  312  1  0.36700200  0.01149000  0.70319300  1
  C  313  1  0.31597200  0.01651600  0.69873200  1
  C  314  1  0.29724500  0.02541200  0.66805200  1
  C  317  1  0.31315400  0.04416100  0.61173500  1
  C  318  1  0.31060600  0.01221500  0.58553900  1
  C  319  1  0.30128400  0.03073200  0.55482600  1
  C  320  1  0.29561700  0.08175900  0.55043600  1
  C  321  1  0.29878800  0.11390500  0.57652100  1
  C  322  1  0.30705600  0.09462600  0.60693000  1
  C  331  1  0.17445600  0.90717400  0.14184800  1
  C  332  1  0.12391100  0.91275600  0.14665600  1
  C  333  1  0.10452900  0.92066400  0.17708500  1
  C  334  1  0.13662000  0.92385000  0.20319400  1
  C  335  1  0.18765600  0.91885900  0.19872900  1
  C  336  1  0.20638500  0.90997800  0.16804800  1
  C  339  1  0.19047500  0.89121000  0.11173200  1
  C  340  1  0.19300500  0.92315000  0.08553500  1
  C  341  1  0.20232300  0.90462600  0.05482100  1
  C  342  1  0.20798400  0.85359600  0.05043400  1
  C  343  1  0.20479300  0.82145500  0.07652100  1
  C  344  1  0.19659700  0.84074500  0.10693500  1
  C  353  1  0.27255700  0.46274200  0.74127300  1
  C  354  1  0.24076000  0.46358000  0.76744700  1
  C  355  1  0.21956000  0.41975800  0.77852100  1
  C  356  1  0.23009100  0.37569200  0.76268200  1
  C  357  1  0.26161000  0.37490800  0.73639600  1
  C  358  1  0.28285400  0.41874500  0.72523500  1
  C  365  1  0.23103600  0.47260600  0.24128600  1
  C  366  1  0.26282600  0.47177100  0.26746500  1
  C  367  1  0.28406100  0.51558500  0.27852000  1
  C  368  1  0.27356300  0.55964400  0.26266200  1
  C  369  1  0.24204200  0.56042800  0.23637900  1
  C  370  1  0.22076800  0.51659500  0.22523200  1
  C  377  1  0.75767300  0.98865500  0.99137600  1
  C  378  1  0.75681600  0.95683300  0.01753200  1
  C  379  1  0.80059400  0.93540300  0.02849000  1
  C  380  1  0.84464200  0.94577900  0.01258500  1
  C  381  1  0.84544400  0.97735000  0.98633000  1
  C  382  1  0.80164400  0.99879800  0.97527200  1
  C  389  1  0.74594100  0.94664800  0.49141500  1
  C  390  1  0.74679000  0.97846100  0.51757800  1
  C  391  1  0.70302700  0.99998900  0.52848200  1
  C  392  1  0.65900100  0.98970400  0.51252700  1
  C  393  1  0.65820600  0.95812500  0.48627400  1
  C  394  1  0.70199200  0.93659300  0.47526400  1
  C  401  1  0.73078900  0.47359700  0.26221600  1
  C  402  1  0.76261700  0.47274800  0.23605800  1
  C  403  1  0.78410500  0.51651500  0.22513200  1
  C  404  1  0.77377600  0.56054800  0.24106600  1
  C  405  1  0.74219700  0.56134700  0.26732100  1
  C  406  1  0.72069800  0.51755400  0.27835000  1
  C  413  1  0.77287600  0.46180100  0.76219100  1
  C  414  1  0.74106300  0.46264300  0.73602800  1
  C  415  1  0.71952000  0.41888300  0.72513100  1
  C  416  1  0.72979400  0.37486500  0.74109800  1
  C  417  1  0.76137300  0.37407400  0.76735300  1
  C  418  1  0.78292000  0.41785900  0.77835600  1
  C  425  1  0.24623800  0.94657400  0.01216900  1
  C  426  1  0.24709100  0.97846600  0.98604900  1
  C  427  1  0.20333300  0.00004500  0.97518000  1
  C  428  1  0.15930300  0.98972000  0.99111800  1
  C  429  1  0.15850000  0.95806900  0.01733100  1
  C  430  1  0.20228600  0.93649300  0.02830800  1
  C  437  1  0.25738300  0.98882500  0.51214900  1
  C  438  1  0.25653300  0.95694300  0.48602400  1
  C  439  1  0.30028100  0.93529900  0.47519100  1
  C  440  1  0.34429600  0.94556100  0.49116200  1
  C  441  1  0.34509800  0.97721700  0.51737200  1
  C  442  1  0.30132100  0.99885100  0.52831900  1
  C  449  1  0.77253700  0.96295500  0.24126400  1
  C  450  1  0.74072400  0.96379300  0.26742900  1
  C  451  1  0.71953500  0.91996000  0.27849900  1
  C  452  1  0.73009300  0.87588700  0.26267600  1
  C  453  1  0.76162900  0.87510300  0.23640500  1
  C  454  1  0.78285400  0.91894700  0.22524600  1
  C  461  1  0.73104800  0.97240600  0.74128700  1
  C  462  1  0.76285700  0.97157400  0.76745400  1
  C  463  1  0.78409000  0.01539700  0.77849500  1
  C  464  1  0.77357200  0.05945900  0.76265100  1
  C  465  1  0.74202500  0.06023900  0.73638200  1
  C  466  1  0.72076000  0.01639700  0.72524900  1
  C  473  1  0.25683500  0.48838900  0.49124200  1
  C  474  1  0.25600200  0.45663100  0.51743800  1
  C  475  1  0.29983300  0.43547500  0.52853400  1
  C  476  1  0.34389900  0.44600000  0.51269200  1
  C  477  1  0.34467800  0.47747700  0.48639000  1
  C  478  1  0.30083300  0.49867700  0.47520500  1
  C  485  1  0.24678500  0.44697400  0.99125800  1
  C  486  1  0.24762000  0.47872300  0.01745800  1
  C  487  1  0.20379400  0.49989700  0.02854800  1
  C  488  1  0.15972700  0.48938600  0.01270200  1
  C  489  1  0.15894500  0.45790800  0.98639800  1
  C  490  1  0.20278600  0.43669300  0.97522000  1
  C  497  1  0.23081700  0.97331000  0.76222600  1
  C  498  1  0.26266700  0.97245700  0.73608700  1
  C  499  1  0.28414100  0.01622900  0.72516400  1
  C  500  1  0.27377500  0.06027500  0.74107200  1
  C  501  1  0.24216800  0.06107600  0.76730800  1
  C  502  1  0.22069000  0.01727500  0.77833500  1
  C  509  1  0.27287800  0.96208700  0.26218300  1
  C  510  1  0.24104100  0.96292900  0.23603600  1
  C  511  1  0.21948500  0.91916200  0.22516200  1
  C  512  1  0.22977000  0.87514000  0.24111800  1
  C  513  1  0.26137800  0.87434800  0.26735400  1
  C  514  1  0.28293200  0.91814100  0.27833800  1
  C  521  1  0.74709300  0.44690800  0.51233800  1
  C  522  1  0.74792800  0.47872800  0.48617500  1
  C  523  1  0.70410600  0.49996400  0.47513200  1
  C  524  1  0.66004400  0.48943900  0.49097600  1
  C  525  1  0.65926000  0.45789200  0.51724200  1
  C  526  1  0.70310000  0.43662300  0.52837800  1
  C  533  1  0.75652100  0.48846000  0.01232000  1
  C  534  1  0.75568600  0.45664700  0.98615500  1
  C  535  1  0.79950800  0.43539900  0.97511900  1
  C  536  1  0.84356700  0.44591400  0.99096700  1
  C  537  1  0.84435100  0.47746500  0.01723100  1
  C  538  1  0.80051400  0.49874100  0.02836300  1
  C  545  1  0.24754500  0.19219500  0.93735100  1
  C  546  1  0.24823600  0.24367600  0.93764600  1
  C  547  1  0.20508900  0.27009000  0.93104400  1
  C  548  1  0.16132300  0.24422700  0.92564700  1
  C  549  1  0.16062200  0.19291700  0.92523400  1
  C  550  1  0.20406700  0.16642100  0.93091200  1
  C  557  1  0.25608900  0.74317900  0.43735200  1
  C  558  1  0.25538800  0.69169700  0.43765400  1
  C  559  1  0.29851700  0.66527600  0.43101500  1
  C  560  1  0.34229500  0.69112800  0.42562900  1
  C  561  1  0.34300900  0.74243900  0.42521600  1
  C  562  1  0.29957100  0.76893600  0.43090200  1
  C  569  1  0.02743000  0.96347200  0.18744500  1
  C  570  1  0.97595500  0.96424100  0.18776400  1
  C  571  1  0.94946800  0.92116700  0.18108400  1
  C  572  1  0.97525500  0.87738100  0.17559800  1
  C  573  1  0.02656000  0.87660100  0.17515700  1
  C  574  1  0.05312500  0.91998600  0.18090200  1
  C  581  1  0.47621400  0.97186200  0.68741300  1
  C  582  1  0.52769200  0.97112600  0.68775000  1
  C  583  1  0.55415300  0.01421800  0.68108300  1
  C  584  1  0.52834500  0.05799900  0.67562400  1
  C  585  1  0.47703500  0.05874500  0.67517300  1
  C  586  1  0.45049700  0.01533800  0.68088700  1
  C  593  1  0.25598700  0.19107100  0.56632000  1
  C  594  1  0.25526300  0.24255100  0.56605100  1
  C  595  1  0.29840800  0.26898600  0.57262000  1
  C  596  1  0.34220400  0.24316000  0.57796300  1
  C  597  1  0.34294300  0.19184900  0.57833600  1
  C  598  1  0.29949800  0.16532000  0.57269800  1
  C  605  1  0.24761900  0.74430400  0.06631000  1
  C  606  1  0.24835300  0.69282300  0.06603500  1
  C  607  1  0.20522400  0.66638000  0.07264400  1
  C  608  1  0.16141600  0.69219600  0.07797600  1
  C  609  1  0.16066600  0.74350600  0.07834800  1
  C  610  1  0.20410300  0.77004000  0.07269600  1
  C  617  1  0.47505900  0.96355600  0.31621700  1
  C  618  1  0.52653700  0.96435500  0.31592200  1
  C  619  1  0.55303400  0.92128000  0.32257100  1
  C  620  1  0.52728400  0.87746600  0.32800900  1
  C  621  1  0.47597400  0.87665600  0.32841200  1
  C  622  1  0.44938200  0.92004100  0.32270300  1
  C  629  1  0.02854200  0.97181500  0.81623700  1
  C  630  1  0.97706700  0.97105000  0.81592100  1
  C  631  1  0.95058800  0.01414100  0.82257000  1
  C  632  1  0.97636300  0.05794700  0.82798400  1
  C  633  1  0.02767100  0.05872700  0.82839900  1
  C  634  1  0.05423800  0.01532300  0.82270900  1
  C  641  1  0.75598900  0.74333400  0.06638700  1
  C  642  1  0.75521600  0.69185700  0.06604900  1
  C  643  1  0.79836300  0.66536700  0.07251000  1
  C  644  1  0.84220300  0.69114600  0.07782100  1
  C  645  1  0.84298700  0.74245600  0.07827100  1
  C  646  1  0.79954400  0.76902600  0.07273500  1
  C  653  1  0.74760000  0.19202600  0.56637900  1
  C  654  1  0.74838000  0.24350500  0.56603700  1
  C  655  1  0.70524700  0.27000300  0.57254000  1
  C  656  1  0.66140000  0.24423400  0.57783800  1
  C  657  1  0.66060500  0.19292700  0.57828700  1
  C  658  1  0.70403700  0.16635100  0.57273800  1
  C  665  1  0.74766200  0.74446200  0.43719900  1
  C  666  1  0.74846800  0.69298400  0.43751000  1
  C  667  1  0.70532400  0.66646900  0.43107200  1
  C  668  1  0.66145500  0.69221100  0.42580800  1
  C  669  1  0.66063400  0.74351800  0.42540000  1
  C  670  1  0.70407000  0.77012800  0.43090600  1
  C  677  1  0.75597800  0.19089800  0.93720400  1
  C  678  1  0.75516100  0.24237700  0.93752100  1
  C  679  1  0.79829000  0.26889700  0.93104400  1
  C  680  1  0.84217000  0.24316600  0.92579800  1
  C  681  1  0.84300200  0.19185800  0.92539200  1
  C  682  1  0.79957400  0.16524700  0.93090700  1
  C  689  1  0.52743300  0.46354400  0.68718400  1
  C  690  1  0.47595500  0.46430600  0.68750200  1
  C  691  1  0.44947600  0.42113300  0.68108000  1
  C  692  1  0.47526600  0.37727800  0.67584500  1
  C  693  1  0.52657700  0.37650500  0.67541400  1
  C  694  1  0.55313600  0.41997000  0.68089600  1
  C  701  1  0.97619500  0.47183300  0.18716800  1
  C  702  1  0.02767200  0.47108200  0.18750200  1
  C  703  1  0.05414400  0.51425400  0.18107000  1
  C  704  1  0.02834600  0.55810900  0.17585100  1
  C  705  1  0.97703700  0.55887500  0.17541200  1
  C  706  1  0.95048500  0.51540300  0.18089200  1
  C  713  1  0.97506900  0.46361700  0.81647600  1
  C  714  1  0.02654600  0.46441200  0.81618300  1
  C  715  1  0.05304500  0.42124200  0.82257700  1
  C  716  1  0.02729300  0.37735900  0.82776200  1
  C  717  1  0.97598400  0.37654900  0.82815400  1
  C  718  1  0.94939200  0.42001000  0.82270400  1
  C  725  1  0.52854500  0.47177800  0.31648100  1
  C  726  1  0.47706700  0.47099100  0.31617500  1
  C  727  1  0.45057400  0.51415600  0.32258700  1
  C  728  1  0.47633100  0.55804000  0.32776100  1
  C  729  1  0.52764100  0.55884200  0.32815700  1
  C  730  1  0.55423000  0.51538100  0.32270500  1
  O  8  1  0.21567700  0.33532700  0.98272100  1
  O  15  1  0.11840700  0.43213600  0.77085100  1
  O  17  1  0.18485000  0.47170700  0.91356900  1
  O  18  1  0.25480500  0.40186500  0.83987500  1
  O  30  1  0.28794600  0.60004700  0.48270600  1
  O  37  1  0.38522000  0.50323400  0.27085200  1
  O  39  1  0.31878000  0.46365600  0.41355600  1
  O  40  1  0.24879900  0.53345300  0.33987800  1
  O  52  1  0.88423100  0.93175800  0.23278000  1
  O  59  1  0.78883300  0.83411000  0.02088000  1
  O  61  1  0.74784800  0.90103900  0.16360000  1
  O  62  1  0.81796600  0.97087300  0.08981900  1
  O  74  1  0.61938600  0.00360800  0.73277800  1
  O  81  1  0.71473700  0.10127800  0.52087900  1
  O  83  1  0.75577700  0.03428400  0.66359800  1
  O  84  1  0.68566600  0.96449000  0.58980900  1
  O  96  1  0.28749000  0.33432500  0.52088700  1
  O  103  1  0.38422500  0.43168700  0.73275500  1
  O  105  1  0.31767900  0.47078000  0.58987800  1
  O  106  1  0.24789400  0.40076000  0.66357500  1
  O  118  1  0.21613200  0.60104800  0.02090000  1
  O  125  1  0.11939000  0.50366700  0.23274900  1
  O  127  1  0.18593400  0.46458500  0.08989100  1
  O  128  1  0.25573900  0.53455800  0.16356800  1
  O  140  1  0.61837600  0.93221700  0.27081900  1
  O  147  1  0.71440500  0.83509500  0.48270800  1
  O  149  1  0.75483300  0.90212600  0.33983300  1
  O  150  1  0.68447400  0.97177800  0.41362000  1
  O  162  1  0.88525600  0.00319100  0.77081500  1
  O  169  1  0.78925600  0.10028700  0.98270900  1
  O  171  1  0.74878500  0.03320300  0.83983200  1
  O  172  1  0.81918400  0.96359800  0.91363300  1
  O  184  1  0.78767700  0.60012600  0.02083800  1
  O  191  1  0.88539100  0.50473900  0.23274400  1
  O  193  1  0.81838900  0.46373500  0.09001000  1
  O  194  1  0.74865700  0.53392300  0.16379300  1
  O  206  1  0.71592200  0.33523500  0.52085400  1
  O  213  1  0.61823400  0.43065900  0.73274700  1
  O  215  1  0.68521400  0.47163700  0.59002600  1
  O  216  1  0.75497500  0.40148600  0.66378700  1
  O  228  1  0.11918600  0.00497500  0.77088400  1
  O  235  1  0.21488000  0.10136900  0.98279600  1
  O  237  1  0.25591000  0.03476100  0.83996700  1
  O  238  1  0.18607700  0.96452000  0.91386900  1
  O  250  1  0.38443300  0.93042400  0.27089000  1
  O  257  1  0.28877000  0.83397200  0.48279300  1
  O  259  1  0.24770100  0.90068200  0.33997500  1
  O  260  1  0.31753300  0.97085200  0.41388500  1
  O  272  1  0.71635600  0.60113700  0.48280200  1
  O  279  1  0.61920800  0.50510400  0.27090400  1
  O  281  1  0.68631500  0.46465800  0.41379700  1
  O  282  1  0.75585700  0.53512300  0.34000100  1
  O  294  1  0.78725800  0.33422500  0.98278700  1
  O  301  1  0.88441400  0.43032000  0.77091000  1
  O  303  1  0.81732100  0.47071200  0.91378400  1
  O  304  1  0.74775700  0.40029800  0.84001400  1
  O  316  1  0.38544300  0.00459000  0.73277100  1
  O  323  1  0.28906800  0.10038000  0.52087000  1
  O  325  1  0.24862300  0.03357200  0.66384900  1
  O  326  1  0.31871600  0.96362300  0.58995300  1
  O  338  1  0.11818600  0.93075200  0.23277400  1
  O  345  1  0.21451200  0.83497000  0.02086700  1
  O  347  1  0.25501100  0.90184400  0.16384600  1
  O  348  1  0.18487800  0.97174000  0.08993900  1
  O  360  1  0.23220300  0.50680100  0.78220800  1
  O  362  1  0.27046600  0.33139100  0.72204600  1
  O  372  1  0.27134800  0.42855800  0.28224700  1
  O  374  1  0.23321400  0.60394000  0.22201700  1
  O  384  1  0.71362100  0.94844400  0.03236500  1
  O  386  1  0.88891600  0.98606700  0.97189000  1
  O  396  1  0.78996000  0.98675800  0.53246100  1
  O  398  1  0.61473800  0.94949100  0.47180400  1
  O  408  1  0.77095400  0.42956400  0.22119800  1
  O  410  1  0.73353100  0.60481100  0.28177900  1
  O  420  1  0.73278000  0.50580900  0.72113800  1
  O  422  1  0.76998800  0.33060800  0.78183000  1
  O  432  1  0.29026200  0.98678900  0.97117000  1
  O  434  1  0.11503600  0.94942100  0.03180200  1
  O  444  1  0.21337900  0.94868600  0.47111200  1
  O  446  1  0.38855600  0.98581400  0.53186100  1
  O  456  1  0.73213800  0.00701100  0.28218100  1
  O  458  1  0.77051300  0.83158400  0.22206200  1
  O  468  1  0.77140300  0.92836500  0.78223100  1
  O  470  1  0.73318100  0.10375100  0.72202300  1
  O  480  1  0.21278200  0.44807100  0.53219900  1
  O  482  1  0.38819500  0.48633300  0.47203800  1
  O  492  1  0.29083800  0.48726800  0.03222400  1
  O  494  1  0.11542600  0.44906000  0.97204800  1
  O  504  1  0.27104100  0.92926900  0.72124200  1
  O  506  1  0.23346100  0.10454600  0.78175500  1
  O  516  1  0.23274800  0.00608800  0.22114300  1
  O  518  1  0.27000400  0.83088800  0.28183400  1
  O  528  1  0.79114100  0.48727700  0.47140300  1
  O  530  1  0.61574800  0.44904800  0.53159900  1
  O  540  1  0.71247700  0.44810800  0.97137500  1
  O  542  1  0.88786600  0.48630600  0.03159000  1
  O  552  1  0.29154300  0.26717500  0.94141500  1
  O  554  1  0.11757600  0.16958000  0.91968900  1
  O  564  1  0.21208100  0.66820800  0.44144700  1
  O  566  1  0.38605500  0.76576400  0.41966000  1
  O  576  1  0.95252700  0.00756800  0.19162500  1
  O  578  1  0.04982500  0.83354500  0.16952600  1
  O  588  1  0.55114500  0.92781100  0.69160200  1
  O  590  1  0.45374200  0.10179300  0.66955600  1
  O  600  1  0.21193100  0.26602300  0.56232700  1
  O  602  1  0.38602600  0.16853800  0.58380900  1
  O  612  1  0.29168500  0.66935900  0.06229000  1
  O  614  1  0.11758100  0.76680900  0.08383400  1
  O  624  1  0.54993900  0.00770400  0.31210600  1
  O  626  1  0.45273200  0.83356400  0.33397800  1
  O  636  1  0.95363900  0.92771300  0.81210700  1
  O  638  1  0.05093900  0.10180800  0.83395500  1
  O  648  1  0.71185000  0.66843600  0.06236700  1
  O  650  1  0.88610500  0.76571200  0.08370800  1
  O  660  1  0.79174600  0.26691600  0.56233200  1
  O  662  1  0.61748700  0.16967700  0.58373900  1
  O  672  1  0.79185900  0.66959300  0.44115000  1
  O  674  1  0.61748000  0.76674800  0.42002800  1
  O  684  1  0.71176900  0.26575900  0.94117900  1
  O  686  1  0.88615600  0.16863600  0.92000800  1
  O  696  1  0.45252800  0.50767500  0.69113200  1
  O  698  1  0.54984700  0.33337500  0.67003700  1
  O  708  1  0.05110600  0.42771600  0.19113700  1
  O  710  1  0.95376300  0.60199700  0.17003100  1
  O  720  1  0.04994600  0.50780700  0.81259800  1
  O  722  1  0.95274200  0.33338100  0.83346400  1
  O  732  1  0.45366200  0.42759900  0.31257800  1
  O  734  1  0.55089000  0.60200100  0.33347700  1
