# generated using pymatgen
data_Zn2SiH16(C7O2)4
_symmetry_space_group_name_H-M   'P 1'
_cell_length_a   13.03186000
_cell_length_b   13.03186000
_cell_length_c   23.63398000
_cell_angle_alpha   90.00000000
_cell_angle_beta   90.00000000
_cell_angle_gamma   90.00000000
_symmetry_Int_Tables_number   1
_chemical_formula_structural   Zn2SiH16(C7O2)4
_chemical_formula_sum   'Zn4 Si2 H32 C56 O16'
_cell_volume   4013.74405357
_cell_formula_units_Z   2
loop_
 _symmetry_equiv_pos_site_id
 _symmetry_equiv_pos_as_xyz
  1  'x, y, z'
loop_
 _atom_site_type_symbol
 _atom_site_label
 _atom_site_symmetry_multiplicity
 _atom_site_fract_x
 _atom_site_fract_y
 _atom_site_fract_z
 _atom_site_occupancy
  Zn  Zn1  1  0.59826000  0.00000000  0.00000000  1.0
  Zn  Zn2  1  0.40173000  0.00000000  0.00000000  1.0
  Zn  Zn3  1  0.00000000  0.59826000  0.50000000  1.0
  Zn  Zn4  1  0.00000000  0.40173000  0.50000000  1.0
  Si  Si1  1  0.50000000  0.50000000  0.75000000  1.0
  Si  Si2  1  0.50000000  0.50000000  0.25000000  1.0
  H  H1  1  0.66564000  0.62760000  0.80250000  1.0
  H  H2  1  0.66449000  0.76768000  0.87378000  1.0
  H  H3  1  0.33436000  0.37239000  0.80250000  1.0
  H  H4  1  0.33551000  0.23232000  0.87378000  1.0
  H  H5  1  0.37239000  0.66564000  0.30250000  1.0
  H  H6  1  0.23232000  0.66449000  0.37378000  1.0
  H  H7  1  0.62760000  0.33436000  0.30250000  1.0
  H  H8  1  0.76768000  0.33551000  0.37378000  1.0
  H  H9  1  0.33436000  0.62760000  0.19751000  1.0
  H  H10  1  0.33551000  0.76768000  0.12622000  1.0
  H  H11  1  0.66564000  0.37239000  0.19751000  1.0
  H  H12  1  0.66449000  0.23232000  0.12622000  1.0
  H  H13  1  0.62760000  0.66564000  0.69751000  1.0
  H  H14  1  0.76768000  0.66449000  0.62622000  1.0
  H  H15  1  0.37239000  0.33436000  0.69751000  1.0
  H  H16  1  0.23232000  0.33551000  0.62622000  1.0
  H  H17  1  0.33436000  0.37239000  0.19751000  1.0
  H  H18  1  0.33551000  0.23232000  0.12622000  1.0
  H  H19  1  0.66564000  0.62760000  0.19751000  1.0
  H  H20  1  0.66449000  0.76768000  0.12622000  1.0
  H  H21  1  0.62760000  0.33436000  0.69751000  1.0
  H  H22  1  0.76768000  0.33551000  0.62622000  1.0
  H  H23  1  0.37239000  0.66564000  0.69751000  1.0
  H  H24  1  0.23232000  0.66449000  0.62622000  1.0
  H  H25  1  0.66564000  0.37239000  0.80250000  1.0
  H  H26  1  0.66449000  0.23232000  0.87378000  1.0
  H  H27  1  0.33436000  0.62760000  0.80250000  1.0
  H  H28  1  0.33551000  0.76768000  0.87378000  1.0
  H  H29  1  0.37239000  0.33436000  0.30250000  1.0
  H  H30  1  0.23232000  0.33551000  0.37378000  1.0
  H  H31  1  0.62760000  0.66564000  0.30250000  1.0
  H  H32  1  0.76768000  0.66449000  0.37378000  1.0
  C  C1  1  0.59270000  0.65757000  0.81773000  1.0
  C  C2  1  0.59295000  0.73622000  0.85774000  1.0
  C  C3  1  0.40730000  0.34242000  0.81773000  1.0
  C  C4  1  0.40705000  0.26378000  0.85774000  1.0
  C  C5  1  0.34242000  0.59269000  0.31773000  1.0
  C  C6  1  0.26378000  0.59295000  0.35774000  1.0
  C  C7  1  0.65757000  0.40730000  0.31773000  1.0
  C  C8  1  0.73622000  0.40705000  0.35774000  1.0
  C  C9  1  0.40730000  0.65757000  0.18228000  1.0
  C  C10  1  0.40705000  0.73622000  0.14226000  1.0
  C  C11  1  0.59270000  0.34242000  0.18228000  1.0
  C  C12  1  0.59295000  0.26378000  0.14226000  1.0
  C  C13  1  0.65757000  0.59269000  0.68228000  1.0
  C  C14  1  0.73622000  0.59295000  0.64227000  1.0
  C  C15  1  0.34242000  0.40730000  0.68228000  1.0
  C  C16  1  0.26378000  0.40705000  0.64227000  1.0
  C  C17  1  0.40730000  0.34242000  0.18228000  1.0
  C  C18  1  0.40705000  0.26378000  0.14226000  1.0
  C  C19  1  0.59270000  0.65757000  0.18228000  1.0
  C  C20  1  0.59295000  0.73622000  0.14226000  1.0
  C  C21  1  0.65757000  0.40730000  0.68228000  1.0
  C  C22  1  0.73622000  0.40705000  0.64227000  1.0
  C  C23  1  0.34242000  0.59269000  0.68228000  1.0
  C  C24  1  0.26378000  0.59295000  0.64227000  1.0
  C  C25  1  0.59270000  0.34242000  0.81773000  1.0
  C  C26  1  0.59295000  0.26378000  0.85774000  1.0
  C  C27  1  0.40730000  0.65757000  0.81773000  1.0
  C  C28  1  0.40705000  0.73622000  0.85774000  1.0
  C  C29  1  0.34242000  0.40730000  0.31773000  1.0
  C  C30  1  0.26378000  0.40705000  0.35774000  1.0
  C  C31  1  0.65757000  0.59269000  0.31773000  1.0
  C  C32  1  0.73622000  0.59295000  0.35774000  1.0
  C  C33  1  0.50000000  0.61642000  0.79705000  1.0
  C  C34  1  0.50000000  0.77551000  0.87839000  1.0
  C  C35  1  0.49999000  0.85769000  0.92249000  1.0
  C  C36  1  0.50000000  0.38358000  0.79705000  1.0
  C  C37  1  0.50000000  0.22449000  0.87839000  1.0
  C  C38  1  0.49999000  0.14230000  0.92249000  1.0
  C  C39  1  0.38358000  0.50000000  0.29705000  1.0
  C  C40  1  0.22449000  0.50000000  0.37839000  1.0
  C  C41  1  0.14230000  0.50000000  0.42249000  1.0
  C  C42  1  0.61642000  0.50000000  0.29705000  1.0
  C  C43  1  0.77551000  0.50000000  0.37839000  1.0
  C  C44  1  0.85769000  0.50000000  0.42249000  1.0
  C  C45  1  0.50000000  0.61642000  0.20295000  1.0
  C  C46  1  0.50000000  0.77551000  0.12162000  1.0
  C  C47  1  0.49999000  0.85769000  0.07751000  1.0
  C  C48  1  0.50000000  0.38358000  0.20295000  1.0
  C  C49  1  0.50000000  0.22449000  0.12162000  1.0
  C  C50  1  0.49999000  0.14230000  0.07751000  1.0
  C  C51  1  0.61642000  0.50000000  0.70296000  1.0
  C  C52  1  0.77551000  0.50000000  0.62162000  1.0
  C  C53  1  0.85769000  0.50000000  0.57751000  1.0
  C  C54  1  0.38358000  0.50000000  0.70296000  1.0
  C  C55  1  0.22449000  0.50000000  0.62162000  1.0
  C  C56  1  0.14230000  0.50000000  0.57751000  1.0
  O  O1  1  0.58742000  0.88969000  0.93986000  1.0
  O  O2  1  0.41259000  0.11031000  0.93986000  1.0
  O  O3  1  0.11031000  0.58742000  0.43986000  1.0
  O  O4  1  0.88969000  0.41258000  0.43986000  1.0
  O  O5  1  0.41259000  0.88968000  0.06014000  1.0
  O  O6  1  0.58742000  0.11031000  0.06014000  1.0
  O  O7  1  0.88969000  0.58742000  0.56014000  1.0
  O  O8  1  0.11031000  0.41258000  0.56014000  1.0
  O  O9  1  0.41259000  0.11031000  0.06014000  1.0
  O  O10  1  0.58742000  0.88969000  0.06014000  1.0
  O  O11  1  0.88969000  0.41258000  0.56014000  1.0
  O  O12  1  0.11031000  0.58742000  0.56014000  1.0
  O  O13  1  0.58742000  0.11031000  0.93986000  1.0
  O  O14  1  0.41259000  0.88968000  0.93986000  1.0
  O  O15  1  0.11031000  0.41258000  0.43986000  1.0
  O  O16  1  0.88969000  0.58742000  0.43986000  1.0
