# generated using pymatgen
data_H20C19N2
_symmetry_space_group_name_H-M   'P 1'
_cell_length_a   27.68542251
_cell_length_b   27.68542251
_cell_length_c   28.60812327
_cell_angle_alpha   118.93869015
_cell_angle_beta   118.93869015
_cell_angle_gamma   90.00000000
_symmetry_Int_Tables_number   1
_chemical_formula_structural   H20C19N2
_chemical_formula_sum   'H320 C304 N32'
_cell_volume   15989.63225588
_cell_formula_units_Z   16
loop_
 _symmetry_equiv_pos_site_id
 _symmetry_equiv_pos_as_xyz
  1  'x, y, z'
loop_
 _atom_site_type_symbol
 _atom_site_label
 _atom_site_symmetry_multiplicity
 _atom_site_fract_x
 _atom_site_fract_y
 _atom_site_fract_z
 _atom_site_occupancy
  C  1  1  0.61548275  0.82656575  0.71400200  1
  C  2  1  0.68328350  0.84941400  0.75814900  1
  C  3  1  0.59403775  0.85230325  0.67182700  1
  C  4  1  0.61472925  0.92021825  0.71394650  1
  C  7  1  0.68294800  0.94127400  0.75809450  1
  C  8  1  0.70607350  0.91721850  0.80225650  1
  C  13  1  0.68029475  0.93864475  0.84439200  1
  C  14  1  0.61238125  0.91789425  0.80223200  1
  C  17  1  0.59104925  0.94153425  0.75806900  1
  C  20  1  0.59138400  0.84967500  0.75812400  1
  C  23  1  0.59402150  0.75857400  0.67046600  1
  C  26  1  0.58794100  0.93996750  0.84578250  1
  C  29  1  0.59263850  0.94461800  0.67035750  1
  C  32  1  0.77406350  0.93873350  0.84582950  1
  C  137  1  0.40955800  0.21435000  0.30219150  1
  C  138  1  0.43328200  0.19158750  0.25810650  1
  C  139  1  0.43025575  0.18857025  0.34432400  1
  C  140  1  0.40884575  0.12065675  0.30222050  1
  C  143  1  0.43298333  0.09966667  0.25813800  1
  C  144  1  0.41197625  0.12377925  0.21402850  1
  C  149  1  0.34406300  0.10232500  0.17190100  1
  C  150  1  0.31826025  0.12300625  0.21401050  1
  C  153  1  0.34103625  0.09930725  0.25811850  1
  C  156  1  0.34134475  0.19122125  0.25808700  1
  C  159  1  0.43148875  0.28232875  0.34571300  1
  C  162  1  0.25028100  0.10103400  0.17046200  1
  C  165  1  0.43044175  0.09622875  0.34577300  1
  C  168  1  0.43642800  0.10219900  0.17049950  1
  C  273  1  0.85960575  0.92466725  0.91659750  1
  C  274  1  0.88768250  0.88672600  0.89302000  1
  C  275  1  0.94849675  0.90194075  0.92906800  1
  C  276  1  0.98164800  0.95443400  0.99006550  1
  C  277  1  0.95336250  0.99174600  0.01433600  1
  C  278  1  0.89268075  0.97711925  0.97758650  1
  C  281  1  0.04258425  0.97198525  0.02474550  1
  C  282  1  0.07069525  0.98831675  0.00219600  1
  C  283  1  0.13136625  0.01057125  0.03904550  1
  C  284  1  0.16461200  0.01609650  0.09845750  1
  C  285  1  0.13669925  0.99849125  0.12025650  1
  C  286  1  0.07589500  0.97740750  0.08411750  1
  C  297  1  0.57314900  0.02479650  0.91652700  1
  C  298  1  0.52146000  0.03911000  0.89296150  1
  C  299  1  0.49671775  0.05991175  0.92903400  1
  C  300  1  0.52463025  0.06845625  0.99005400  1
  C  301  1  0.57723500  0.05549600  0.01432800  1
  C  302  1  0.60113775  0.03339025  0.97754650  1
  C  305  1  0.49839600  0.08556250  0.02476000  1
  C  306  1  0.44776825  0.04665325  0.00223250  1
  C  307  1  0.42395850  0.06122850  0.03909050  1
  C  308  1  0.45010450  0.11512150  0.09849250  1
  C  309  1  0.49980075  0.15454225  0.12028450  1
  C  310  1  0.52444800  0.13950800  0.08413050  1
  C  321  1  0.60809125  0.67303975  0.59970250  1
  C  322  1  0.64595900  0.64490500  0.62326000  1
  C  323  1  0.63067300  0.58408700  0.58717600  1
  C  324  1  0.57819650  0.55099350  0.52615550  1
  C  325  1  0.54097525  0.57933775  0.50189000  1
  C  326  1  0.55566600  0.64002300  0.53868150  1
  C  329  1  0.56058000  0.49005250  0.49144300  1
  C  330  1  0.54419025  0.46195425  0.51396600  1
  C  331  1  0.52190450  0.40128650  0.47710900  1
  C  332  1  0.51640325  0.36802925  0.41771150  1
  C  333  1  0.53403425  0.39593125  0.39591900  1
  C  334  1  0.55515850  0.45673250  0.43207300  1
  C  345  1  0.50778250  0.95935350  0.59957550  1
  C  346  1  0.49342425  0.01101125  0.62314450  1
  C  347  1  0.47262075  0.03578025  0.58709950  1
  C  348  1  0.46411900  0.00792000  0.52610250  1
  C  349  1  0.47712175  0.95534375  0.50182300  1
  C  350  1  0.49923025  0.93141625  0.53857850  1
  C  353  1  0.44702525  0.03418975  0.49143500  1
  C  354  1  0.48595725  0.08481375  0.51398250  1
  C  355  1  0.47139725  0.10865125  0.47715250  1
  C  356  1  0.41750175  0.08253975  0.41776200  1
  C  357  1  0.37805850  0.03284800  0.39595000  1
  C  358  1  0.39307325  0.00817125  0.43207500  1
  C  657  1  0.37580175  0.58688475  0.23464000  1
  C  658  1  0.44360250  0.60973300  0.27878700  1
  C  659  1  0.35435675  0.61262225  0.19246500  1
  C  660  1  0.37504825  0.68053725  0.23458450  1
  C  663  1  0.44326700  0.70159300  0.27873250  1
  C  664  1  0.46639250  0.67753750  0.32289450  1
  C  669  1  0.44061375  0.69896375  0.36503000  1
  C  670  1  0.37270025  0.67821325  0.32287000  1
  C  673  1  0.35136825  0.70185325  0.27870700  1
  C  676  1  0.35170300  0.60999400  0.27876200  1
  C  679  1  0.35434050  0.51889300  0.19110400  1
  C  682  1  0.34826000  0.70028650  0.36642050  1
  C  685  1  0.35295750  0.70493700  0.19099550  1
  C  688  1  0.53438250  0.69905250  0.36646750  1
  C  793  1  0.16987695  0.97466895  0.82282940  1
  C  794  1  0.19360100  0.95190650  0.77874450  1
  C  795  1  0.19057470  0.94888920  0.86496190  1
  C  796  1  0.16916470  0.88097570  0.82285840  1
  C  799  1  0.19330233  0.85998567  0.77877600  1
  C  800  1  0.17229525  0.88409825  0.73466650  1
  C  805  1  0.10438200  0.86264400  0.69253900  1
  C  806  1  0.07857925  0.88332525  0.73464850  1
  C  809  1  0.10135525  0.85962625  0.77875650  1
  C  812  1  0.10166375  0.95154025  0.77872500  1
  C  815  1  0.19180770  0.04264770  0.86635090  1
  C  818  1  0.01060000  0.86135300  0.69110000  1
  C  821  1  0.19076070  0.85654770  0.86641090  1
  C  824  1  0.19674700  0.86251800  0.69113750  1
  C  929  1  0.61992475  0.68498625  0.43723550  1
  C  930  1  0.64800150  0.64704500  0.41365800  1
  C  931  1  0.70881575  0.66225975  0.44970600  1
  C  932  1  0.74196700  0.71475300  0.51070350  1
  C  933  1  0.71368150  0.75206500  0.53497400  1
  C  934  1  0.65299975  0.73743825  0.49822450  1
  C  937  1  0.80290325  0.73230425  0.54538350  1
  C  938  1  0.83101425  0.74863575  0.52283400  1
  C  939  1  0.89168525  0.77089025  0.55968350  1
  C  940  1  0.92493100  0.77641550  0.61909550  1
  C  941  1  0.89701825  0.75881025  0.64089450  1
  C  942  1  0.83621400  0.73772650  0.60475550  1
  C  953  1  0.33346800  0.78511550  0.43716500  1
  C  954  1  0.28177900  0.79942900  0.41359950  1
  C  955  1  0.25703675  0.82023075  0.44967200  1
  C  956  1  0.28494925  0.82877525  0.51069200  1
  C  957  1  0.33755400  0.81581500  0.53496600  1
  C  958  1  0.36145675  0.79370925  0.49818450  1
  C  961  1  0.25871500  0.84588150  0.54539800  1
  C  962  1  0.20808725  0.80697225  0.52287050  1
  C  963  1  0.18427750  0.82154750  0.55972850  1
  C  964  1  0.21042350  0.87544050  0.61913050  1
  C  965  1  0.26011975  0.91486125  0.64092250  1
  C  966  1  0.28476700  0.89982700  0.60476850  1
  C  977  1  0.36841025  0.43335875  0.12034050  1
  C  978  1  0.40627800  0.40522400  0.14389800  1
  C  979  1  0.39099200  0.34440600  0.10781400  1
  C  980  1  0.33851550  0.31131250  0.04679350  1
  C  981  1  0.30129425  0.33965675  0.02252800  1
  C  982  1  0.31598500  0.40034200  0.05931950  1
  C  985  1  0.32089900  0.25037150  0.01208100  1
  C  986  1  0.30450925  0.22227325  0.03460400  1
  C  987  1  0.28222344  0.16160543  0.99774687  1
  C  988  1  0.27672220  0.12834820  0.93834940  1
  C  989  1  0.29435320  0.15625020  0.91655690  1
  C  990  1  0.31547745  0.21705145  0.95271090  1
  C  1001  1  0.26810150  0.71967250  0.12021350  1
  C  1002  1  0.25374325  0.77133025  0.14378250  1
  C  1003  1  0.23293975  0.79609925  0.10773750  1
  C  1004  1  0.22443800  0.76823900  0.04674050  1
  C  1005  1  0.23744075  0.71566275  0.02246100  1
  C  1006  1  0.25954925  0.69173525  0.05921650  1
  C  1009  1  0.20734425  0.79450875  0.01207300  1
  C  1010  1  0.24627625  0.84513275  0.03462050  1
  C  1011  1  0.23171619  0.86897018  0.99779037  1
  C  1012  1  0.17782070  0.84285870  0.93839990  1
  C  1013  1  0.13837745  0.79316695  0.91658790  1
  C  1014  1  0.15339220  0.76849020  0.95271290  1
  C  1313  1  0.13612075  0.34720375  0.75527800  1
  C  1314  1  0.20392150  0.37005200  0.79942500  1
  C  1315  1  0.11467575  0.37294125  0.71310300  1
  C  1316  1  0.13536725  0.44085625  0.75522250  1
  C  1319  1  0.20358600  0.46191200  0.79937050  1
  C  1320  1  0.22671135  0.43785635  0.84353220  1
  C  1325  1  0.20093260  0.45928260  0.88566770  1
  C  1326  1  0.13301910  0.43853210  0.84350770  1
  C  1329  1  0.11168725  0.46217225  0.79934500  1
  C  1332  1  0.11202200  0.37031300  0.79940000  1
  C  1335  1  0.11465950  0.27921200  0.71174200  1
  C  1338  1  0.10857885  0.46060535  0.88705820  1
  C  1341  1  0.11327650  0.46525600  0.71163350  1
  C  1344  1  0.29470135  0.45937135  0.88710520  1
  C  1449  1  0.93019600  0.73498800  0.34346750  1
  C  1450  1  0.95392000  0.71222550  0.29938250  1
  C  1451  1  0.95089375  0.70920825  0.38560000  1
  C  1452  1  0.92948375  0.64129475  0.34349650  1
  C  1455  1  0.95362133  0.62030467  0.29941400  1
  C  1456  1  0.93261425  0.64441725  0.25530450  1
  C  1461  1  0.86470100  0.62296300  0.21317700  1
  C  1462  1  0.83889825  0.64364425  0.25528650  1
  C  1465  1  0.86167425  0.61994525  0.29939450  1
  C  1468  1  0.86198275  0.71185925  0.29936300  1
  C  1471  1  0.95212675  0.80296675  0.38698900  1
  C  1474  1  0.77091900  0.62167200  0.21173800  1
  C  1477  1  0.95107975  0.61686675  0.38704900  1
  C  1480  1  0.95706600  0.62283700  0.21177550  1
  C  1585  1  0.38024360  0.44530510  0.95787320  1
  C  1586  1  0.40832035  0.40736385  0.93429570  1
  C  1587  1  0.46913460  0.42257860  0.97034370  1
  C  1588  1  0.50228600  0.47507200  0.03134150  1
  C  1589  1  0.47400050  0.51238400  0.05561200  1
  C  1590  1  0.41331875  0.49775725  0.01886250  1
  C  1593  1  0.56322225  0.49262325  0.06602150  1
  C  1594  1  0.59133325  0.50895475  0.04347200  1
  C  1595  1  0.65200425  0.53120925  0.08032150  1
  C  1596  1  0.68525000  0.53673450  0.13973350  1
  C  1597  1  0.65733725  0.51912925  0.16153250  1
  C  1598  1  0.59653300  0.49804550  0.12539350  1
  C  1609  1  0.09378685  0.54543435  0.95780270  1
  C  1610  1  0.04209785  0.55974785  0.93423720  1
  C  1611  1  0.01735560  0.58054960  0.97030970  1
  C  1612  1  0.04526825  0.58909425  0.03133000  1
  C  1613  1  0.09787300  0.57613400  0.05560400  1
  C  1614  1  0.12177575  0.55402825  0.01882250  1
  C  1617  1  0.01903400  0.60620050  0.06603600  1
  C  1618  1  0.96840625  0.56729125  0.04350850  1
  C  1619  1  0.94459650  0.58186650  0.08036650  1
  C  1620  1  0.97074250  0.63575950  0.13976850  1
  C  1621  1  0.02043875  0.67518025  0.16156050  1
  C  1622  1  0.04508600  0.66014600  0.12540650  1
  C  1633  1  0.12872925  0.19367775  0.64097850  1
  C  1634  1  0.16659700  0.16554300  0.66453600  1
  C  1635  1  0.15131100  0.10472500  0.62845200  1
  C  1636  1  0.09883450  0.07163150  0.56743150  1
  C  1637  1  0.06161325  0.09997575  0.54316600  1
  C  1638  1  0.07630400  0.16066100  0.57995750  1
  C  1641  1  0.08121800  0.01069050  0.53271900  1
  C  1642  1  0.06482825  0.98259225  0.55524200  1
  C  1643  1  0.04254250  0.92192450  0.51838500  1
  C  1644  1  0.03704125  0.88866725  0.45898750  1
  C  1645  1  0.05467225  0.91656925  0.43719500  1
  C  1646  1  0.07579650  0.97737050  0.47334900  1
  C  1657  1  0.02842050  0.47999150  0.64085150  1
  C  1658  1  0.01406225  0.53164925  0.66442050  1
  C  1659  1  0.99325875  0.55641825  0.62837550  1
  C  1660  1  0.98475700  0.52855800  0.56737850  1
  C  1661  1  0.99775975  0.47598175  0.54309900  1
  C  1662  1  0.01986825  0.45205425  0.57985450  1
  C  1665  1  0.96766325  0.55482775  0.53271100  1
  C  1666  1  0.00659525  0.60545175  0.55525850  1
  C  1667  1  0.99203525  0.62928925  0.51842850  1
  C  1668  1  0.93813975  0.60317775  0.45903800  1
  C  1669  1  0.89869650  0.55348600  0.43722600  1
  C  1670  1  0.91371125  0.52880925  0.47335100  1
  C  1969  1  0.89643975  0.10752275  0.27591600  1
  C  1970  1  0.96424050  0.13037100  0.32006300  1
  C  1971  1  0.87499475  0.13326025  0.23374100  1
  C  1972  1  0.89568625  0.20117525  0.27586050  1
  C  1975  1  0.96390500  0.22223100  0.32000850  1
  C  1976  1  0.98703050  0.19817550  0.36417050  1
  C  1981  1  0.96125175  0.21960175  0.40630600  1
  C  1982  1  0.89333825  0.19885125  0.36414600  1
  C  1985  1  0.87200625  0.22249125  0.31998300  1
  C  1988  1  0.87234100  0.13063200  0.32003800  1
  C  1991  1  0.87497850  0.03953100  0.23238000  1
  C  1994  1  0.86889800  0.22092450  0.40769650  1
  C  1997  1  0.87359550  0.22557500  0.23227150  1
  C  2000  1  0.05502050  0.21969050  0.40774350  1
  C  2105  1  0.69051480  0.49530680  0.86410510  1
  C  2106  1  0.71423880  0.47254430  0.82002010  1
  C  2107  1  0.71121255  0.46952705  0.90623760  1
  C  2108  1  0.68980255  0.40161355  0.86413410  1
  C  2111  1  0.71394013  0.38062347  0.82005160  1
  C  2112  1  0.69293325  0.40473625  0.77594250  1
  C  2117  1  0.62502000  0.38328200  0.73381500  1
  C  2118  1  0.59921725  0.40396325  0.77592450  1
  C  2121  1  0.62199305  0.38026405  0.82003210  1
  C  2124  1  0.62230155  0.47217805  0.82000060  1
  C  2127  1  0.71244555  0.56328555  0.90762660  1
  C  2130  1  0.53123800  0.38199100  0.73237600  1
  C  2133  1  0.71139855  0.37718555  0.90768660  1
  C  2136  1  0.71738500  0.38315600  0.73241350  1
  C  2241  1  0.14056275  0.20562425  0.47851150  1
  C  2242  1  0.16863950  0.16768300  0.45493400  1
  C  2243  1  0.22945375  0.18289775  0.49098200  1
  C  2244  1  0.26260500  0.23539100  0.55197950  1
  C  2245  1  0.23431950  0.27270300  0.57625000  1
  C  2246  1  0.17363775  0.25807625  0.53950050  1
  C  2249  1  0.32354125  0.25294225  0.58665950  1
  C  2250  1  0.35165225  0.26927375  0.56411000  1
  C  2251  1  0.41232325  0.29152825  0.60095950  1
  C  2252  1  0.44556900  0.29705350  0.66037150  1
  C  2253  1  0.41765625  0.27944825  0.68217050  1
  C  2254  1  0.35685200  0.25836450  0.64603150  1
  C  2265  1  0.85410600  0.30575350  0.47844100  1
  C  2266  1  0.80241700  0.32006700  0.45487550  1
  C  2267  1  0.77767475  0.34086875  0.49094800  1
  C  2268  1  0.80558725  0.34941325  0.55196800  1
  C  2269  1  0.85819200  0.33645300  0.57624200  1
  C  2270  1  0.88209475  0.31434725  0.53946050  1
  C  2273  1  0.77935300  0.36651950  0.58667400  1
  C  2274  1  0.72872525  0.32761025  0.56414650  1
  C  2275  1  0.70491550  0.34218550  0.60100450  1
  C  2276  1  0.73106150  0.39607850  0.66040650  1
  C  2277  1  0.78075775  0.43549925  0.68219850  1
  C  2278  1  0.80540500  0.42046500  0.64604450  1
  C  2289  1  0.88904825  0.95399675  0.16161650  1
  C  2290  1  0.92691600  0.92586200  0.18517400  1
  C  2291  1  0.91163000  0.86504400  0.14909000  1
  C  2292  1  0.85915350  0.83195050  0.08806950  1
  C  2293  1  0.82193225  0.86029475  0.06380400  1
  C  2294  1  0.83662300  0.92098000  0.10059550  1
  C  2297  1  0.84153700  0.77100950  0.05335700  1
  C  2298  1  0.82514725  0.74291125  0.07588000  1
  C  2299  1  0.80286150  0.68224350  0.03902300  1
  C  2300  1  0.79736005  0.64898605  0.97962510  1
  C  2301  1  0.81499105  0.67688805  0.95783260  1
  C  2302  1  0.83611531  0.73768931  0.99398662  1
  C  2313  1  0.78873950  0.24031050  0.16148950  1
  C  2314  1  0.77438125  0.29196825  0.18505850  1
  C  2315  1  0.75357775  0.31673725  0.14901350  1
  C  2316  1  0.74507600  0.28887700  0.08801650  1
  C  2317  1  0.75807875  0.23630075  0.06373700  1
  C  2318  1  0.78018725  0.21237325  0.10049250  1
  C  2321  1  0.72798225  0.31514675  0.05334900  1
  C  2322  1  0.76691425  0.36577075  0.07589650  1
  C  2323  1  0.75235425  0.38960825  0.03906650  1
  C  2324  1  0.69845855  0.36349655  0.97967560  1
  C  2325  1  0.65901530  0.31380480  0.95786360  1
  C  2326  1  0.67403006  0.28912806  0.99398862  1
  H  5  1  0.54677925  0.83557825  0.64065300  1
  H  6  1  0.61013575  0.83783975  0.64066350  1
  H  9  1  0.70041550  0.92719550  0.72812600  1
  H  10  1  0.69882600  0.98871050  0.78805050  1
  H  11  1  0.70181500  0.83470450  0.72925000  1
  H  12  1  0.69800575  0.83091125  0.78707700  1
  H  15  1  0.69698150  0.98590600  0.87554200  1
  H  16  1  0.69476675  0.92257125  0.87557850  1
  H  18  1  0.60522525  0.98896425  0.78695800  1
  H  19  1  0.54361775  0.92731525  0.72915150  1
  H  21  1  0.60547325  0.83223425  0.78811850  1
  H  22  1  0.54394875  0.83375625  0.72814000  1
  H  24  1  0.54718600  0.74337900  0.63529000  1
  H  25  1  0.60184350  0.74204550  0.70055750  1
  H  27  1  0.60793700  0.92831400  0.88096200  1
  H  28  1  0.54132175  0.91769275  0.81570050  1
  H  30  1  0.60432700  0.92463500  0.63520600  1
  H  31  1  0.61487075  0.99124425  0.70042100  1
  H  33  1  0.79061275  0.93090175  0.81575500  1
  H  34  1  0.78922700  0.98557550  0.88097500  1
  H  141  1  0.41414275  0.20535125  0.37546350  1
  H  142  1  0.47750550  0.20294750  0.37548100  1
  H  145  1  0.48041050  0.11376650  0.28811700  1
  H  146  1  0.41891400  0.05223800  0.22817400  1
  H  147  1  0.48071575  0.20640775  0.28711700  1
  H  148  1  0.41907525  0.21000925  0.22909450  1
  H  151  1  0.32971725  0.05507375  0.14076350  1
  H  152  1  0.32726950  0.11841550  0.14074100  1
  H  154  1  0.32624725  0.05187325  0.22912600  1
  H  155  1  0.32259950  0.11350100  0.28711400  1
  H  157  1  0.32543850  0.20867150  0.22810100  1
  H  158  1  0.32387500  0.20711550  0.28805600  1
  H  160  1  0.41882425  0.29739225  0.38004900  1
  H  161  1  0.40992575  0.29882975  0.31542750  1
  H  163  1  0.23521325  0.11368575  0.13611550  1
  H  164  1  0.23376000  0.12258500  0.20072950  1
  H  166  1  0.47744025  0.11551025  0.38010950  1
  H  167  1  0.42172600  0.04944300  0.31550700  1
  H  169  1  0.48321650  0.11093050  0.20078100  1
  H  170  1  0.41716350  0.05519950  0.13616650  1
  H  279  1  0.97665975  0.03046425  0.05793250  1
  H  280  1  0.87266175  0.00473275  0.99531950  1
  H  287  1  0.04728200  0.98563400  0.95980900  1
  H  288  1  0.15125300  0.02271150  0.02251300  1
  H  289  1  0.16044075  0.00224675  0.16318650  1
  H  290  1  0.86405950  0.84862700  0.84889000  1
  H  291  1  0.05622125  0.96608025  0.10135400  1
  H  292  1  0.96829675  0.87457275  0.91055150  1
  H  294  1  0.23993550  0.01423050  0.10748050  1
  H  296  1  0.78392825  0.91245175  0.90686150  1
  H  303  1  0.59758475  0.06040725  0.05794300  1
  H  304  1  0.63891775  0.02355175  0.99527250  1
  H  311  1  0.42880225  0.00694775  0.95984800  1
  H  312  1  0.38755000  0.03254100  0.02256150  1
  H  313  1  0.51896225  0.19372975  0.16319650  1
  H  314  1  0.50088950  0.03302000  0.84880000  1
  H  315  1  0.56133475  0.16809525  0.10135150  1
  H  316  1  0.45836575  0.06870825  0.91051650  1
  H  318  1  0.38378800  0.12599150  0.10748750  1
  H  320  1  0.63903300  0.02730050  0.90670450  1
  H  327  1  0.50227150  0.55608300  0.45827650  1
  H  328  1  0.52811150  0.66008850  0.52096400  1
  H  335  1  0.54686850  0.48537400  0.55635000  1
  H  336  1  0.50974500  0.38140950  0.49363950  1
  H  337  1  0.53031775  0.37218025  0.35301250  1
  H  338  1  0.68402750  0.66848550  0.66742150  1
  H  339  1  0.56653350  0.47639800  0.41485600  1
  H  340  1  0.65797575  0.56424275  0.60568600  1
  H  342  1  0.51829925  0.29272675  0.40873000  1
  H  344  1  0.62043400  0.74875550  0.60954700  1
  H  351  1  0.47224475  0.93503675  0.45822800  1
  H  352  1  0.50910400  0.89365950  0.52085300  1
  H  359  1  0.52566625  0.10375025  0.55635750  1
  H  360  1  0.50010325  0.14505325  0.49369450  1
  H  361  1  0.33886850  0.01370800  0.35304350  1
  H  362  1  0.49948850  0.03154550  0.66729200  1
  H  363  1  0.36447375  0.97128625  0.41484000  1
  H  364  1  0.46379650  0.07411350  0.60562050  1
  H  366  1  0.40667225  0.14887825  0.40880350  1
  H  368  1  0.50533250  0.89343200  0.60935300  1
  H  661  1  0.30709825  0.59589725  0.16129100  1
  H  662  1  0.37045475  0.59815875  0.16130150  1
  H  665  1  0.46073450  0.68751450  0.24876400  1
  H  666  1  0.45914500  0.74902950  0.30868850  1
  H  667  1  0.46213400  0.59502350  0.24988800  1
  H  668  1  0.45832475  0.59123025  0.30771500  1
  H  671  1  0.45730050  0.74622500  0.39618000  1
  H  672  1  0.45508575  0.68289025  0.39621650  1
  H  674  1  0.36554425  0.74928325  0.30759600  1
  H  675  1  0.30393675  0.68763425  0.24978950  1
  H  677  1  0.36579225  0.59255325  0.30875650  1
  H  678  1  0.30426775  0.59407525  0.24877800  1
  H  680  1  0.30750500  0.50369800  0.15592800  1
  H  681  1  0.36216250  0.50236450  0.22119550  1
  H  683  1  0.36825600  0.68863300  0.40160000  1
  H  684  1  0.30164075  0.67801175  0.33633850  1
  H  686  1  0.36464600  0.68495400  0.15584400  1
  H  687  1  0.37518975  0.75156325  0.22105900  1
  H  689  1  0.55093175  0.69122075  0.33639300  1
  H  690  1  0.54954600  0.74589450  0.40161300  1
  H  797  1  0.17446170  0.96567020  0.89610140  1
  H  798  1  0.23782445  0.96326645  0.89611890  1
  H  801  1  0.24072945  0.87408545  0.80875490  1
  H  802  1  0.17923300  0.81255700  0.74881200  1
  H  803  1  0.24103470  0.96672670  0.80775490  1
  H  804  1  0.17939425  0.97032825  0.74973250  1
  H  807  1  0.09003625  0.81539275  0.66140150  1
  H  808  1  0.08758850  0.87873450  0.66137900  1
  H  810  1  0.08656625  0.81219225  0.74976400  1
  H  811  1  0.08291845  0.87381995  0.80775190  1
  H  813  1  0.08575750  0.96899050  0.74873900  1
  H  814  1  0.08419395  0.96743445  0.80869390  1
  H  816  1  0.17914320  0.05771120  0.90068690  1
  H  817  1  0.17024470  0.05914870  0.83606540  1
  H  819  1  0.99553225  0.87400475  0.65675350  1
  H  820  1  0.99407900  0.88290400  0.72136750  1
  H  822  1  0.23775920  0.87582920  0.90074740  1
  H  823  1  0.18204495  0.80976195  0.83614490  1
  H  825  1  0.24353550  0.87124950  0.72141900  1
  H  826  1  0.17748250  0.81551850  0.65680450  1
  H  935  1  0.73697875  0.79078325  0.57857050  1
  H  936  1  0.63298075  0.76505175  0.51595750  1
  H  943  1  0.80760100  0.74595300  0.48044700  1
  H  944  1  0.91157200  0.78303050  0.54315100  1
  H  945  1  0.92075975  0.76256575  0.68382450  1
  H  946  1  0.62437850  0.60894600  0.36952800  1
  H  947  1  0.81654025  0.72639925  0.62199200  1
  H  948  1  0.72861575  0.63489175  0.43118950  1
  H  950  1  0.00025450  0.77454950  0.62811850  1
  H  952  1  0.54424725  0.67277075  0.42749950  1
  H  959  1  0.35790375  0.82072625  0.57858100  1
  H  960  1  0.39923675  0.78387075  0.51591050  1
  H  967  1  0.18912125  0.76726675  0.48048600  1
  H  968  1  0.14786900  0.79286000  0.54319950  1
  H  969  1  0.27928125  0.95404875  0.68383450  1
  H  970  1  0.26120850  0.79333900  0.36943800  1
  H  971  1  0.32165375  0.92841425  0.62198950  1
  H  972  1  0.21868475  0.82902725  0.43115450  1
  H  974  1  0.14410700  0.88631050  0.62812550  1
  H  976  1  0.39935200  0.78761950  0.42734250  1
  H  983  1  0.26259045  0.31640195  0.97891440  1
  H  984  1  0.28843050  0.42040750  0.04160200  1
  H  991  1  0.30718750  0.24569300  0.07698800  1
  H  992  1  0.27006400  0.14172850  0.01427750  1
  H  993  1  0.29063670  0.13249920  0.87365040  1
  H  994  1  0.44434650  0.42880450  0.18805950  1
  H  995  1  0.32685245  0.23671695  0.93549390  1
  H  996  1  0.41829475  0.32456175  0.12632400  1
  H  998  1  0.27861820  0.05304570  0.92936790  1
  H  1000  1  0.38075300  0.50907450  0.13018500  1
  H  1007  1  0.23256370  0.69535570  0.97886590  1
  H  1008  1  0.26942300  0.65397850  0.04149100  1
  H  1015  1  0.28598525  0.86406925  0.07699550  1
  H  1016  1  0.26042225  0.90537225  0.01433250  1
  H  1017  1  0.09918745  0.77402695  0.87368140  1
  H  1018  1  0.25980750  0.79186450  0.18793000  1
  H  1019  1  0.12479270  0.73160520  0.93547790  1
  H  1020  1  0.22411550  0.83443250  0.12625850  1
  H  1022  1  0.16699120  0.90919720  0.92944140  1
  H  1024  1  0.26565150  0.65375100  0.12999100  1
  H  1317  1  0.06741725  0.35621625  0.68192900  1
  H  1318  1  0.13077375  0.35847775  0.68193950  1
  H  1321  1  0.22105350  0.44783350  0.76940200  1
  H  1322  1  0.21946385  0.50934835  0.82932620  1
  H  1323  1  0.22245300  0.35534250  0.77052600  1
  H  1324  1  0.21864360  0.35154910  0.82835270  1
  H  1327  1  0.21761935  0.50654385  0.91681770  1
  H  1328  1  0.21540460  0.44320910  0.91685420  1
  H  1330  1  0.12586310  0.50960210  0.82823370  1
  H  1331  1  0.06425575  0.44795325  0.77042750  1
  H  1333  1  0.12611110  0.35287210  0.82939420  1
  H  1334  1  0.06458675  0.35439425  0.76941600  1
  H  1336  1  0.06782400  0.26401700  0.67656600  1
  H  1337  1  0.12248150  0.26268350  0.74183350  1
  H  1339  1  0.12857485  0.44895185  0.92223770  1
  H  1340  1  0.06195960  0.43833060  0.85697620  1
  H  1342  1  0.12496500  0.44527300  0.67648200  1
  H  1343  1  0.13550875  0.51188225  0.74169700  1
  H  1345  1  0.31125060  0.45153960  0.85703070  1
  H  1346  1  0.30986485  0.50621335  0.92225070  1
  H  1453  1  0.93478075  0.72598925  0.41673950  1
  H  1454  1  0.99814350  0.72358550  0.41675700  1
  H  1457  1  0.00104850  0.63440450  0.32939300  1
  H  1458  1  0.93955200  0.57287600  0.26945000  1
  H  1459  1  0.00135375  0.72704575  0.32839300  1
  H  1460  1  0.93971325  0.73064725  0.27037050  1
  H  1463  1  0.85035525  0.57571175  0.18203950  1
  H  1464  1  0.84790750  0.63905350  0.18201700  1
  H  1466  1  0.84688525  0.57251125  0.27040200  1
  H  1467  1  0.84323750  0.63413900  0.32839000  1
  H  1469  1  0.84607650  0.72930950  0.26937700  1
  H  1470  1  0.84451300  0.72775350  0.32933200  1
  H  1472  1  0.93946225  0.81803025  0.42132500  1
  H  1473  1  0.93056375  0.81946775  0.35670350  1
  H  1475  1  0.75585125  0.63432375  0.17739150  1
  H  1476  1  0.75439800  0.64322300  0.24200550  1
  H  1478  1  0.99807825  0.63614825  0.42138550  1
  H  1479  1  0.94236400  0.57008100  0.35678300  1
  H  1481  1  0.00385450  0.63156850  0.24205700  1
  H  1482  1  0.93780150  0.57583750  0.17744250  1
  H  1591  1  0.49729775  0.55110225  0.09920850  1
  H  1592  1  0.39329975  0.52537075  0.03659550  1
  H  1599  1  0.56792000  0.50627200  0.00108500  1
  H  1600  1  0.67189100  0.54334950  0.06378900  1
  H  1601  1  0.68107875  0.52288475  0.20446250  1
  H  1602  1  0.38469735  0.36926485  0.89016570  1
  H  1603  1  0.57685925  0.48671825  0.14263000  1
  H  1604  1  0.48893460  0.39521060  0.95182720  1
  H  1606  1  0.76057350  0.53486850  0.14875650  1
  H  1608  1  0.30456610  0.43308960  0.94813720  1
  H  1615  1  0.11822275  0.58104525  0.09921900  1
  H  1616  1  0.15955575  0.54418975  0.03654850  1
  H  1623  1  0.94944025  0.52758575  0.00112400  1
  H  1624  1  0.90818800  0.55317900  0.06383750  1
  H  1625  1  0.03960025  0.71436775  0.20447250  1
  H  1626  1  0.02152735  0.55365785  0.89007570  1
  H  1627  1  0.08197275  0.68873325  0.14262750  1
  H  1628  1  0.97900360  0.58934610  0.95179220  1
  H  1630  1  0.90442600  0.64662950  0.14876350  1
  H  1632  1  0.15967085  0.54793835  0.94798020  1
  H  1639  1  0.02290950  0.07672100  0.49955250  1
  H  1640  1  0.04874950  0.18072650  0.56224000  1
  H  1647  1  0.06750650  0.00601200  0.59762600  1
  H  1648  1  0.03038300  0.90204750  0.53491550  1
  H  1649  1  0.05095575  0.89281825  0.39428850  1
  H  1650  1  0.20466550  0.18912350  0.70869750  1
  H  1651  1  0.08717150  0.99703600  0.45613200  1
  H  1652  1  0.17861375  0.08488075  0.64696200  1
  H  1654  1  0.03893725  0.81336475  0.45000600  1
  H  1656  1  0.14107200  0.26939350  0.65082300  1
  H  1663  1  0.99288275  0.45567475  0.49950400  1
  H  1664  1  0.02974200  0.41429750  0.56212900  1
  H  1671  1  0.04630425  0.62438825  0.59763350  1
  H  1672  1  0.02074125  0.66569125  0.53497050  1
  H  1673  1  0.85950650  0.53434600  0.39431950  1
  H  1674  1  0.02012650  0.55218350  0.70856800  1
  H  1675  1  0.88511175  0.49192425  0.45611600  1
  H  1676  1  0.98443450  0.59475150  0.64689650  1
  H  1678  1  0.92731025  0.66951625  0.45007950  1
  H  1680  1  0.02597050  0.41407000  0.65062900  1
  H  1973  1  0.82773625  0.11653525  0.20256700  1
  H  1974  1  0.89109275  0.11879675  0.20257750  1
  H  1977  1  0.98137250  0.20815250  0.29004000  1
  H  1978  1  0.97978300  0.26966750  0.34996450  1
  H  1979  1  0.98277200  0.11566150  0.29116400  1
  H  1980  1  0.97896275  0.11186825  0.34899100  1
  H  1983  1  0.97793850  0.26686300  0.43745600  1
  H  1984  1  0.97572375  0.20352825  0.43749250  1
  H  1986  1  0.88618225  0.26992125  0.34887200  1
  H  1987  1  0.82457475  0.20827225  0.29106550  1
  H  1989  1  0.88643025  0.11319125  0.35003250  1
  H  1990  1  0.82490575  0.11471325  0.29005400  1
  H  1992  1  0.82814300  0.02433600  0.19720400  1
  H  1993  1  0.88280050  0.02300250  0.26247150  1
  H  1995  1  0.88889400  0.20927100  0.44287600  1
  H  1996  1  0.82227875  0.19864975  0.37761450  1
  H  1998  1  0.88528400  0.20559200  0.19712000  1
  H  1999  1  0.89582775  0.27220125  0.26233500  1
  H  2001  1  0.07156975  0.21185875  0.37766900  1
  H  2002  1  0.07018400  0.26653250  0.44288900  1
  H  2109  1  0.69509955  0.48630805  0.93737710  1
  H  2110  1  0.75846230  0.48390430  0.93739460  1
  H  2113  1  0.76136730  0.39472330  0.85003060  1
  H  2114  1  0.69987100  0.33319500  0.79008800  1
  H  2115  1  0.76167255  0.48736455  0.84903060  1
  H  2116  1  0.70003225  0.49096625  0.79100850  1
  H  2119  1  0.61067425  0.33603075  0.70267750  1
  H  2120  1  0.60822650  0.39937250  0.70265500  1
  H  2122  1  0.60720425  0.33283025  0.79104000  1
  H  2123  1  0.60355630  0.39445780  0.84902760  1
  H  2125  1  0.60639550  0.48962850  0.79001500  1
  H  2126  1  0.60483180  0.48807230  0.84996960  1
  H  2128  1  0.69978105  0.57834905  0.94196260  1
  H  2129  1  0.69088255  0.57978655  0.87734110  1
  H  2131  1  0.51617025  0.39464275  0.69802950  1
  H  2132  1  0.51471700  0.40354200  0.76264350  1
  H  2134  1  0.75839705  0.39646705  0.94202310  1
  H  2135  1  0.70268280  0.33039980  0.87742060  1
  H  2137  1  0.76417350  0.39188750  0.76269500  1
  H  2138  1  0.69812050  0.33615650  0.69808050  1
  H  2247  1  0.25761675  0.31142125  0.61984650  1
  H  2248  1  0.15361875  0.28568975  0.55723350  1
  H  2255  1  0.32823900  0.26659100  0.52172300  1
  H  2256  1  0.43221000  0.30366850  0.58442700  1
  H  2257  1  0.44139775  0.28320375  0.72510050  1
  H  2258  1  0.14501650  0.12958400  0.41080400  1
  H  2259  1  0.33717825  0.24703725  0.66326800  1
  H  2260  1  0.24925375  0.15552975  0.47246550  1
  H  2262  1  0.52089250  0.29518750  0.66939450  1
  H  2264  1  0.06488525  0.19340875  0.46877550  1
  H  2271  1  0.87854175  0.34136425  0.61985700  1
  H  2272  1  0.91987475  0.30450875  0.55718650  1
  H  2279  1  0.70975925  0.28790475  0.52176200  1
  H  2280  1  0.66850700  0.31349800  0.58447550  1
  H  2281  1  0.79991925  0.47468675  0.72511050  1
  H  2282  1  0.78184650  0.31397700  0.41071400  1
  H  2283  1  0.84229175  0.44905225  0.66326550  1
  H  2284  1  0.73932275  0.34966525  0.47243050  1
  H  2286  1  0.66474500  0.40694850  0.66940150  1
  H  2288  1  0.91999000  0.30825750  0.46861850  1
  H  2295  1  0.78322850  0.83704000  0.02019050  1
  H  2296  1  0.80906850  0.94104550  0.08287800  1
  H  2303  1  0.82782550  0.76633100  0.11826400  1
  H  2304  1  0.79070200  0.66236650  0.05555350  1
  H  2305  1  0.81127455  0.65313705  0.91492610  1
  H  2306  1  0.96498450  0.94944250  0.22933550  1
  H  2307  1  0.84749030  0.75735480  0.97676960  1
  H  2308  1  0.93893275  0.84519975  0.16760000  1
  H  2310  1  0.79925605  0.57368355  0.97064360  1
  H  2312  1  0.90139100  0.02971250  0.17146100  1
  H  2319  1  0.75320175  0.21599375  0.02014200  1
  H  2320  1  0.79006100  0.17461650  0.08276700  1
  H  2327  1  0.80662325  0.38470725  0.11827150  1
  H  2328  1  0.78106025  0.42601025  0.05560850  1
  H  2329  1  0.61982530  0.29466480  0.91495710  1
  H  2330  1  0.78044550  0.31250250  0.22920600  1
  H  2331  1  0.64543055  0.25224305  0.97675360  1
  H  2332  1  0.74475350  0.35507050  0.16753450  1
  H  2334  1  0.68762905  0.42983505  0.97071710  1
  H  2336  1  0.78628950  0.17438900  0.17126700  1
  N  293  1  0.22547400  0.03728500  0.13607200  1
  N  295  1  0.79875825  0.90829925  0.87892900  1
  N  317  1  0.42684225  0.13154125  0.13609350  1
  N  319  1  0.59628625  0.00348975  0.87881600  1
  N  341  1  0.49523300  0.30716650  0.38011800  1
  N  343  1  0.62450750  0.73388950  0.63742800  1
  N  365  1  0.40110075  0.10582175  0.38018200  1
  N  367  1  0.52910175  0.93619825  0.63726700  1
  N  949  1  0.98579300  0.79760400  0.65671000  1
  N  951  1  0.55907725  0.66861825  0.39956700  1
  N  973  1  0.18716125  0.89186025  0.65673150  1
  N  975  1  0.35660525  0.76380875  0.39945400  1
  N  997  1  0.25555195  0.06748545  0.90075590  1
  N  999  1  0.38482650  0.49420850  0.15806600  1
  N  1021  1  0.16141970  0.86614070  0.90081990  1
  N  1023  1  0.28942075  0.69651725  0.15790500  1
  N  1605  1  0.74611200  0.55792300  0.17734800  1
  N  1607  1  0.31939610  0.42893710  0.92020470  1
  N  1629  1  0.94748025  0.65217925  0.17736950  1
  N  1631  1  0.11692410  0.52412760  0.92009170  1
  N  1653  1  0.01587100  0.82780450  0.42139400  1
  N  1655  1  0.14514550  0.25452750  0.67870400  1
  N  1677  1  0.92173875  0.62645975  0.42145800  1
  N  1679  1  0.04973975  0.45683625  0.67854300  1
  N  2261  1  0.50643100  0.31824200  0.69798600  1
  N  2263  1  0.07971525  0.18925625  0.44084300  1
  N  2285  1  0.70779925  0.41249825  0.69800750  1
  N  2287  1  0.87724325  0.28444675  0.44073000  1
  N  2309  1  0.77618980  0.58812330  0.94203160  1
  N  2311  1  0.90546450  0.01484650  0.19934200  1
  N  2333  1  0.68205755  0.38677855  0.94209560  1
  N  2335  1  0.81005875  0.21715525  0.19918100  1
