# generated using pymatgen
data_EuH15(C11O2)3
_symmetry_space_group_name_H-M   'P 1'
_cell_length_a   12.55402000
_cell_length_b   21.43743001
_cell_length_c   21.53217000
_cell_angle_alpha   116.60116174
_cell_angle_beta   101.89397000
_cell_angle_gamma   99.88016457
_symmetry_Int_Tables_number   1
_chemical_formula_structural   EuH15(C11O2)3
_chemical_formula_sum   'Eu3 H45 C99 O18'
_cell_volume   4834.12834668
_cell_formula_units_Z   3
loop_
 _symmetry_equiv_pos_site_id
 _symmetry_equiv_pos_as_xyz
  1  'x, y, z'
loop_
 _atom_site_type_symbol
 _atom_site_label
 _atom_site_symmetry_multiplicity
 _atom_site_fract_x
 _atom_site_fract_y
 _atom_site_fract_z
 _atom_site_occupancy
  Eu  Eu0  1  0.00029000  0.67744000  0.32105000  1
  Eu  Eu1  1  0.67967000  0.67966000  0.35931000  1
  Eu  Eu2  1  0.32077000  0.64361000  0.32105000  1
  H  H3  1  0.14536000  0.47085000  0.07725000  1
  H  H4  1  0.07753000  0.40192000  0.93992000  1
  H  H5  1  0.89054000  0.45228000  0.70059000  1
  H  H6  1  0.81560000  0.54900000  0.55544000  1
  H  H7  1  0.82105000  0.61795000  0.48754000  1
  H  H8  1  0.88119000  0.44211000  0.31402000  1
  H  H9  1  0.85950000  0.36685000  0.37486000  1
  H  H10  1  0.06371000  0.92072000  0.39326000  1
  H  H11  1  0.13248000  0.05742000  0.46187000  1
  H  H12  1  0.18962000  0.29954000  0.75235000  1
  H  H13  1  0.26180000  0.44557000  0.99280000  1
  H  H14  1  0.33423000  0.51405000  0.13050000  1
  H  H15  1  0.56526000  0.68510000  0.13021000  1
  H  H16  1  0.48301000  0.62382000  0.99305000  1
  H  H17  1  0.67205000  0.60515000  0.52903000  1
  H  H18  1  0.67430000  0.53686000  0.59764000  1
  H  H19  1  0.43777000  0.24834000  0.54702000  1
  H  H20  1  0.26714000  0.00703000  0.45067000  1
  H  H21  1  0.20304000  0.87001000  0.38221000  1
  H  H22  1  0.43682000  0.86946000  0.55696000  1
  H  H23  1  0.49128000  0.00618000  0.63165000  1
  H  H24  1  0.32956000  0.47254000  0.39326000  1
  H  H25  1  0.32941000  0.40445000  0.46187000  1
  H  H26  1  0.56276000  0.45282000  0.75235000  1
  H  H27  1  0.73101000  0.54723000  0.99280000  1
  H  H28  1  0.79629000  0.61645000  0.13049000  1
  H  H29  1  0.56497000  0.44512000  0.13021000  1
  H  H30  1  0.51005000  0.36923000  0.99304000  1
  H  H31  1  0.85700000  0.92389000  0.52904000  1
  H  H32  1  0.92335000  0.06078000  0.59764000  1
  H  H33  1  0.10927000  0.29869000  0.54703000  1
  H  H34  1  0.18355000  0.44365000  0.45068000  1
  H  H35  1  0.17918000  0.51220000  0.38221000  1
  H  H36  1  0.12015000  0.68750000  0.55695000  1
  H  H37  1  0.14038000  0.62547000  0.63164000  1
  H  H38  1  0.93190000  0.60640000  0.07724000  1
  H  H39  1  0.86240000  0.53800000  0.93991000  1
  H  H40  1  0.81006000  0.24831000  0.70059000  1
  H  H41  1  0.73985000  0.00644000  0.55543000  1
  H  H42  1  0.66651000  0.86960000  0.48755000  1
  H  H43  1  0.43284000  0.87191000  0.31401000  1
  H  H44  1  0.51537000  0.00801000  0.37485000  1
  H  H45  1  0.74758000  0.24757000  0.49514000  1
  H  H46  1  0.25237000  0.50392000  0.75200000  1
  H  H47  1  0.49965000  0.24808000  0.75200000  1
  C  C48  1  0.08308000  0.48469000  0.04644000  1
  C  C49  1  0.04498000  0.44624000  0.97018000  1
  C  C50  1  0.85826000  0.39278000  0.66984000  1
  C  C51  1  0.82200000  0.35422000  0.59232000  1
  C  C52  1  0.82860000  0.39014000  0.55079000  1
  C  C53  1  0.83275000  0.41624000  0.51090000  1
  C  C54  1  0.83909000  0.45382000  0.47114000  1
  C  C55  1  0.82826000  0.52524000  0.50229000  1
  C  C56  1  0.83274000  0.56394000  0.46542000  1
  C  C57  1  0.85271000  0.53388000  0.39792000  1
  C  C58  1  0.86427000  0.46318000  0.36621000  1
  C  C59  1  0.85393000  0.42237000  0.40105000  1
  C  C60  1  0.86616000  0.57983000  0.36286000  1
  C  C61  1  0.03335000  0.95203000  0.43795000  1
  C  C62  1  0.07117000  0.02812000  0.47601000  1
  C  C63  1  0.18761000  0.32959000  0.72282000  1
  C  C64  1  0.22914000  0.40684000  0.76157000  1
  C  C65  1  0.27738000  0.44822000  0.83916000  1
  C  C66  1  0.32209000  0.48865000  0.90559000  1
  C  C67  1  0.36796000  0.52867000  0.98303000  1
  C  C68  1  0.32662000  0.49841000  0.02305000  1
  C  C69  1  0.36746000  0.53562000  0.09893000  1
  C  C70  1  0.45398000  0.60269000  0.13704000  1
  C  C71  1  0.49648000  0.63347000  0.09822000  1
  C  C72  1  0.45177000  0.59829000  0.02219000  1
  C  C73  1  0.50273000  0.63882000  0.21871000  1
  C  C74  1  0.59753000  0.56120000  0.51498000  1
  C  C75  1  0.59855000  0.52360000  0.55348000  1
  C  C76  1  0.46499000  0.27742000  0.60672000  1
  C  C77  1  0.46693000  0.23825000  0.64490000  1
  C  C78  1  0.43744000  0.16051000  0.60839000  1
  C  C79  1  0.41571000  0.09433000  0.58245000  1
  C  C80  1  0.38441000  0.01678000  0.54529000  1
  C  C81  1  0.30268000  0.97698000  0.47433000  1
  C  C82  1  0.26802000  0.90126000  0.43596000  1
  C  C83  1  0.31691000  0.86288000  0.46595000  1
  C  C84  1  0.39904000  0.90135000  0.53617000  1
  C  C85  1  0.43018000  0.97736000  0.57656000  1
  C  C86  1  0.28477000  0.78145000  0.42046000  1
  C  C87  1  0.40461000  0.48592000  0.43795000  1
  C  C88  1  0.40486000  0.44789000  0.47600000  1
  C  C89  1  0.53522000  0.39323000  0.72282000  1
  C  C90  1  0.53244000  0.35473000  0.76156000  1
  C  C91  1  0.56180000  0.39095000  0.83917000  1
  C  C92  1  0.58352000  0.41694000  0.90558000  1
  C  C93  1  0.61508000  0.45436000  0.98303000  1
  C  C94  1  0.69644000  0.52464000  0.02305000  1
  C  C95  1  0.73148000  0.56331000  0.09892000  1
  C  C96  1  0.68307000  0.53435000  0.13704000  1
  C  C97  1  0.60175000  0.46475000  0.09822000  1
  C  C98  1  0.57043000  0.42390000  0.02218000  1
  C  C99  1  0.71599000  0.57989000  0.21871000  1
  C  C100  1  0.91747000  0.95379000  0.51499000  1
  C  C101  1  0.95494000  0.02988000  0.55348000  1
  C  C102  1  0.14174000  0.32930000  0.60671000  1
  C  C103  1  0.17798000  0.40665000  0.64489000  1
  C  C104  1  0.17097000  0.44789000  0.60840000  1
  C  C105  1  0.16675000  0.48812000  0.58245000  1
  C  C106  1  0.16090000  0.52852000  0.54529000  1
  C  C107  1  0.17167000  0.49736000  0.47434000  1
  C  C108  1  0.16795000  0.53470000  0.43595000  1
  C  C109  1  0.14905000  0.60307000  0.46595000  1
  C  C110  1  0.13715000  0.63483000  0.53617000  1
  C  C111  1  0.14639000  0.59921000  0.57656000  1
  C  C112  1  0.13569000  0.63901000  0.42045000  1
  C  C113  1  0.96337000  0.56175000  0.04644000  1
  C  C114  1  0.92521000  0.52394000  0.97018000  1
  C  C115  1  0.81160000  0.27707000  0.66985000  1
  C  C116  1  0.77033000  0.23810000  0.59232000  1
  C  C117  1  0.72221000  0.16066000  0.55080000  1
  C  C118  1  0.67817000  0.09467000  0.51091000  1
  C  C119  1  0.63206000  0.01732000  0.47113000  1
  C  C120  1  0.67404000  0.97705000  0.50229000  1
  C  C121  1  0.63270000  0.90149000  0.46543000  1
  C  C122  1  0.54522000  0.86404000  0.39791000  1
  C  C123  1  0.50195000  0.90303000  0.36621000  1
  C  C124  1  0.54713000  0.97868000  0.40105000  1
  C  C125  1  0.49672000  0.78304000  0.36287000  1
  C  C126  1  0.08393000  0.58393000  0.16785000  1
  C  C127  1  0.04275000  0.54274000  0.08548000  1
  C  C128  1  0.96536000  0.46535000  0.93069000  1
  C  C129  1  0.92658000  0.42657000  0.85314000  1
  C  C130  1  0.89309000  0.39308000  0.78615000  1
  C  C131  1  0.85422000  0.35421000  0.70842000  1
  C  C132  1  0.77735000  0.27734000  0.55468000  1
  C  C133  1  0.91494000  0.83136000  0.41531000  1
  C  C134  1  0.95593000  0.91377000  0.45679000  1
  C  C135  1  0.03276000  0.06857000  0.53467000  1
  C  C136  1  0.07163000  0.14622000  0.57344000  1
  C  C137  1  0.10546000  0.21290000  0.60661000  1
  C  C138  1  0.14499000  0.29066000  0.64540000  1
  C  C139  1  0.22259000  0.44454000  0.72214000  1
  C  C140  1  0.50039000  0.58396000  0.41532000  1
  C  C141  1  0.50088000  0.54303000  0.45679000  1
  C  C142  1  0.50192000  0.46610000  0.53467000  1
  C  C143  1  0.50182000  0.42722000  0.57344000  1
  C  C144  1  0.50117000  0.39371000  0.60661000  1
  C  C145  1  0.50042000  0.35474000  0.64540000  1
  C  C146  1  0.49956000  0.27760000  0.72213000  1
  O  O147  1  0.02163000  0.61919000  0.20021000  1
  O  O148  1  0.84089000  0.64024000  0.39038000  1
  O  O149  1  0.91028000  0.56023000  0.31189000  1
  O  O150  1  0.82212000  0.79991000  0.41861000  1
  O  O151  1  0.45182000  0.61213000  0.25152000  1
  O  O152  1  0.59669000  0.68976000  0.25051000  1
  O  O153  1  0.40355000  0.58124000  0.37945000  1
  O  O154  1  0.20105000  0.74836000  0.35980000  1
  O  O155  1  0.34756000  0.74913000  0.44069000  1
  O  O156  1  0.59650000  0.61870000  0.41861000  1
  O  O157  1  0.79971000  0.63939000  0.25152000  1
  O  O158  1  0.65383000  0.56075000  0.25051000  1
  O  O159  1  0.97592000  0.79822000  0.37946000  1
  O  O160  1  0.15876000  0.61144000  0.35980000  1
  O  O161  1  0.09315000  0.69157000  0.44070000  1
  O  O162  1  0.17859000  0.58102000  0.20020000  1
  O  O163  1  0.54951000  0.75015000  0.39039000  1
  O  O164  1  0.40163000  0.75167000  0.31190000  1
