# generated using pymatgen
data_Gd2H9C24(NO6)3
_symmetry_space_group_name_H-M   'P 1'
_cell_length_a   13.73640000
_cell_length_b   13.74221000
_cell_length_c   16.39870000
_cell_angle_alpha   66.72952000
_cell_angle_beta   66.79113000
_cell_angle_gamma   71.37479000
_symmetry_Int_Tables_number   1
_chemical_formula_structural   Gd2H9C24(NO6)3
_chemical_formula_sum   'Gd4 H18 C48 N6 O36'
_cell_volume   2564.01688015
_cell_formula_units_Z   2
loop_
 _symmetry_equiv_pos_site_id
 _symmetry_equiv_pos_as_xyz
  1  'x, y, z'
loop_
 _atom_site_type_symbol
 _atom_site_label
 _atom_site_symmetry_multiplicity
 _atom_site_fract_x
 _atom_site_fract_y
 _atom_site_fract_z
 _atom_site_occupancy
  Gd  Gd0  1  0.14899000  0.43857000  0.00116000  1
  Gd  Gd1  1  0.56149000  0.85012000  0.49924000  1
  Gd  Gd2  1  0.85100000  0.56143000  0.99884000  1
  Gd  Gd3  1  0.43850000  0.14987000  0.50076000  1
  H  H4  1  0.08703000  0.35674000  0.54427000  1
  H  H5  1  0.08030000  0.12908000  0.14067000  1
  H  H6  1  0.24417000  0.34234000  0.73163000  1
  H  H7  1  0.89908000  0.45747000  0.78797000  1
  H  H8  1  0.64441000  0.91204000  0.95544000  1
  H  H9  1  0.87066000  0.91885000  0.35949000  1
  H  H10  1  0.65809000  0.75689000  0.76697000  1
  H  H11  1  0.54105000  0.10138000  0.71304000  1
  H  H12  1  0.91296000  0.64325000  0.45573000  1
  H  H13  1  0.91969000  0.87091000  0.85933000  1
  H  H14  1  0.75582000  0.65765000  0.26837000  1
  H  H15  1  0.10091000  0.54252000  0.21203000  1
  H  H16  1  0.35558000  0.08796000  0.04456000  1
  H  H17  1  0.12933000  0.08114000  0.64051000  1
  H  H18  1  0.34190000  0.24310000  0.23303000  1
  H  H19  1  0.45895000  0.89861000  0.28696000  1
  H  H20  1  0.74139000  0.25779000  0.25054000  1
  H  H21  1  0.25860000  0.74221000  0.74946000  1
  C  C22  1  0.91195000  0.20541000  0.18739000  1
  C  C23  1  0.08315000  0.36907000  0.60700000  1
  C  C24  1  0.92901000  0.31462000  0.12020000  1
  C  C25  1  0.06700000  0.42537000  0.85209000  1
  C  C26  1  0.99991000  0.11842000  0.18797000  1
  C  C27  1  0.17118000  0.36157000  0.71256000  1
  C  C28  1  0.07156000  0.40377000  0.76835000  1
  C  C29  1  0.17668000  0.34456000  0.63207000  1
  C  C30  1  0.28015000  0.29596000  0.57352000  1
  C  C31  1  0.97715000  0.42624000  0.74494000  1
  C  C32  1  0.98504000  0.40834000  0.66449000  1
  C  C33  1  0.79432000  0.08736000  0.31303000  1
  C  C34  1  0.63156000  0.91638000  0.89279000  1
  C  C35  1  0.68520000  0.07049000  0.38044000  1
  C  C36  1  0.57320000  0.93398000  0.64825000  1
  C  C37  1  0.88122000  0.99932000  0.31219000  1
  C  C38  1  0.63871000  0.82937000  0.78674000  1
  C  C39  1  0.59567000  0.92909000  0.73164000  1
  C  C40  1  0.65626000  0.82333000  0.86715000  1
  C  C41  1  0.70556000  0.71957000  0.92494000  1
  C  C42  1  0.57298000  0.02315000  0.75551000  1
  C  C43  1  0.59164000  0.01470000  0.83575000  1
  C  C44  1  0.08805000  0.79458000  0.81261000  1
  C  C45  1  0.91684000  0.63093000  0.39300000  1
  C  C46  1  0.07098000  0.68537000  0.87980000  1
  C  C47  1  0.93300000  0.57462000  0.14791000  1
  C  C48  1  0.00008000  0.88157000  0.81203000  1
  C  C49  1  0.82881000  0.63842000  0.28744000  1
  C  C50  1  0.92843000  0.59622000  0.23165000  1
  C  C51  1  0.82332000  0.65543000  0.36793000  1
  C  C52  1  0.71985000  0.70403000  0.42648000  1
  C  C53  1  0.02284000  0.57375000  0.25506000  1
  C  C54  1  0.01496000  0.59165000  0.33551000  1
  C  C55  1  0.20568000  0.91264000  0.68697000  1
  C  C56  1  0.36844000  0.08361000  0.10720000  1
  C  C57  1  0.31479000  0.92950000  0.61956000  1
  C  C58  1  0.42680000  0.06601000  0.35175000  1
  C  C59  1  0.11878000  0.00067000  0.68781000  1
  C  C60  1  0.36129000  0.17063000  0.21326000  1
  C  C61  1  0.40433000  0.07090000  0.26836000  1
  C  C62  1  0.34373000  0.17666000  0.13285000  1
  C  C63  1  0.29443000  0.28042000  0.07506000  1
  C  C64  1  0.42701000  0.97685000  0.24449000  1
  C  C65  1  0.40835000  0.98529000  0.16425000  1
  C  C66  1  0.80941000  0.19007000  0.25027000  1
  C  C67  1  0.98260000  0.01687000  0.24997000  1
  C  C68  1  0.19059000  0.80993000  0.74973000  1
  C  C69  1  0.01740000  0.98312000  0.75003000  1
  N  N70  1  0.88610000  0.43269000  0.63862000  1
  N  N71  1  0.56779000  0.11317000  0.86189000  1
  N  N72  1  0.11390000  0.56730000  0.36138000  1
  N  N73  1  0.43220000  0.88682000  0.13811000  1
  N  N74  1  0.07532000  0.92436000  0.24987000  1
  N  N75  1  0.92468000  0.07563000  0.75013000  1
  O  O76  1  0.84683000  0.38733000  0.10652000  1
  O  O77  1  0.02659000  0.32821000  0.08012000  1
  O  O78  1  0.15377000  0.40081000  0.87252000  1
  O  O79  1  0.97601000  0.46818000  0.90025000  1
  O  O80  1  0.28217000  0.28660000  0.49816000  1
  O  O81  1  0.36466000  0.25740000  0.60115000  1
  O  O82  1  0.16630000  0.94415000  0.20026000  1
  O  O83  1  0.89713000  0.42167000  0.56363000  1
  O  O84  1  0.79908000  0.46300000  0.69312000  1
  O  O85  1  0.61272000  0.15293000  0.39357000  1
  O  O86  1  0.67153000  0.97296000  0.42109000  1
  O  O87  1  0.59552000  0.84695000  0.62884000  1
  O  O88  1  0.53184000  0.02543000  0.59952000  1
  O  O89  1  0.71275000  0.71539000  0.00189000  1
  O  O90  1  0.74672000  0.63676000  0.89523000  1
  O  O91  1  0.05576000  0.83326000  0.29950000  1
  O  O92  1  0.57987000  0.10132000  0.93666000  1
  O  O93  1  0.53698000  0.20049000  0.80779000  1
  O  O94  1  0.15316000  0.61266000  0.89348000  1
  O  O95  1  0.97340000  0.67178000  0.91988000  1
  O  O96  1  0.84623000  0.59918000  0.12748000  1
  O  O97  1  0.02398000  0.53181000  0.09975000  1
  O  O98  1  0.71782000  0.71339000  0.50184000  1
  O  O99  1  0.63534000  0.74259000  0.39885000  1
  O  O100  1  0.83370000  0.05585000  0.79974000  1
  O  O101  1  0.10287000  0.57832000  0.43637000  1
  O  O102  1  0.20091000  0.53699000  0.30688000  1
  O  O103  1  0.38728000  0.84706000  0.60643000  1
  O  O104  1  0.32847000  0.02703000  0.57891000  1
  O  O105  1  0.40447000  0.15304000  0.37116000  1
  O  O106  1  0.46816000  0.97456000  0.40048000  1
  O  O107  1  0.28725000  0.28460000  0.99811000  1
  O  O108  1  0.25328000  0.36323000  0.10477000  1
  O  O109  1  0.94424000  0.16673000  0.70050000  1
  O  O110  1  0.42013000  0.89867000  0.06334000  1
  O  O111  1  0.46301000  0.79950000  0.19221000  1
