# generated using pymatgen
data_Ag7H20(C6N5)5
_symmetry_space_group_name_H-M   'P 1'
_cell_length_a   12.33199000
_cell_length_b   13.27597000
_cell_length_c   20.52142092
_cell_angle_alpha   80.41827490
_cell_angle_beta   72.91457474
_cell_angle_gamma   71.90610000
_symmetry_Int_Tables_number   1
_chemical_formula_structural   Ag7H20(C6N5)5
_chemical_formula_sum   'Ag14 H40 C60 N50'
_cell_volume   3042.18902208
_cell_formula_units_Z   2
loop_
 _symmetry_equiv_pos_site_id
 _symmetry_equiv_pos_as_xyz
  1  'x, y, z'
loop_
 _atom_site_type_symbol
 _atom_site_label
 _atom_site_symmetry_multiplicity
 _atom_site_fract_x
 _atom_site_fract_y
 _atom_site_fract_z
 _atom_site_occupancy
  Ag  Ag0  1  0.38181000  0.92391000  0.93108000  1
  Ag  Ag1  1  0.67022000  0.33809000  0.79193000  1
  Ag  Ag2  1  0.40360000  0.71917000  0.40398000  1
  Ag  Ag3  1  0.20609000  0.41210000  0.67696000  1
  Ag  Ag4  1  0.83224000  0.17793000  0.55990000  1
  Ag  Ag5  1  0.74619000  0.34554000  0.63975000  1
  Ag  Ag6  1  0.41950000  0.59179000  0.58137000  1
  Ag  Ag7  1  0.61522000  0.07598000  0.06982000  1
  Ag  Ag8  1  0.33047000  0.66133000  0.20899000  1
  Ag  Ag9  1  0.59932000  0.27787000  0.59557000  1
  Ag  Ag10  1  0.79354000  0.58879000  0.32389000  1
  Ag  Ag11  1  0.17077000  0.82074000  0.43886000  1
  Ag  Ag12  1  0.25508000  0.65243000  0.36030000  1
  Ag  Ag13  1  0.58088000  0.40769000  0.41940000  1
  H  H14  1  0.67557000  0.83689000  0.61474000  1
  H  H15  1  0.79688000  0.95225000  0.62286000  1
  H  H16  1  0.64806000  0.00591000  0.41892000  1
  H  H17  1  0.76860000  0.11499000  0.43548000  1
  H  H18  1  0.10799000  0.39921000  0.82392000  1
  H  H19  1  0.35577000  0.02402000  0.78205000  1
  H  H20  1  0.08696000  0.44228000  0.42359000  1
  H  H21  1  0.40937000  0.12674000  0.94790000  1
  H  H22  1  0.95125000  0.33062000  0.43788000  1
  H  H23  1  0.82449000  0.36197000  0.98700000  1
  H  H24  1  0.69736000  0.54447000  0.96383000  1
  H  H25  1  0.37947000  0.19034000  0.70953000  1
  H  H26  1  0.96521000  0.09995000  0.95437000  1
  H  H27  1  0.43039000  0.29793000  0.88307000  1
  H  H28  1  0.20030000  0.25560000  0.59742000  1
  H  H29  1  0.89396000  0.18393000  0.85156000  1
  H  H30  1  0.58053000  0.31161000  0.16784000  1
  H  H31  1  0.44035000  0.48646000  0.15026000  1
  H  H32  1  0.16771000  0.30715000  0.92914000  1
  H  H33  1  0.05920000  0.15168000  0.60502000  1
  H  H34  1  0.32485000  0.16390000  0.38419000  1
  H  H35  1  0.20452000  0.04849000  0.37558000  1
  H  H36  1  0.35032000  0.99622000  0.58042000  1
  H  H37  1  0.23053000  0.88682000  0.56403000  1
  H  H38  1  0.89193000  0.60281000  0.17677000  1
  H  H39  1  0.64097000  0.97569000  0.21884000  1
  H  H40  1  0.91220000  0.55876000  0.57642000  1
  H  H41  1  0.59102000  0.87159000  0.05222000  1
  H  H42  1  0.04952000  0.66853000  0.56184000  1
  H  H43  1  0.17577000  0.63818000  0.01210000  1
  H  H44  1  0.30269000  0.45558000  0.03563000  1
  H  H45  1  0.61823000  0.80940000  0.29101000  1
  H  H46  1  0.03488000  0.90202000  0.04628000  1
  H  H47  1  0.57135000  0.70014000  0.11668000  1
  H  H48  1  0.80041000  0.74571000  0.40213000  1
  H  H49  1  0.10516000  0.81832000  0.14957000  1
  H  H50  1  0.41996000  0.68730000  0.83105000  1
  H  H51  1  0.55969000  0.51228000  0.84889000  1
  H  H52  1  0.83318000  0.69415000  0.07100000  1
  H  H53  1  0.94207000  0.84851000  0.39473000  1
  C  C54  1  0.69411000  0.89818000  0.57424000  1
  C  C55  1  0.76220000  0.96157000  0.57850000  1
  C  C56  1  0.65082000  0.91270000  0.51616000  1
  C  C57  1  0.67997000  0.99107000  0.46468000  1
  C  C58  1  0.74787000  0.05143000  0.47357000  1
  C  C59  1  0.07456000  0.33284000  0.85120000  1
  C  C60  1  0.96056000  0.34779000  0.76573000  1
  C  C61  1  0.37230000  0.08673000  0.80247000  1
  C  C62  1  0.08435000  0.37804000  0.46412000  1
  C  C63  1  0.40305000  0.14339000  0.89520000  1
  C  C64  1  0.00871000  0.31549000  0.47196000  1
  C  C65  1  0.73940000  0.39319000  0.02276000  1
  C  C66  1  0.15312000  0.35931000  0.51084000  1
  C  C67  1  0.99688000  0.29808000  0.82795000  1
  C  C68  1  0.48081000  0.63835000  0.04465000  1
  C  C69  1  0.23291000  0.42301000  0.50601000  1
  C  C70  1  0.41968000  0.35944000  0.75412000  1
  C  C71  1  0.66840000  0.49488000  0.00951000  1
  C  C72  1  0.38410000  0.18036000  0.76256000  1
  C  C73  1  0.58112000  0.84610000  0.50936000  1
  C  C74  1  0.55809000  0.53202000  0.05586000  1
  C  C75  1  0.99569000  0.16634000  0.92419000  1
  C  C76  1  0.41545000  0.23852000  0.85885000  1
  C  C77  1  0.14455000  0.27597000  0.56211000  1
  C  C78  1  0.95573000  0.21329000  0.86632000  1
  C  C79  1  0.40604000  0.25874000  0.79113000  1
  C  C80  1  0.60419000  0.36425000  0.12253000  1
  C  C81  1  0.52559000  0.46346000  0.11317000  1
  C  C82  1  0.10819000  0.28086000  0.91003000  1
  C  C83  1  0.06784000  0.21674000  0.56565000  1
  C  C84  1  0.30580000  0.10294000  0.42481000  1
  C  C85  1  0.23827000  0.03914000  0.42030000  1
  C  C86  1  0.34822000  0.08883000  0.48313000  1
  C  C87  1  0.31880000  0.01058000  0.53458000  1
  C  C88  1  0.25143000  0.94988000  0.52553000  1
  C  C89  1  0.92515000  0.66925000  0.14939000  1
  C  C90  1  0.03921000  0.65349000  0.23472000  1
  C  C91  1  0.62561000  0.91266000  0.19807000  1
  C  C92  1  0.91544000  0.62274000  0.53577000  1
  C  C93  1  0.59694000  0.85522000  0.10499000  1
  C  C94  1  0.99184000  0.68458000  0.52780000  1
  C  C95  1  0.26090000  0.60677000  0.97644000  1
  C  C96  1  0.84660000  0.64161000  0.48908000  1
  C  C97  1  0.00265000  0.70404000  0.17273000  1
  C  C98  1  0.51877000  0.36125000  0.95537000  1
  C  C99  1  0.76673000  0.57776000  0.49428000  1
  C  C100  1  0.58107000  0.63878000  0.24605000  1
  C  C101  1  0.33165000  0.50507000  0.98989000  1
  C  C102  1  0.61452000  0.81877000  0.23784000  1
  C  C103  1  0.41774000  0.15515000  0.49044000  1
  C  C104  1  0.44192000  0.46757000  0.94361000  1
  C  C105  1  0.00430000  0.83563000  0.07644000  1
  C  C106  1  0.58537000  0.75976000  0.14120000  1
  C  C107  1  0.85581000  0.72480000  0.43768000  1
  C  C108  1  0.04365000  0.78899000  0.13455000  1
  C  C109  1  0.59408000  0.73972000  0.20905000  1
  C  C110  1  0.39626000  0.63498000  0.87654000  1
  C  C111  1  0.47460000  0.53567000  0.88608000  1
  C  C112  1  0.89215000  0.72085000  0.09034000  1
  C  C113  1  0.93303000  0.78357000  0.43417000  1
  N  N114  1  0.38169000  0.06759000  0.86780000  1
  N  N115  1  0.86411000  0.40031000  0.68846000  1
  N  N116  1  0.86015000  0.34867000  0.75171000  1
  N  N117  1  0.02425000  0.39775000  0.71226000  1
  N  N118  1  0.49572000  0.40824000  0.76189000  1
  N  N119  1  0.48086000  0.50022000  0.72199000  1
  N  N120  1  0.25782000  0.44843000  0.56022000  1
  N  N121  1  0.36395000  0.50688000  0.46482000  1
  N  N122  1  0.33687000  0.78274000  0.06270000  1
  N  N123  1  0.96175000  0.42979000  0.66473000  1
  N  N124  1  0.39804000  0.50741000  0.69135000  1
  N  N125  1  0.29659000  0.45959000  0.44665000  1
  N  N126  1  0.47734000  0.73719000  0.53444000  1
  N  N127  1  0.56677000  0.83064000  0.44909000  1
  N  N128  1  0.07176000  0.19770000  0.94626000  1
  N  N129  1  0.78914000  0.03808000  0.52950000  1
  N  N130  1  0.70987000  0.32780000  0.07855000  1
  N  N131  1  0.38124000  0.68635000  0.09132000  1
  N  N132  1  0.99948000  0.23566000  0.52185000  1
  N  N133  1  0.35802000  0.41945000  0.71028000  1
  N  N134  1  0.33975000  0.50138000  0.53273000  1
  N  N135  1  0.52678000  0.78895000  0.56256000  1
  N  N136  1  0.50016000  0.70351000  0.98744000  1
  N  N137  1  0.40903000  0.79133000  0.00048000  1
  N  N138  1  0.50250000  0.76150000  0.46600000  1
  N  N139  1  0.61679000  0.93165000  0.13263000  1
  N  N140  1  0.13658000  0.59809000  0.31147000  1
  N  N141  1  0.14007000  0.65138000  0.24868000  1
  N  N142  1  0.97564000  0.60274000  0.28777000  1
  N  N143  1  0.50551000  0.58944000  0.23826000  1
  N  N144  1  0.52036000  0.49777000  0.27847000  1
  N  N145  1  0.74090000  0.55292000  0.44024000  1
  N  N146  1  0.63646000  0.49305000  0.53574000  1
  N  N147  1  0.66268000  0.21667000  0.93840000  1
  N  N148  1  0.03871000  0.56892000  0.33497000  1
  N  N149  1  0.60282000  0.49123000  0.30925000  1
  N  N150  1  0.70412000  0.54021000  0.55373000  1
  N  N151  1  0.52303000  0.26261000  0.46609000  1
  N  N152  1  0.43225000  0.16945000  0.55093000  1
  N  N153  1  0.92896000  0.80378000  0.05401000  1
  N  N154  1  0.21108000  0.96262000  0.46929000  1
  N  N155  1  0.29069000  0.67185000  0.92051000  1
  N  N156  1  0.61915000  0.31297000  0.90936000  1
  N  N157  1  0.00160000  0.76430000  0.47790000  1
  N  N158  1  0.64252000  0.57938000  0.29015000  1
  N  N159  1  0.65947000  0.49949000  0.46783000  1
  N  N160  1  0.47282000  0.21220000  0.43756000  1
  N  N161  1  0.49808000  0.29639000  0.01259000  1
  N  N162  1  0.58921000  0.20843000  0.00022000  1
  N  N163  1  0.49754000  0.23770000  0.53447000  1
