# generated using pymatgen
data_H28C45(N4O)2
_symmetry_space_group_name_H-M   'P 1'
_cell_length_a   30.04020000
_cell_length_b   54.65400000
_cell_length_c   57.38590000
_cell_angle_alpha   90.00000000
_cell_angle_beta   90.00000000
_cell_angle_gamma   90.00040000
_symmetry_Int_Tables_number   1
_chemical_formula_structural   H28C45(N4O)2
_chemical_formula_sum   'H224 C360 N64 O16'
_cell_volume   94217.15138864
_cell_formula_units_Z   8
loop_
 _symmetry_equiv_pos_site_id
 _symmetry_equiv_pos_as_xyz
  1  'x, y, z'
loop_
 _atom_site_type_symbol
 _atom_site_label
 _atom_site_symmetry_multiplicity
 _atom_site_fract_x
 _atom_site_fract_y
 _atom_site_fract_z
 _atom_site_occupancy
  H  26  1  0.20395100  0.08110300  0.09523300  1
  H  27  1  0.19695700  0.06928900  0.13458600  1
  H  28  1  0.33167700  0.10966000  0.10917500  1
  H  29  1  0.32510600  0.09709600  0.14872400  1
  H  30  1  0.32156400  0.09556600  0.19964100  1
  H  31  1  0.31128400  0.13199600  0.22124200  1
  H  32  1  0.18057000  0.13764800  0.19515400  1
  H  33  1  0.19067500  0.10094200  0.17395700  1
  H  34  1  0.19063100  0.06433300  0.20362700  1
  H  35  1  0.13066700  0.03618200  0.20409000  1
  H  36  1  0.18752800  0.99868500  0.14715500  1
  H  37  1  0.24614000  0.02728300  0.14612300  1
  H  38  1  0.32662700  0.04742300  0.14194400  1
  H  39  1  0.29080400  0.05160500  0.21282400  1
  H  40  1  0.35301300  0.02670300  0.22254400  1
  H  41  1  0.38859200  0.02322700  0.15151600  1
  H  44  1  0.20560300  0.16638400  0.22436000  1
  H  45  1  0.29219200  0.11630900  0.07031400  1
  H  47  1  0.11454500  0.98727300  0.16025900  1
  H  49  1  0.42512300  0.00839100  0.21053400  1
  H  75  1  0.32021200  0.08117500  0.92504400  1
  H  76  1  0.32624600  0.06939200  0.88561900  1
  H  77  1  0.19168200  0.10914600  0.91214700  1
  H  78  1  0.19722900  0.09656200  0.87251700  1
  H  79  1  0.20019500  0.09563900  0.82163300  1
  H  80  1  0.21013600  0.13215700  0.80011200  1
  H  81  1  0.34156000  0.13741800  0.82527000  1
  H  82  1  0.33176000  0.10065000  0.84639200  1
  H  83  1  0.33133300  0.06406800  0.81688600  1
  H  84  1  0.39146500  0.03600000  0.81643300  1
  H  85  1  0.33512300  0.99865400  0.87360100  1
  H  86  1  0.27638400  0.02715200  0.87461500  1
  H  87  1  0.19618400  0.04693100  0.87884900  1
  H  88  1  0.23098700  0.05174400  0.80787400  1
  H  89  1  0.16880900  0.02681100  0.79820100  1
  H  90  1  0.13426300  0.02265300  0.86933700  1
  H  93  1  0.31593900  0.16646600  0.79655700  1
  H  94  1  0.23616800  0.11722000  0.95050500  1
  H  96  1  0.40814500  0.98739900  0.86053000  1
  H  98  1  0.09712400  0.00818800  0.81030100  1
  H  124  1  0.70376700  0.85007900  0.92569500  1
  H  125  1  0.69657000  0.86182900  0.88638100  1
  H  126  1  0.83151800  0.82164900  0.91162600  1
  H  127  1  0.82480100  0.83425200  0.87207900  1
  H  128  1  0.82074000  0.83657800  0.82033000  1
  H  129  1  0.81063300  0.80021600  0.79857200  1
  H  130  1  0.68121600  0.79317000  0.82608900  1
  H  131  1  0.69111000  0.82976900  0.84744600  1
  H  132  1  0.68896000  0.86634700  0.81774600  1
  H  133  1  0.62683400  0.89322700  0.81865900  1
  H  134  1  0.68448000  0.93125700  0.87501900  1
  H  135  1  0.74544800  0.90404400  0.87465500  1
  H  136  1  0.82681900  0.88363700  0.87875000  1
  H  137  1  0.78866300  0.88072100  0.80817200  1
  H  138  1  0.84904300  0.90688200  0.79847800  1
  H  139  1  0.88703200  0.90904100  0.86920100  1
  H  142  1  0.70564300  0.76522700  0.79601700  1
  H  143  1  0.79210800  0.81497300  0.95057200  1
  H  145  1  0.60226100  0.93311000  0.86642600  1
  H  147  1  0.91024100  0.93345100  0.81085200  1
  H  173  1  0.81993100  0.85015400  0.09569700  1
  H  174  1  0.82634900  0.86196800  0.13505100  1
  H  175  1  0.69187900  0.82179500  0.10907200  1
  H  176  1  0.69771800  0.83453600  0.14865600  1
  H  177  1  0.70109300  0.83662900  0.20043200  1
  H  178  1  0.71089600  0.80021400  0.22215400  1
  H  179  1  0.84079900  0.79333300  0.19523900  1
  H  180  1  0.83118900  0.82996500  0.17391100  1
  H  181  1  0.83307000  0.86650000  0.20352400  1
  H  182  1  0.89536400  0.89328300  0.20263700  1
  H  183  1  0.83815100  0.93130800  0.14615800  1
  H  184  1  0.77703200  0.90421000  0.14649700  1
  H  185  1  0.69575500  0.88386600  0.14220000  1
  H  186  1  0.73321100  0.88075700  0.21287600  1
  H  187  1  0.67283900  0.90696200  0.22246400  1
  H  188  1  0.63555900  0.90935000  0.15164500  1
  H  191  1  0.81590900  0.76521200  0.22499800  1
  H  192  1  0.73588300  0.81381100  0.07055600  1
  H  194  1  0.92047700  0.93279900  0.15473600  1
  H  196  1  0.61195100  0.93367000  0.20998900  1
  H  222  1  0.70358700  0.58156000  0.59529200  1
  H  223  1  0.69669900  0.56966000  0.63463300  1
  H  224  1  0.83172200  0.60964300  0.60908800  1
  H  225  1  0.82526400  0.59700100  0.64860800  1
  H  226  1  0.82215100  0.59549500  0.69921100  1
  H  227  1  0.81293700  0.63222700  0.72038200  1
  H  228  1  0.68175000  0.63820200  0.69501300  1
  H  229  1  0.69082100  0.60114600  0.67421600  1
  H  230  1  0.69068400  0.56439200  0.70359000  1
  H  231  1  0.63067100  0.53623500  0.70407000  1
  H  232  1  0.68713500  0.49894300  0.64690600  1
  H  233  1  0.74578300  0.52750200  0.64588600  1
  H  234  1  0.82634200  0.54739600  0.64175100  1
  H  235  1  0.79086600  0.55155900  0.71267800  1
  H  236  1  0.85300900  0.52656400  0.72229900  1
  H  237  1  0.88827200  0.52312200  0.65122400  1
  H  240  1  0.70878100  0.66834300  0.72240500  1
  H  241  1  0.79214800  0.61647700  0.57030500  1
  H  243  1  0.61413600  0.48761500  0.65999800  1
  H  245  1  0.92497600  0.50819200  0.71020900  1
  H  271  1  0.82050700  0.58163600  0.42502700  1
  H  272  1  0.82646200  0.56976800  0.38561700  1
  H  273  1  0.69160000  0.60914900  0.41225300  1
  H  274  1  0.69707600  0.59647600  0.37264500  1
  H  275  1  0.69959900  0.59556100  0.32209800  1
  H  276  1  0.70849400  0.63236400  0.30098500  1
  H  277  1  0.84039100  0.63795900  0.32539700  1
  H  278  1  0.83160900  0.60085800  0.34615100  1
  H  279  1  0.83126200  0.56413100  0.31695000  1
  H  280  1  0.89145100  0.53606300  0.31648000  1
  H  281  1  0.83554200  0.49893500  0.37389500  1
  H  282  1  0.77676100  0.52739100  0.37489500  1
  H  283  1  0.69644300  0.54693000  0.37906100  1
  H  284  1  0.73094600  0.55170900  0.30803900  1
  H  285  1  0.66879600  0.52670600  0.29845800  1
  H  286  1  0.63452500  0.52260200  0.36963400  1
  H  289  1  0.81284500  0.66830400  0.29839400  1
  H  290  1  0.73615000  0.61743000  0.45053700  1
  H  292  1  0.90855400  0.48774500  0.36081300  1
  H  294  1  0.59723900  0.50804000  0.31063700  1
  H  320  1  0.20350600  0.34959400  0.42565800  1
  H  321  1  0.19636700  0.36144100  0.38636100  1
  H  322  1  0.33164200  0.32163400  0.41168400  1
  H  323  1  0.32497500  0.33433400  0.37216300  1
  H  324  1  0.32133900  0.33665600  0.32074400  1
  H  325  1  0.31234600  0.29997800  0.29943000  1
  H  326  1  0.18246600  0.29259000  0.32627300  1
  H  327  1  0.19127600  0.32955500  0.34721200  1
  H  328  1  0.18905500  0.36625300  0.31777100  1
  H  329  1  0.12685500  0.39311900  0.31863400  1
  H  330  1  0.18401900  0.43097700  0.37523500  1
  H  331  1  0.24506300  0.40381500  0.37488300  1
  H  332  1  0.32652700  0.38366500  0.37894800  1
  H  333  1  0.28871000  0.38076500  0.30831200  1
  H  334  1  0.34905400  0.40700800  0.29872300  1
  H  335  1  0.38672300  0.40912500  0.36949100  1
  H  338  1  0.20902300  0.26311000  0.29814400  1
  H  339  1  0.29205200  0.31472400  0.45057000  1
  H  341  1  0.10191200  0.43287400  0.36648200  1
  H  343  1  0.41005900  0.43366500  0.31122300  1
  H  369  1  0.32012800  0.34967100  0.59568100  1
  H  370  1  0.32653400  0.36155800  0.63502100  1
  H  371  1  0.19170500  0.32177700  0.60898400  1
  H  372  1  0.19753900  0.33460300  0.64854400  1
  H  373  1  0.20053700  0.33671100  0.69999000  1
  H  374  1  0.20925100  0.29999800  0.72128800  1
  H  375  1  0.33958800  0.29274500  0.69503300  1
  H  376  1  0.33104300  0.32972900  0.67409900  1
  H  377  1  0.33298100  0.36638500  0.70346100  1
  H  378  1  0.39534500  0.39315200  0.70263900  1
  H  379  1  0.33859800  0.43105500  0.64595300  1
  H  380  1  0.27740700  0.40399800  0.64626300  1
  H  381  1  0.19604600  0.38389500  0.64198800  1
  H  382  1  0.23318000  0.38078300  0.71271600  1
  H  383  1  0.17284300  0.40706300  0.72221300  1
  H  384  1  0.13586600  0.40942300  0.65134900  1
  H  387  1  0.31263900  0.26318700  0.72295800  1
  H  388  1  0.23596600  0.31353200  0.57052100  1
  H  390  1  0.42082800  0.43257200  0.65468600  1
  H  392  1  0.11212100  0.43384800  0.70962700  1
  H  403  1  0.23448500  0.00657200  0.98843200  1
  H  404  1  0.27285100  0.12544900  0.03063200  1
  H  405  1  0.27357300  0.12496500  0.98909900  1
  H  407  1  0.24545100  0.04248500  0.05096300  1
  H  420  1  0.73677700  0.92472700  0.03264800  1
  H  421  1  0.77116200  0.80559400  0.99017500  1
  H  422  1  0.77177500  0.80595000  0.03171800  1
  H  424  1  0.74669000  0.88887200  0.97003700  1
  H  437  1  0.73493700  0.50676600  0.48840200  1
  H  438  1  0.77249800  0.62569600  0.53066800  1
  H  439  1  0.77341400  0.62522200  0.48913900  1
  H  441  1  0.74548000  0.54268100  0.55095400  1
  H  454  1  0.23704800  0.42450300  0.53263200  1
  H  455  1  0.27099000  0.30533200  0.49014800  1
  H  456  1  0.27165900  0.30568900  0.53168900  1
  H  458  1  0.24678200  0.38863800  0.47001900  1
  H  471  1  0.90922000  0.00512000  0.13566500  1
  H  472  1  0.07046400  0.95851900  0.21245300  1
  H  473  1  0.00583600  0.93274400  0.21202600  1
  H  475  1  0.03500600  0.02143500  0.15881600  1
  H  488  1  0.61315700  0.00545600  0.88503000  1
  H  489  1  0.45207200  0.95829200  0.80845800  1
  H  490  1  0.51667500  0.93250800  0.80911300  1
  H  492  1  0.48746000  0.02162800  0.86165500  1
  H  505  1  0.10387800  0.93780300  0.90204700  1
  H  506  1  0.95679900  0.96883100  0.81157500  1
  H  507  1  0.01964200  0.99535300  0.81163300  1
  H  509  1  0.98477100  0.91480800  0.87476300  1
  H  522  1  0.41848100  0.93811100  0.11876200  1
  H  523  1  0.56566300  0.96917000  0.20917800  1
  H  524  1  0.50280800  0.99569500  0.20913000  1
  H  526  1  0.53760700  0.91511700  0.14602300  1
  H  539  1  0.40916100  0.50500200  0.63568500  1
  H  540  1  0.57055000  0.45847200  0.71242400  1
  H  541  1  0.50599000  0.43264900  0.71198300  1
  H  543  1  0.53488900  0.52141900  0.65885300  1
  H  556  1  0.11325800  0.50532800  0.38501400  1
  H  557  1  0.95196500  0.45825400  0.30851800  1
  H  558  1  0.01648800  0.43241500  0.30917500  1
  H  560  1  0.98761200  0.52161600  0.36164600  1
  H  573  1  0.60408500  0.43750100  0.40221000  1
  H  574  1  0.45665000  0.46900900  0.31205200  1
  H  575  1  0.51956300  0.49547900  0.31212500  1
  H  577  1  0.48479200  0.41470400  0.37499900  1
  H  590  1  0.91833000  0.43782500  0.61856400  1
  H  591  1  0.06578100  0.46930500  0.70872600  1
  H  592  1  0.00286400  0.49578300  0.70865800  1
  H  594  1  0.03760900  0.41500700  0.64577700  1
  H  607  1  0.17568700  0.23227800  0.19505500  1
  H  608  1  0.31037700  0.21902200  0.29422200  1
  H  609  1  0.30934000  0.18197300  0.27197400  1
  H  611  1  0.21684100  0.27242100  0.25144500  1
  H  624  1  0.34531600  0.23236000  0.82605600  1
  H  625  1  0.21132300  0.21902700  0.72664300  1
  H  626  1  0.21234900  0.18196400  0.74887000  1
  H  628  1  0.30437300  0.27250000  0.76962400  1
  H  641  1  0.67639200  0.69926500  0.82562000  1
  H  642  1  0.80995600  0.71267400  0.72605600  1
  H  643  1  0.80904800  0.74971800  0.74831900  1
  H  645  1  0.71706300  0.65917200  0.76910300  1
  H  658  1  0.84448300  0.69923900  0.19516100  1
  H  659  1  0.71176100  0.71273300  0.29501800  1
  H  660  1  0.71269000  0.74980100  0.27279000  1
  H  662  1  0.80405000  0.65914300  0.25172200  1
  C  1  1  0.37795000  0.02270300  0.18811700  1
  C  2  1  0.34842300  0.03142700  0.20545100  1
  C  3  1  0.31166800  0.04631400  0.19967100  1
  C  4  1  0.30323800  0.05422500  0.17648000  1
  C  5  1  0.33231100  0.04442900  0.15922700  1
  C  6  1  0.36883600  0.02939000  0.16481000  1
  C  7  1  0.26135700  0.06934200  0.17072900  1
  C  8  1  0.22427800  0.05011000  0.17391400  1
  C  9  1  0.22261500  0.02943000  0.15882600  1
  C  10  1  0.18751700  0.01241200  0.15930200  1
  C  11  1  0.15218500  0.01461500  0.17543800  1
  C  12  1  0.15502000  0.03394800  0.19181000  1
  C  13  1  0.19047800  0.05095200  0.19124700  1
  C  14  1  0.25613900  0.09272200  0.18555600  1
  C  15  1  0.26200200  0.07976600  0.14581400  1
  C  16  1  0.22632100  0.07712500  0.12968700  1
  C  17  1  0.23007200  0.08440600  0.10625800  1
  C  18  1  0.26928700  0.09568200  0.09796300  1
  C  19  1  0.30303900  0.10107100  0.11433300  1
  C  20  1  0.29901300  0.09364200  0.13776000  1
  C  21  1  0.29081100  0.10344300  0.19908000  1
  C  22  1  0.28511400  0.12548600  0.21166000  1
  C  23  1  0.24446200  0.13856100  0.21104100  1
  C  24  1  0.21041200  0.12875100  0.19674700  1
  C  25  1  0.21640800  0.10681200  0.18419700  1
  C  42  1  0.27463400  0.10155800  0.07456500  1
  C  43  1  0.41452700  0.00818800  0.19412100  1
  C  46  1  0.11603300  0.99849800  0.17394200  1
  C  48  1  0.23679300  0.16032000  0.22349400  1
  C  50  1  0.14437400  0.02246600  0.83269000  1
  C  51  1  0.17359700  0.03140200  0.81531300  1
  C  52  1  0.21033600  0.04630900  0.82106700  1
  C  53  1  0.21902300  0.05406400  0.84428000  1
  C  54  1  0.19026200  0.04406200  0.86156800  1
  C  55  1  0.15377800  0.02897800  0.85601300  1
  C  56  1  0.26094500  0.06915600  0.84998300  1
  C  57  1  0.29794200  0.04989400  0.84669300  1
  C  58  1  0.29978200  0.02926900  0.86184300  1
  C  59  1  0.33497700  0.01231800  0.86138900  1
  C  60  1  0.37022700  0.01452600  0.84520300  1
  C  61  1  0.36717500  0.03377000  0.82874800  1
  C  62  1  0.33161700  0.05071700  0.82929500  1
  C  63  1  0.26598500  0.09257500  0.83519800  1
  C  64  1  0.26066700  0.07950400  0.87492700  1
  C  65  1  0.29687800  0.07705300  0.89076300  1
  C  66  1  0.29371600  0.08430600  0.91421700  1
  C  67  1  0.25457800  0.09539500  0.92278900  1
  C  68  1  0.22020700  0.10061100  0.90674100  1
  C  69  1  0.22365300  0.09318300  0.88328200  1
  C  70  1  0.23101500  0.10345400  0.82199700  1
  C  71  1  0.23652100  0.12554500  0.80946500  1
  C  72  1  0.27727900  0.13853200  0.80982700  1
  C  73  1  0.31162200  0.12858800  0.82384600  1
  C  74  1  0.30580900  0.10660300  0.83634900  1
  C  91  1  0.25023500  0.10138600  0.94616900  1
  C  92  1  0.10780700  0.00793600  0.82669900  1
  C  95  1  0.40649700  0.99849600  0.84675800  1
  C  97  1  0.28478600  0.16034100  0.79741500  1
  C  99  1  0.87545700  0.91016200  0.83268500  1
  C  100  1  0.84557400  0.90151500  0.81547100  1
  C  101  1  0.80987800  0.88585900  0.82122700  1
  C  102  1  0.80245500  0.87734500  0.84432000  1
  C  103  1  0.83190200  0.88698400  0.86147900  1
  C  104  1  0.86759100  0.90262200  0.85588900  1
  C  105  1  0.76086700  0.86199900  0.85013200  1
  C  106  1  0.72332100  0.88098800  0.84707500  1
  C  107  1  0.72147400  0.90162100  0.86222700  1
  C  108  1  0.68505600  0.91777000  0.86262400  1
  C  109  1  0.64897800  0.91477900  0.84711900  1
  C  110  1  0.65215700  0.89595700  0.83030300  1
  C  111  1  0.68879700  0.87971400  0.83013500  1
  C  112  1  0.75588700  0.83865800  0.83523800  1
  C  113  1  0.76170600  0.85157000  0.87506400  1
  C  114  1  0.72605000  0.85410400  0.89123700  1
  C  115  1  0.72988800  0.84682800  0.91465800  1
  C  116  1  0.76916500  0.83560200  0.92291900  1
  C  117  1  0.80287000  0.83025200  0.90650600  1
  C  118  1  0.79875900  0.83770600  0.88308000  1
  C  119  1  0.79029700  0.82837700  0.82123100  1
  C  120  1  0.78471800  0.80639100  0.80853600  1
  C  121  1  0.74448100  0.79295600  0.80950700  1
  C  122  1  0.71074300  0.80233100  0.82425400  1
  C  123  1  0.71662900  0.82420200  0.83691200  1
  C  140  1  0.77451200  0.82971300  0.94632200  1
  C  141  1  0.90979500  0.92635000  0.82679100  1
  C  144  1  0.61112900  0.92914400  0.85013500  1
  C  146  1  0.73683800  0.77128300  0.79692900  1
  C  148  1  0.64679700  0.91037300  0.18819100  1
  C  149  1  0.67645400  0.90163400  0.20546800  1
  C  150  1  0.71213600  0.88594600  0.19977500  1
  C  151  1  0.71976600  0.87749300  0.17668100  1
  C  152  1  0.69051500  0.88719100  0.15946200  1
  C  153  1  0.65485300  0.90287500  0.16499000  1
  C  154  1  0.76141600  0.86216600  0.17096800  1
  C  155  1  0.79890600  0.88117300  0.17414700  1
  C  156  1  0.80086000  0.90181300  0.15900300  1
  C  157  1  0.83742200  0.91786400  0.15859200  1
  C  158  1  0.87344300  0.91481500  0.17412000  1
  C  159  1  0.87009400  0.89603300  0.19096700  1
  C  160  1  0.83333300  0.87987000  0.19113600  1
  C  161  1  0.76619900  0.83879900  0.18585000  1
  C  162  1  0.76093700  0.85178000  0.14601300  1
  C  163  1  0.79693500  0.85427800  0.13003600  1
  C  164  1  0.79357300  0.84697900  0.10660500  1
  C  165  1  0.75447200  0.83573600  0.09818100  1
  C  166  1  0.72038700  0.83041900  0.11437100  1
  C  167  1  0.72400900  0.83793200  0.13780700  1
  C  168  1  0.73157200  0.82845400  0.19966400  1
  C  169  1  0.73697500  0.80643500  0.21233200  1
  C  170  1  0.77726100  0.79303100  0.21153300  1
  C  171  1  0.81122200  0.80246800  0.19696100  1
  C  172  1  0.80550700  0.82436600  0.18432000  1
  C  189  1  0.75000100  0.82964900  0.07481900  1
  C  190  1  0.61249000  0.92659800  0.19403700  1
  C  193  1  0.91144200  0.92904100  0.17104800  1
  C  195  1  0.78475000  0.77132300  0.22409100  1
  C  197  1  0.87779200  0.52257100  0.68783900  1
  C  198  1  0.84835500  0.53129900  0.70521300  1
  C  199  1  0.81162500  0.54623500  0.69949200  1
  C  200  1  0.80314300  0.55419400  0.67632100  1
  C  201  1  0.83207100  0.54435600  0.65902400  1
  C  202  1  0.86858500  0.52928400  0.66454800  1
  C  203  1  0.76131900  0.56939900  0.67065400  1
  C  204  1  0.72415900  0.55021600  0.67381300  1
  C  205  1  0.72238100  0.52959400  0.65866000  1
  C  206  1  0.68724500  0.51260100  0.65912300  1
  C  207  1  0.65201900  0.51475500  0.67532700  1
  C  208  1  0.65495800  0.53404000  0.69174600  1
  C  209  1  0.69043400  0.55103900  0.69118300  1
  C  210  1  0.75640600  0.59277100  0.68551800  1
  C  211  1  0.76193200  0.57989200  0.64577000  1
  C  212  1  0.72611300  0.57742000  0.62970300  1
  C  213  1  0.72980200  0.58475100  0.60628600  1
  C  214  1  0.76910900  0.59590000  0.59795500  1
  C  215  1  0.80302700  0.60112500  0.61427400  1
  C  216  1  0.79902900  0.59368800  0.63769800  1
  C  217  1  0.79148600  0.60348600  0.69874600  1
  C  218  1  0.78642000  0.62573100  0.71105700  1
  C  219  1  0.74606400  0.63908800  0.71041600  1
  C  220  1  0.71148700  0.62918900  0.69652900  1
  C  221  1  0.71682900  0.60701200  0.68426300  1
  C  238  1  0.77439900  0.60179700  0.57456200  1
  C  239  1  0.91439000  0.50804700  0.69379200  1
  C  242  1  0.61583400  0.49866100  0.67380600  1
  C  244  1  0.73918300  0.66105900  0.72268000  1
  C  246  1  0.64451500  0.52236800  0.33298000  1
  C  247  1  0.67366600  0.53129700  0.31556300  1
  C  248  1  0.71038400  0.54624700  0.32126000  1
  C  249  1  0.71914900  0.55401300  0.34446100  1
  C  250  1  0.69047100  0.54402400  0.36179200  1
  C  251  1  0.65399600  0.52891100  0.35628600  1
  C  252  1  0.76097300  0.56922100  0.35009300  1
  C  253  1  0.79806600  0.55001500  0.34683200  1
  C  254  1  0.80003000  0.52944900  0.36205400  1
  C  255  1  0.83527300  0.51252800  0.36161100  1
  C  256  1  0.87040200  0.51468000  0.34534900  1
  C  257  1  0.86723000  0.53387100  0.32884000  1
  C  258  1  0.83165800  0.55081400  0.32939300  1
  C  259  1  0.76569400  0.59263900  0.33527900  1
  C  260  1  0.76072000  0.57964500  0.37500500  1
  C  261  1  0.79706100  0.57737200  0.39078200  1
  C  262  1  0.79393600  0.58466700  0.41422700  1
  C  263  1  0.75471200  0.59564000  0.42282500  1
  C  264  1  0.72020500  0.60071400  0.40681700  1
  C  265  1  0.72360700  0.59323600  0.38337600  1
  C  266  1  0.73032100  0.60349700  0.32237000  1
  C  267  1  0.73521800  0.62577000  0.31007900  1
  C  268  1  0.77569100  0.63903700  0.31045800  1
  C  269  1  0.81055400  0.62901400  0.32406900  1
  C  270  1  0.80538100  0.60680300  0.33630400  1
  C  287  1  0.75040100  0.60164700  0.44620000  1
  C  288  1  0.60792100  0.50783500  0.32703700  1
  C  291  1  0.90671700  0.49868500  0.34693200  1
  C  293  1  0.78242900  0.66103300  0.29820400  1
  C  295  1  0.37530200  0.41027600  0.33296700  1
  C  296  1  0.34549800  0.40163400  0.31571000  1
  C  297  1  0.30983000  0.38593200  0.32140100  1
  C  298  1  0.30232800  0.37740200  0.34448000  1
  C  299  1  0.33170000  0.38701500  0.36168400  1
  C  300  1  0.36735900  0.40270100  0.35615300  1
  C  301  1  0.26084200  0.36193500  0.35021300  1
  C  302  1  0.22318500  0.38085600  0.34718300  1
  C  303  1  0.22116900  0.40142500  0.36240900  1
  C  304  1  0.18471500  0.41754900  0.36278700  1
  C  305  1  0.14873600  0.41457400  0.34721600  1
  C  306  1  0.15205900  0.39579700  0.33035800  1
  C  307  1  0.18876500  0.37959400  0.33018900  1
  C  308  1  0.25618000  0.33859200  0.33529100  1
  C  309  1  0.26167400  0.35142700  0.37511500  1
  C  310  1  0.22589200  0.35378000  0.39123300  1
  C  311  1  0.22971100  0.34646000  0.41464200  1
  C  312  1  0.26908400  0.33535200  0.42292400  1
  C  313  1  0.30293200  0.33016400  0.40654700  1
  C  314  1  0.29883500  0.33765100  0.38313400  1
  C  315  1  0.29099300  0.32833800  0.32155400  1
  C  316  1  0.28606800  0.30614200  0.30913800  1
  C  317  1  0.24615700  0.29240500  0.31015600  1
  C  318  1  0.21187300  0.30187400  0.32449800  1
  C  319  1  0.21707400  0.32399300  0.33686100  1
  C  336  1  0.27441500  0.32944700  0.44631700  1
  C  337  1  0.40963900  0.42648700  0.32713200  1
  C  340  1  0.11088100  0.42894600  0.35019600  1
  C  342  1  0.23935700  0.27048000  0.29781200  1
  C  344  1  0.14696100  0.41047300  0.68790700  1
  C  345  1  0.17655200  0.40174000  0.70522100  1
  C  346  1  0.21220900  0.38601000  0.69958600  1
  C  347  1  0.21991600  0.37754800  0.67650400  1
  C  348  1  0.19075500  0.38724300  0.65924300  1
  C  349  1  0.15509500  0.40295000  0.66472000  1
  C  350  1  0.26144800  0.36209100  0.67084700  1
  C  351  1  0.29905900  0.38101900  0.67400000  1
  C  352  1  0.30121400  0.40159200  0.65878000  1
  C  353  1  0.33777900  0.41763700  0.65840900  1
  C  354  1  0.37368700  0.41460800  0.67401200  1
  C  355  1  0.37018200  0.39586900  0.69089900  1
  C  356  1  0.33338100  0.37972700  0.69104600  1
  C  357  1  0.26592600  0.33870500  0.68573100  1
  C  358  1  0.26095200  0.35163600  0.64592300  1
  C  359  1  0.29705600  0.35395400  0.62998900  1
  C  360  1  0.29370600  0.34660400  0.60657200  1
  C  361  1  0.25450300  0.33547800  0.59813800  1
  C  362  1  0.22029200  0.33031400  0.61429500  1
  C  363  1  0.22389000  0.33790000  0.63770700  1
  C  364  1  0.23091400  0.32841500  0.69930700  1
  C  365  1  0.23567600  0.30619700  0.71171100  1
  C  366  1  0.27562900  0.29248600  0.71085700  1
  C  367  1  0.31012600  0.30200400  0.69668100  1
  C  368  1  0.30508600  0.32413700  0.68432300  1
  C  385  1  0.25000200  0.32939400  0.57478400  1
  C  386  1  0.11263500  0.42670600  0.69370300  1
  C  389  1  0.41168700  0.42884900  0.67099000  1
  C  391  1  0.28229500  0.27054800  0.72320800  1
  C  393  1  0.26089500  0.08743000  0.03520600  1
  C  394  1  0.25332200  0.06518700  0.02295900  1
  C  395  1  0.25365700  0.06521300  0.99808400  1
  C  396  1  0.26036200  0.08705400  0.98533200  1
  C  397  1  0.26775000  0.10895000  0.99780000  1
  C  398  1  0.26787600  0.10914700  0.02230000  1
  C  400  1  0.23954700  0.02220300  0.99781400  1
  C  401  1  0.23901900  0.02198300  0.02225800  1
  C  410  1  0.76056700  0.84373900  0.98569400  1
  C  411  1  0.75367700  0.86601700  0.99799400  1
  C  412  1  0.75393300  0.86592000  0.02286900  1
  C  413  1  0.75987500  0.84398200  0.03558000  1
  C  414  1  0.76651500  0.82204800  0.02305600  1
  C  415  1  0.76672200  0.82191800  0.99855300  1
  C  417  1  0.74131400  0.90907000  0.02323100  1
  C  418  1  0.74086800  0.90936300  0.99878800  1
  C  427  1  0.76074400  0.58765500  0.53522000  1
  C  428  1  0.75333700  0.56540200  0.52296300  1
  C  429  1  0.75376900  0.56543400  0.49808700  1
  C  430  1  0.76042400  0.58728900  0.48534900  1
  C  431  1  0.76764800  0.60919400  0.49782900  1
  C  432  1  0.76765800  0.60938600  0.52232800  1
  C  434  1  0.73987700  0.52240300  0.49779300  1
  C  435  1  0.73926200  0.52217600  0.52223800  1
  C  444  1  0.26052100  0.34349000  0.48567500  1
  C  445  1  0.25371900  0.36577800  0.49797200  1
  C  446  1  0.25400100  0.36567900  0.52284900  1
  C  447  1  0.25988500  0.34373300  0.53555400  1
  C  448  1  0.26644100  0.32179000  0.52303100  1
  C  449  1  0.26661500  0.32166200  0.49852800  1
  C  451  1  0.24152200  0.40884100  0.52321500  1
  C  452  1  0.24105700  0.40913400  0.49877000  1
  C  461  1  0.04720400  0.98382400  0.18730200  1
  C  462  1  0.01036400  0.98987800  0.17285900  1
  C  463  1  0.97207200  0.97438100  0.17276100  1
  C  464  1  0.97008100  0.95297000  0.18673900  1
  C  465  1  0.00657500  0.94778100  0.20139900  1
  C  466  1  0.04455200  0.96290300  0.20165200  1
  C  468  1  0.93654600  0.00113800  0.14555000  1
  C  469  1  0.97416300  0.01633900  0.14545000  1
  C  478  1  0.47530200  0.98379800  0.83343100  1
  C  479  1  0.51211600  0.98995500  0.84785700  1
  C  480  1  0.55038700  0.97444500  0.84810000  1
  C  481  1  0.55238400  0.95291900  0.83428300  1
  C  482  1  0.51593300  0.94763300  0.81962600  1
  C  483  1  0.47797100  0.96276400  0.81923400  1
  C  485  1  0.58585300  0.00140200  0.87515300  1
  C  486  1  0.54825100  0.01661600  0.87511200  1
  C  495  1  0.97704800  0.94678200  0.84015500  1
  C  496  1  0.01108200  0.94394200  0.85718400  1
  C  497  1  0.04857300  0.96002900  0.85702200  1
  C  498  1  0.05288100  0.97880100  0.84018300  1
  C  499  1  0.01846100  0.98151500  0.82360200  1
  C  500  1  0.98129900  0.96582500  0.82359400  1
  C  502  1  0.07885300  0.93934200  0.89009100  1
  C  503  1  0.04222600  0.92342400  0.89037800  1
  C  512  1  0.54537000  0.94710400  0.18061700  1
  C  513  1  0.51132300  0.94426200  0.16359600  1
  C  514  1  0.47383300  0.96035100  0.16376500  1
  C  515  1  0.46952900  0.97911600  0.18060900  1
  C  516  1  0.50398300  0.98185200  0.19716500  1
  C  517  1  0.54115000  0.96616600  0.19716500  1
  C  519  1  0.44351700  0.93965300  0.13071000  1
  C  520  1  0.48013800  0.92373100  0.13042000  1
  C  529  1  0.54724200  0.48377100  0.68728000  1
  C  530  1  0.51036800  0.48981100  0.67285100  1
  C  531  1  0.47212300  0.47427800  0.67274000  1
  C  532  1  0.47020200  0.45284300  0.68668900  1
  C  533  1  0.50669300  0.44769100  0.70136200  1
  C  534  1  0.54462900  0.46284500  0.70162500  1
  C  536  1  0.43650100  0.50103400  0.64556200  1
  C  537  1  0.47406400  0.51627500  0.64548200  1
  C  546  1  0.97526800  0.48375200  0.33348100  1
  C  547  1  0.01212000  0.48988900  0.34788800  1
  C  548  1  0.05034500  0.47434200  0.34813400  1
  C  549  1  0.05226200  0.45279600  0.33434100  1
  C  550  1  0.01579500  0.44754600  0.31968100  1
  C  551  1  0.97788100  0.46271300  0.31928900  1
  C  553  1  0.08593700  0.50129400  0.37514600  1
  C  554  1  0.04839100  0.51655000  0.37509500  1
  C  563  1  0.47699200  0.44680900  0.34050800  1
  C  564  1  0.51109700  0.44388300  0.35748800  1
  C  565  1  0.54863300  0.45994300  0.35733300  1
  C  566  1  0.55292800  0.47877000  0.34055000  1
  C  567  1  0.51839700  0.48159700  0.32404800  1
  C  568  1  0.48120000  0.46593500  0.32402900  1
  C  570  1  0.57901200  0.43910400  0.39029200  1
  C  571  1  0.54234100  0.42321300  0.39057100  1
  C  580  1  0.04542500  0.44711100  0.68026800  1
  C  581  1  0.01132100  0.44419300  0.66328600  1
  C  582  1  0.97379600  0.46025600  0.66344300  1
  C  583  1  0.96949900  0.47907000  0.68023800  1
  C  584  1  0.00402300  0.48189300  0.69674200  1
  C  585  1  0.04123800  0.46624200  0.69674200  1
  C  587  1  0.94340700  0.43942400  0.63048200  1
  C  588  1  0.98006400  0.42352800  0.63020300  1
  C  597  1  0.26553500  0.23880600  0.27290000  1
  C  598  1  0.24022500  0.23733300  0.25195900  1
  C  599  1  0.23979700  0.21503500  0.23885300  1
  C  600  1  0.26426400  0.19414500  0.24612100  1
  C  601  1  0.29033700  0.19640500  0.26647100  1
  C  602  1  0.29094100  0.21823100  0.27959300  1
  C  604  1  0.19280400  0.23376200  0.21036700  1
  C  605  1  0.19304000  0.25565200  0.22311000  1
  C  614  1  0.25595900  0.23884800  0.74805300  1
  C  615  1  0.28112300  0.23738600  0.76904400  1
  C  616  1  0.28155500  0.21507700  0.78213400  1
  C  617  1  0.25723000  0.19415800  0.77480800  1
  C  618  1  0.23125800  0.19641400  0.75441800  1
  C  619  1  0.23066000  0.21824900  0.74131000  1
  C  621  1  0.32830900  0.23383100  0.81071100  1
  C  622  1  0.32806100  0.25573600  0.79798500  1
  C  631  1  0.76535200  0.69285300  0.74748800  1
  C  632  1  0.74028900  0.69429200  0.76851000  1
  C  633  1  0.73992600  0.71658600  0.78162000  1
  C  634  1  0.76423700  0.73750200  0.77428200  1
  C  635  1  0.79012300  0.73527100  0.75386200  1
  C  636  1  0.79064800  0.71345000  0.74073400  1
  C  638  1  0.69331900  0.69780600  0.81024900  1
  C  639  1  0.69352200  0.67591000  0.79751100  1
  C  648  1  0.75611100  0.69286800  0.27348300  1
  C  649  1  0.78101100  0.69429500  0.25240300  1
  C  650  1  0.78138400  0.71660600  0.23931600  1
  C  651  1  0.75727300  0.73756200  0.24673300  1
  C  652  1  0.73149800  0.73533200  0.26719300  1
  C  653  1  0.73096200  0.71349400  0.28030200  1
  C  655  1  0.82765500  0.69778600  0.21056400  1
  C  656  1  0.82744500  0.67587700  0.22327900  1
  N  399  1  0.24673800  0.04369000  0.98672400  1
  N  402  1  0.24591800  0.04327900  0.03401200  1
  N  408  1  0.25998500  0.08725600  0.05847000  1
  N  409  1  0.26165400  0.08604900  0.96211000  1
  N  416  1  0.74772800  0.88748300  0.03427400  1
  N  419  1  0.74706200  0.88802900  0.98698700  1
  N  425  1  0.75973800  0.84396800  0.96242700  1
  N  426  1  0.76124600  0.84494800  0.05880800  1
  N  433  1  0.74700500  0.54390400  0.48671500  1
  N  436  1  0.74600300  0.54347900  0.53400400  1
  N  442  1  0.75973200  0.58748300  0.55848200  1
  N  443  1  0.76181500  0.58629900  0.46213100  1
  N  450  1  0.24787700  0.38724700  0.53425500  1
  N  453  1  0.24716800  0.38779400  0.48696800  1
  N  459  1  0.25965400  0.34371700  0.46241100  1
  N  460  1  0.26124600  0.34469900  0.55878000  1
  N  467  1  0.93695200  0.98094200  0.15917400  1
  N  470  1  0.00962500  0.01036700  0.15905800  1
  N  476  1  0.08344500  0.99796400  0.18854400  1
  N  477  1  0.93444800  0.93820100  0.18787200  1
  N  484  1  0.58547000  0.98110100  0.86167100  1
  N  487  1  0.51282500  0.01054900  0.86151600  1
  N  493  1  0.43900400  0.99789100  0.83211000  1
  N  494  1  0.58796700  0.93810400  0.83327000  1
  N  501  1  0.08061300  0.95692200  0.87352100  1
  N  504  1  0.00969100  0.92617900  0.87408900  1
  N  510  1  0.94126900  0.93217000  0.84102100  1
  N  511  1  0.08787300  0.99393100  0.84145500  1
  N  518  1  0.44177600  0.95723800  0.14727500  1
  N  521  1  0.51269100  0.92649100  0.14670100  1
  N  527  1  0.58111200  0.93246400  0.17976500  1
  N  528  1  0.43453600  0.99424000  0.17934400  1
  N  535  1  0.43697700  0.48081900  0.65916300  1
  N  538  1  0.50955000  0.51032100  0.65908100  1
  N  544  1  0.58348000  0.49792000  0.68854100  1
  N  545  1  0.43458600  0.43806100  0.68782900  1
  N  552  1  0.08546600  0.48097700  0.36168800  1
  N  555  1  0.01292800  0.51050300  0.36151900  1
  N  561  1  0.93898300  0.49786100  0.33214600  1
  N  562  1  0.08782600  0.43796600  0.33333333  1
  N  569  1  0.58074000  0.45674600  0.37378000  1
  N  572  1  0.50973500  0.42605900  0.37433200  1
  N  578  1  0.44118400  0.43221400  0.34135700  1
  N  579  1  0.58795400  0.49387800  0.34182600  1
  N  586  1  0.94168300  0.45706500  0.64699600  1
  N  589  1  0.01267100  0.42636600  0.64644200  1
  N  595  1  0.08119900  0.43248800  0.67943100  1
  N  596  1  0.93445600  0.49416700  0.67897600  1
  N  603  1  0.21625100  0.21450200  0.21863000  1
  N  606  1  0.21672000  0.25682700  0.24328400  1
  N  612  1  0.26934500  0.25933900  0.28566400  1
  N  613  1  0.26695000  0.17301100  0.23405700  1
  N  620  1  0.30498000  0.21455300  0.80239500  1
  N  623  1  0.30450400  0.25689800  0.77777100  1
  N  629  1  0.25221200  0.25938800  0.73527900  1
  N  630  1  0.25458400  0.17299900  0.78684400  1
  N  637  1  0.71660400  0.71709100  0.80191600  1
  N  640  1  0.71697000  0.67476700  0.77726200  1
  N  646  1  0.76917300  0.67230600  0.73474300  1
  N  647  1  0.76703400  0.75860700  0.78638200  1
  N  654  1  0.80455000  0.71710000  0.21897200  1
  N  657  1  0.80415000  0.67474500  0.24357700  1
  N  663  1  0.75234300  0.67230800  0.28622700  1
  N  664  1  0.75450700  0.75868400  0.23464600  1
  O  406  1  0.23173000  0.00076500  0.03380300  1
  O  423  1  0.73437700  0.93068600  0.98728900  1
  O  440  1  0.73204400  0.50094400  0.53377000  1
  O  457  1  0.23462600  0.43046400  0.48727400  1
  O  474  1  0.97464000  0.03674100  0.13209400  1
  O  491  1  0.54775600  0.03712200  0.88832200  1
  O  508  1  0.03967500  0.90561200  0.90670500  1
  O  525  1  0.48266400  0.90590800  0.11410200  1
  O  542  1  0.47447000  0.53669800  0.63215300  1
  O  559  1  0.04798100  0.53707500  0.38828100  1
  O  576  1  0.53982100  0.40534300  0.40684200  1
  O  593  1  0.98257000  0.40565200  0.61393800  1
  O  610  1  0.17031900  0.27532300  0.21513600  1
  O  627  1  0.35065300  0.27542500  0.80601300  1
  O  644  1  0.67099500  0.65620800  0.80556300  1
  O  661  1  0.84981200  0.65615000  0.21515900  1
