# generated using pymatgen
data_VH10C15NO5
_symmetry_space_group_name_H-M   'P 1'
_cell_length_a   7.18355000
_cell_length_b   14.89023000
_cell_length_c   21.60459000
_cell_angle_alpha   106.48433000
_cell_angle_beta   90.00000000
_cell_angle_gamma   90.00000000
_symmetry_Int_Tables_number   1
_chemical_formula_structural   VH10C15NO5
_chemical_formula_sum   'V4 H40 C60 N4 O20'
_cell_volume   2215.94350422
_cell_formula_units_Z   4
loop_
 _symmetry_equiv_pos_site_id
 _symmetry_equiv_pos_as_xyz
  1  'x, y, z'
loop_
 _atom_site_type_symbol
 _atom_site_label
 _atom_site_symmetry_multiplicity
 _atom_site_fract_x
 _atom_site_fract_y
 _atom_site_fract_z
 _atom_site_occupancy
  V  V0  1  0.19662000  0.99170000  0.25322000  1
  V  V1  1  0.80338000  0.00830000  0.74678000  1
  V  V2  1  0.69662000  0.00830000  0.24678000  1
  V  V3  1  0.30338000  0.99170000  0.75322000  1
  H  H4  1  0.69009000  0.00727000  0.05195000  1
  H  H5  1  0.30991000  0.99273000  0.94805000  1
  H  H6  1  0.19009000  0.99273000  0.44805000  1
  H  H7  1  0.80991000  0.00727000  0.55195000  1
  H  H8  1  0.70947000  0.00475000  0.93917000  1
  H  H9  1  0.29052000  0.99526000  0.06083000  1
  H  H10  1  0.20947000  0.99526000  0.56083000  1
  H  H11  1  0.79053000  0.00474000  0.43917000  1
  H  H12  1  0.07687000  0.38510000  0.62335000  1
  H  H13  1  0.99755000  0.61607000  0.37557000  1
  H  H14  1  0.57688000  0.61489000  0.87665000  1
  H  H15  1  0.49754000  0.38393000  0.12443000  1
  H  H16  1  0.00553000  0.26305000  0.41602000  1
  H  H17  1  0.99028000  0.73674000  0.58448000  1
  H  H18  1  0.50554000  0.73695000  0.08398000  1
  H  H19  1  0.49026000  0.26326000  0.91552000  1
  H  H20  1  0.95406000  0.30184000  0.23097000  1
  H  H21  1  0.03786000  0.69812000  0.76962000  1
  H  H22  1  0.45405000  0.69815000  0.26903000  1
  H  H23  1  0.53787000  0.30188000  0.73038000  1
  H  H24  1  0.06327000  0.31985000  0.51198000  1
  H  H25  1  0.01282000  0.68136000  0.48679000  1
  H  H26  1  0.56327000  0.68014000  0.98802000  1
  H  H27  1  0.51281000  0.31864000  0.01321000  1
  H  H28  1  0.96096000  0.44721000  0.71786000  1
  H  H29  1  0.04669000  0.48836000  0.82599000  1
  H  H30  1  0.90166000  0.58314000  0.81784000  1
  H  H31  1  0.15437000  0.59394000  0.81974000  1
  H  H32  1  0.86147000  0.54882000  0.28498000  1
  H  H33  1  0.93043000  0.51155000  0.17493000  1
  H  H34  1  0.80473000  0.41232000  0.18567000  1
  H  H35  1  0.05717000  0.40941000  0.17868000  1
  H  H36  1  0.46097000  0.55279000  0.78214000  1
  H  H37  1  0.54668000  0.51164000  0.67401000  1
  H  H38  1  0.40166000  0.41686000  0.68216000  1
  H  H39  1  0.65436000  0.40605000  0.68026000  1
  H  H40  1  0.36147000  0.45118000  0.21502000  1
  H  H41  1  0.43043000  0.48845000  0.32507000  1
  H  H42  1  0.30473000  0.58768000  0.31433000  1
  H  H43  1  0.55717000  0.59059000  0.32132000  1
  C  C44  1  0.47673000  0.82586000  0.20562000  1
  C  C45  1  0.52331000  0.17419000  0.79414000  1
  C  C46  1  0.97673000  0.17414000  0.29437000  1
  C  C47  1  0.02331000  0.82581000  0.70586000  1
  C  C48  1  0.47723000  0.99779000  0.36496000  1
  C  C49  1  0.52277000  0.00221000  0.63504000  1
  C  C50  1  0.97723000  0.00221000  0.13504000  1
  C  C51  1  0.02277000  0.99779000  0.86496000  1
  C  C52  1  0.82638000  0.00419000  0.03002000  1
  C  C53  1  0.17361000  0.99580000  0.96998000  1
  C  C54  1  0.32638000  0.99581000  0.46997000  1
  C  C55  1  0.67361000  0.00420000  0.53002000  1
  C  C56  1  0.83776000  0.00257000  0.96502000  1
  C  C57  1  0.16223000  0.99743000  0.03498000  1
  C  C58  1  0.33776000  0.99743000  0.53498000  1
  C  C59  1  0.66223000  0.00257000  0.46502000  1
  C  C60  1  0.01156000  0.99833000  0.93400000  1
  C  C61  1  0.98843000  0.00166000  0.06600000  1
  C  C62  1  0.51156000  0.00167000  0.56600000  1
  C  C63  1  0.48843000  0.99834000  0.43400000  1
  C  C64  1  0.01689000  0.72417000  0.67829000  1
  C  C65  1  0.98462000  0.27571000  0.32201000  1
  C  C66  1  0.51689000  0.27583000  0.82171000  1
  C  C67  1  0.48462000  0.72428000  0.17799000  1
  C  C68  1  0.03483000  0.56764000  0.69195000  1
  C  C69  1  0.97044000  0.43227000  0.30835000  1
  C  C70  1  0.53484000  0.43236000  0.80805000  1
  C  C71  1  0.47044000  0.56773000  0.19165000  1
  C  C72  1  0.03139000  0.66570000  0.71811000  1
  C  C73  1  0.96949000  0.33423000  0.28226000  1
  C  C74  1  0.53140000  0.33430000  0.78189000  1
  C  C75  1  0.46948000  0.66577000  0.21773000  1
  C  C76  1  0.00554000  0.68682000  0.61169000  1
  C  C77  1  0.00074000  0.31302000  0.38853000  1
  C  C78  1  0.50554000  0.31318000  0.88831000  1
  C  C79  1  0.50075000  0.68698000  0.11148000  1
  C  C80  1  0.01707000  0.58930000  0.58231000  1
  C  C81  1  0.00487000  0.41078000  0.41759000  1
  C  C82  1  0.51707000  0.41070000  0.91769000  1
  C  C83  1  0.50488000  0.58922000  0.08241000  1
  C  C84  1  0.03332000  0.52957000  0.62333000  1
  C  C85  1  0.99027000  0.47055000  0.37657000  1
  C  C86  1  0.53332000  0.47043000  0.87667000  1
  C  C87  1  0.49027000  0.52945000  0.12343000  1
  C  C88  1  0.01370000  0.54972000  0.51345000  1
  C  C89  1  0.02029000  0.45061000  0.48622000  1
  C  C90  1  0.51370000  0.45028000  0.98655000  1
  C  C91  1  0.52029000  0.54939000  0.01378000  1
  C  C92  1  0.04512000  0.39458000  0.52847000  1
  C  C93  1  0.00759000  0.60612000  0.47084000  1
  C  C94  1  0.54512000  0.60542000  0.97153000  1
  C  C95  1  0.50759000  0.39388000  0.02916000  1
  C  C96  1  0.05267000  0.43303000  0.59486000  1
  C  C97  1  0.99801000  0.56761000  0.40452000  1
  C  C98  1  0.55268000  0.56697000  0.90514000  1
  C  C99  1  0.49801000  0.43239000  0.09548000  1
  C  C100  1  0.03528000  0.54583000  0.80277000  1
  C  C101  1  0.93470000  0.45385000  0.19810000  1
  C  C102  1  0.53528000  0.45417000  0.69723000  1
  C  C103  1  0.43470000  0.54615000  0.30190000  1
  N  N104  1  0.04044000  0.50692000  0.73322000  1
  N  N105  1  0.94949000  0.49285000  0.26745000  1
  N  N106  1  0.54044000  0.49308000  0.76678000  1
  N  N107  1  0.44949000  0.50715000  0.23255000  1
  O  O108  1  0.63819000  0.00211000  0.33586000  1
  O  O109  1  0.36181000  0.99789000  0.66414000  1
  O  O110  1  0.13819000  0.99789000  0.16414000  1
  O  O111  1  0.86181000  0.00211000  0.83586000  1
  O  O112  1  0.30592000  0.86196000  0.21753000  1
  O  O113  1  0.69408000  0.13804000  0.78247000  1
  O  O114  1  0.80592000  0.13804000  0.28247000  1
  O  O115  1  0.19408000  0.86196000  0.71753000  1
  O  O116  1  0.30832000  0.99324000  0.33869000  1
  O  O117  1  0.69168000  0.00676000  0.66131000  1
  O  O118  1  0.80832000  0.00676000  0.16131000  1
  O  O119  1  0.19168000  0.99324000  0.83869000  1
  O  O120  1  0.14043000  0.13010000  0.28617000  1
  O  O121  1  0.85957000  0.86990000  0.71383000  1
  O  O122  1  0.64043000  0.86990000  0.21383000  1
  O  O123  1  0.35957000  0.13010000  0.78617000  1
  O  O124  1  0.47241000  0.04475000  0.23263000  1
  O  O125  1  0.52759000  0.95525000  0.76737000  1
  O  O126  1  0.97241000  0.95525000  0.26737000  1
  O  O127  1  0.02759000  0.04475000  0.73263000  1
