# generated using pymatgen
data_Ni2H25C32N4O9
_symmetry_space_group_name_H-M   'P 1'
_cell_length_a   10.31200000
_cell_length_b   10.31659000
_cell_length_c   18.65218000
_cell_angle_alpha   100.80949000
_cell_angle_beta   100.82586000
_cell_angle_gamma   95.87682000
_symmetry_Int_Tables_number   1
_chemical_formula_structural   Ni2H25C32N4O9
_chemical_formula_sum   'Ni4 H50 C64 N8 O18'
_cell_volume   1894.83256332
_cell_formula_units_Z   2
loop_
 _symmetry_equiv_pos_site_id
 _symmetry_equiv_pos_as_xyz
  1  'x, y, z'
loop_
 _atom_site_type_symbol
 _atom_site_label
 _atom_site_symmetry_multiplicity
 _atom_site_fract_x
 _atom_site_fract_y
 _atom_site_fract_z
 _atom_site_occupancy
  Ni  Ni0  1  0.00853000  0.25158000  0.78407000  1
  Ni  Ni1  1  0.74787000  0.99110000  0.71532000  1
  Ni  Ni2  1  0.99073000  0.74993000  0.21946000  1
  Ni  Ni3  1  0.24981000  0.00931000  0.28203000  1
  H  H4  1  0.22509000  0.49777000  0.14947000  1
  H  H5  1  0.18920000  0.34837000  0.02366000  1
  H  H6  1  0.18514000  0.07050000  0.13247000  1
  H  H7  1  0.12508000  0.04778000  0.01724000  1
  H  H8  1  0.26836000  0.52278000  0.28703000  1
  H  H9  1  0.27260000  0.31555000  0.34171000  1
  H  H10  1  0.91437000  0.57316000  0.07290000  1
  H  H11  1  0.88500000  0.40341000  0.96362000  1
  H  H12  1  0.72606000  0.13436000  0.96183000  1
  H  H13  1  0.94761000  0.49691000  0.28398000  1
  H  H14  1  0.88909000  0.24972000  0.23265000  1
  H  H15  1  0.83788000  0.16343000  0.09556000  1
  H  H16  1  0.50039000  0.77518000  0.34945000  1
  H  H17  1  0.64879000  0.80997000  0.47609000  1
  H  H18  1  0.92843000  0.81291000  0.36833000  1
  H  H19  1  0.94937000  0.87505000  0.48204000  1
  H  H20  1  0.47735000  0.73106000  0.21198000  1
  H  H21  1  0.68580000  0.72608000  0.15842000  1
  H  H22  1  0.42860000  0.08650000  0.42796000  1
  H  H23  1  0.59777000  0.11624000  0.53602000  1
  H  H24  1  0.86742000  0.27522000  0.53901000  1
  H  H25  1  0.50125000  0.05177000  0.21606000  1
  H  H26  1  0.74880000  0.11048000  0.26626000  1
  H  H27  1  0.83721000  0.16273000  0.40334000  1
  H  H28  1  0.77376000  0.50489000  0.85140000  1
  H  H29  1  0.81258000  0.65163000  0.97659000  1
  H  H30  1  0.82288000  0.93283000  0.86852000  1
  H  H31  1  0.88184000  0.95227000  0.98470000  1
  H  H32  1  0.73117000  0.47969000  0.71387000  1
  H  H33  1  0.73044000  0.68758000  0.65936000  1
  H  H34  1  0.08281000  0.42340000  0.92893000  1
  H  H35  1  0.11090000  0.59493000  0.03691000  1
  H  H36  1  0.27493000  0.86110000  0.03836000  1
  H  H37  1  0.05302000  0.49438000  0.71677000  1
  H  H38  1  0.11270000  0.74207000  0.76667000  1
  H  H39  1  0.16351000  0.83139000  0.90329000  1
  H  H40  1  0.49524000  0.22666000  0.64909000  1
  H  H41  1  0.34736000  0.18753000  0.52353000  1
  H  H42  1  0.06714000  0.17745000  0.63206000  1
  H  H43  1  0.04675000  0.11780000  0.51551000  1
  H  H44  1  0.52061000  0.26916000  0.78655000  1
  H  H45  1  0.31273000  0.26972000  0.84119000  1
  H  H46  1  0.57699000  0.91740000  0.57120000  1
  H  H47  1  0.40388000  0.88899000  0.46327000  1
  H  H48  1  0.13986000  0.72313000  0.46361000  1
  H  H49  1  0.50679000  0.94735000  0.78357000  1
  H  H50  1  0.25893000  0.88816000  0.73398000  1
  H  H51  1  0.16927000  0.83697000  0.59707000  1
  H  H52  1  0.99349000  0.00642000  0.74852000  1
  H  H53  1  0.00144000  0.99891000  0.25067000  1
  C  C54  1  0.11586000  0.12260000  0.91489000  1
  C  C55  1  0.77248000  0.19606000  0.86112000  1
  C  C56  1  0.22760000  0.40927000  0.17355000  1
  C  C57  1  0.20249000  0.28066000  0.12792000  1
  C  C58  1  0.17655000  0.25920000  0.04652000  1
  C  C59  1  0.20370000  0.17259000  0.16385000  1
  C  C60  1  0.13957000  0.14053000  0.99802000  1
  C  C61  1  0.25180000  0.42394000  0.25106000  1
  C  C62  1  0.25334000  0.31098000  0.28185000  1
  C  C63  1  0.86624000  0.36196000  0.07107000  1
  C  C64  1  0.90520000  0.49689000  0.10541000  1
  C  C65  1  0.84289000  0.32778000  0.98989000  1
  C  C66  1  0.77627000  0.21543000  0.94282000  1
  C  C67  1  0.92253000  0.45497000  0.22425000  1
  C  C68  1  0.88846000  0.31832000  0.19491000  1
  C  C69  1  0.85867000  0.27054000  0.11789000  1
  C  C70  1  0.87681000  0.88644000  0.58489000  1
  C  C71  1  0.80268000  0.22808000  0.63886000  1
  C  C72  1  0.58945000  0.77206000  0.32586000  1
  C  C73  1  0.71765000  0.79666000  0.37201000  1
  C  C74  1  0.73822000  0.82281000  0.45342000  1
  C  C75  1  0.82651000  0.79486000  0.33661000  1
  C  C76  1  0.85706000  0.86044000  0.50173000  1
  C  C77  1  0.57586000  0.74755000  0.24840000  1
  C  C78  1  0.68949000  0.74550000  0.21819000  1
  C  C79  1  0.63929000  0.13439000  0.42868000  1
  C  C80  1  0.50412000  0.09528000  0.39493000  1
  C  C81  1  0.67361000  0.15818000  0.50981000  1
  C  C82  1  0.78541000  0.22504000  0.55730000  1
  C  C83  1  0.54416000  0.07715000  0.27569000  1
  C  C84  1  0.68102000  0.11134000  0.30446000  1
  C  C85  1  0.72994000  0.14167000  0.38141000  1
  C  C86  1  0.89413000  0.87555000  0.08655000  1
  C  C87  1  0.22400000  0.80335000  0.13913000  1
  C  C88  1  0.77327000  0.59345000  0.82733000  1
  C  C89  1  0.80065000  0.72200000  0.87313000  1
  C  C90  1  0.82630000  0.74163000  0.95451000  1
  C  C91  1  0.80193000  0.83048000  0.83735000  1
  C  C92  1  0.86523000  0.85942000  0.00355000  1
  C  C93  1  0.74934000  0.57866000  0.74984000  1
  C  C94  1  0.74956000  0.69180000  0.71919000  1
  C  C95  1  0.13297000  0.63384000  0.92943000  1
  C  C96  1  0.09328000  0.49868000  0.89594000  1
  C  C97  1  0.15530000  0.66927000  0.01064000  1
  C  C98  1  0.22313000  0.78121000  0.05755000  1
  C  C99  1  0.07814000  0.53770000  0.77632000  1
  C  C100  1  0.11266000  0.67445000  0.80499000  1
  C  C101  1  0.14211000  0.72387000  0.88192000  1
  C  C102  1  0.12471000  0.10599000  0.41391000  1
  C  C103  1  0.19631000  0.77410000  0.36217000  1
  C  C104  1  0.40657000  0.22719000  0.67309000  1
  C  C105  1  0.27788000  0.19976000  0.62729000  1
  C  C106  1  0.25765000  0.17378000  0.54588000  1
  C  C107  1  0.16956000  0.19864000  0.66317000  1
  C  C108  1  0.13975000  0.13456000  0.49682000  1
  C  C109  1  0.42151000  0.25109000  0.75060000  1
  C  C110  1  0.30842000  0.25082000  0.78134000  1
  C  C111  1  0.36674000  0.86722000  0.57120000  1
  C  C112  1  0.50195000  0.90699000  0.60436000  1
  C  C113  1  0.33063000  0.84438000  0.49012000  1
  C  C114  1  0.21874000  0.77531000  0.44378000  1
  C  C115  1  0.46324000  0.92224000  0.72406000  1
  C  C116  1  0.32637000  0.88783000  0.69557000  1
  C  C117  1  0.27675000  0.85825000  0.61869000  1
  N  N118  1  0.23001000  0.18684000  0.23821000  1
  N  N119  1  0.93041000  0.54296000  0.17961000  1
  N  N120  1  0.81326000  0.76857000  0.26233000  1
  N  N121  1  0.45695000  0.06958000  0.32083000  1
  N  N122  1  0.77470000  0.81574000  0.76296000  1
  N  N123  1  0.06939000  0.45121000  0.82184000  1
  N  N124  1  0.18438000  0.22577000  0.73756000  1
  N  N125  1  0.54960000  0.93092000  0.67844000  1
  O  O126  1  0.11587000  0.23238000  0.89022000  1
  O  O127  1  0.83145000  0.28755000  0.83682000  1
  O  O128  1  0.09850000  0.00654000  0.87621000  1
  O  O129  1  0.70789000  0.08417000  0.82173000  1
  O  O130  1  0.76804000  0.88421000  0.61073000  1
  O  O131  1  0.70965000  0.16864000  0.66196000  1
  O  O132  1  0.99392000  0.90777000  0.62254000  1
  O  O133  1  0.91439000  0.29210000  0.67902000  1
  O  O134  1  0.88322000  0.76822000  0.11246000  1
  O  O135  1  0.16172000  0.71403000  0.16342000  1
  O  O136  1  0.92797000  0.99293000  0.12472000  1
  O  O137  1  0.28822000  0.91581000  0.17781000  1
  O  O138  1  0.23310000  0.11667000  0.38889000  1
  O  O139  1  0.28529000  0.83766000  0.33812000  1
  O  O140  1  0.00780000  0.07267000  0.37480000  1
  O  O141  1  0.08448000  0.70846000  0.32342000  1
  O  O142  1  0.92959000  0.06977000  0.74956000  1
  O  O143  1  0.06484000  0.93499000  0.25083000  1
