# generated using pymatgen
data_CeH7(C5O2)3
_symmetry_space_group_name_H-M   'P 1'
_cell_length_a   14.03888342
_cell_length_b   14.03994000
_cell_length_c   14.60658000
_cell_angle_alpha   85.50808000
_cell_angle_beta   85.54514453
_cell_angle_gamma   60.13863224
_symmetry_Int_Tables_number   1
_chemical_formula_structural   CeH7(C5O2)3
_chemical_formula_sum   'Ce4 H28 C60 O24'
_cell_volume   2486.62851125
_cell_formula_units_Z   4
loop_
 _symmetry_equiv_pos_site_id
 _symmetry_equiv_pos_as_xyz
  1  'x, y, z'
loop_
 _atom_site_type_symbol
 _atom_site_label
 _atom_site_symmetry_multiplicity
 _atom_site_fract_x
 _atom_site_fract_y
 _atom_site_fract_z
 _atom_site_occupancy
  Ce  Ce1  1  0.38626000  0.95853000  0.51616000  1.0
  Ce  Ce2  1  0.04142000  0.61341000  0.98411000  1.0
  Ce  Ce3  1  0.61374000  0.04147000  0.48384000  1.0
  Ce  Ce4  1  0.95858000  0.38659000  0.01589000  1.0
  H  H1  1  0.61992000  0.66565000  0.56556000  1.0
  H  H2  1  0.82167000  0.75070000  0.70991000  1.0
  H  H3  1  0.82781000  0.44403000  0.77746000  1.0
  H  H4  1  0.52831000  0.56739000  0.61128000  1.0
  H  H5  1  0.86227000  0.32438000  0.66969000  1.0
  H  H6  1  0.50119000  0.42170000  0.55215000  1.0
  H  H7  1  0.83395000  0.17972000  0.60995000  1.0
  H  H8  1  0.33473000  0.37972000  0.93459000  1.0
  H  H9  1  0.25011000  0.17773000  0.79016000  1.0
  H  H10  1  0.55624000  0.17237000  0.72264000  1.0
  H  H11  1  0.43339000  0.47161000  0.88868000  1.0
  H  H12  1  0.67586000  0.13714000  0.83139000  1.0
  H  H13  1  0.57940000  0.49827000  0.94810000  1.0
  H  H14  1  0.82069000  0.16518000  0.89135000  1.0
  H  H15  1  0.38008000  0.33434000  0.43444000  1.0
  H  H16  1  0.17833000  0.24929000  0.29009000  1.0
  H  H17  1  0.17219000  0.55597000  0.22254000  1.0
  H  H18  1  0.47169000  0.43260000  0.38873000  1.0
  H  H19  1  0.13772000  0.67563000  0.33031000  1.0
  H  H20  1  0.49881000  0.57829000  0.44785000  1.0
  H  H21  1  0.16605000  0.82028000  0.39005000  1.0
  H  H22  1  0.66527000  0.62028000  0.06542000  1.0
  H  H23  1  0.74989000  0.82226000  0.20984000  1.0
  H  H24  1  0.44375000  0.82764000  0.27736000  1.0
  H  H25  1  0.56661000  0.52839000  0.11132000  1.0
  H  H26  1  0.32414000  0.86286000  0.16861000  1.0
  H  H27  1  0.42060000  0.50173000  0.05190000  1.0
  H  H28  1  0.17931000  0.83482000  0.10865000  1.0
  C  C1  1  0.67628000  0.82262000  0.57699000  1.0
  C  C2  1  0.71565000  0.71835000  0.63353000  1.0
  C  C3  1  0.67898000  0.64466000  0.61828000  1.0
  C  C4  1  0.79282000  0.69348000  0.69983000  1.0
  C  C5  1  0.72228000  0.54246000  0.66735000  1.0
  C  C6  1  0.83078000  0.59510000  0.75289000  1.0
  C  C7  1  0.69820000  0.45651000  0.64287000  1.0
  C  C8  1  0.79604000  0.52043000  0.73585000  1.0
  C  C9  1  0.90844000  0.56571000  0.82789000  1.0
  C  C10  1  0.59539000  0.48269000  0.61131000  1.0
  C  C11  1  0.78257000  0.34577000  0.64507000  1.0
  C  C12  1  0.58001000  0.40130000  0.57789000  1.0
  C  C13  1  0.76748000  0.26450000  0.61126000  1.0
  C  C14  1  0.66677000  0.29242000  0.57471000  1.0
  C  C15  1  0.65401000  0.20909000  0.52880000  1.0
  C  C16  1  0.17773000  0.32369000  0.92294000  1.0
  C  C17  1  0.28195000  0.28430000  0.86637000  1.0
  C  C18  1  0.35569000  0.32092000  0.88170000  1.0
  C  C19  1  0.30700000  0.20699000  0.80024000  1.0
  C  C20  1  0.45793000  0.27759000  0.83279000  1.0
  C  C21  1  0.40530000  0.16908000  0.74721000  1.0
  C  C22  1  0.54398000  0.30148000  0.85752000  1.0
  C  C23  1  0.47990000  0.20397000  0.76422000  1.0
  C  C24  1  0.43463000  0.09145000  0.67223000  1.0
  C  C25  1  0.51795000  0.40431000  0.88893000  1.0
  C  C26  1  0.65464000  0.21688000  0.85577000  1.0
  C  C27  1  0.59941000  0.41956000  0.92241000  1.0
  C  C28  1  0.73599000  0.23183000  0.88963000  1.0
  C  C29  1  0.70817000  0.33269000  0.92577000  1.0
  C  C30  1  0.79148000  0.34555000  0.97150000  1.0
  C  C31  1  0.32372000  0.17738000  0.42301000  1.0
  C  C32  1  0.28435000  0.28164000  0.36648000  1.0
  C  C33  1  0.32102000  0.35534000  0.38172000  1.0
  C  C34  1  0.20718000  0.30651000  0.30017000  1.0
  C  C35  1  0.27772000  0.45754000  0.33265000  1.0
  C  C36  1  0.16921000  0.40490000  0.24711000  1.0
  C  C37  1  0.30180000  0.54348000  0.35713000  1.0
  C  C38  1  0.20396000  0.47956000  0.26415000  1.0
  C  C39  1  0.09156000  0.43429000  0.17211000  1.0
  C  C40  1  0.40461000  0.51730000  0.38870000  1.0
  C  C41  1  0.21743000  0.65423000  0.35493000  1.0
  C  C42  1  0.41999000  0.59869000  0.42211000  1.0
  C  C43  1  0.23252000  0.73550000  0.38874000  1.0
  C  C44  1  0.33323000  0.70758000  0.42529000  1.0
  C  C45  1  0.34598000  0.79092000  0.47120000  1.0
  C  C46  1  0.82227000  0.67631000  0.07706000  1.0
  C  C47  1  0.71805000  0.71570000  0.13363000  1.0
  C  C48  1  0.64431000  0.67907000  0.11830000  1.0
  C  C49  1  0.69300000  0.79301000  0.19976000  1.0
  C  C50  1  0.54207000  0.72241000  0.16721000  1.0
  C  C51  1  0.59470000  0.83092000  0.25279000  1.0
  C  C52  1  0.45602000  0.69852000  0.14248000  1.0
  C  C53  1  0.52010000  0.79603000  0.23578000  1.0
  C  C54  1  0.56537000  0.90855000  0.32778000  1.0
  C  C55  1  0.48205000  0.59569000  0.11107000  1.0
  C  C56  1  0.34536000  0.78312000  0.14423000  1.0
  C  C57  1  0.40059000  0.58044000  0.07759000  1.0
  C  C58  1  0.26401000  0.76817000  0.11037000  1.0
  C  C59  1  0.29182000  0.66732000  0.07423000  1.0
  C  C60  1  0.20852000  0.65444000  0.02851000  1.0
  O  O1  1  0.26905000  0.89264000  0.46772000  1.0
  O  O2  1  0.43358000  0.76221000  0.51414000  1.0
  O  O3  1  0.41885000  0.13318000  0.45885000  1.0
  O  O4  1  0.26353000  0.13297000  0.43538000  1.0
  O  O5  1  0.36952000  0.05738000  0.65350000  1.0
  O  O6  1  0.47250000  0.93714000  0.37057000  1.0
  O  O7  1  0.10675000  0.73129000  0.03219000  1.0
  O  O8  1  0.23726000  0.56673000  0.98574000  1.0
  O  O9  1  0.86611000  0.58141000  0.04105000  1.0
  O  O10  1  0.86710000  0.73617000  0.06482000  1.0
  O  O11  1  0.94262000  0.63071000  0.84647000  1.0
  O  O12  1  0.06285000  0.52719000  0.12925000  1.0
  O  O13  1  0.73095000  0.10736000  0.53228000  1.0
  O  O14  1  0.56642000  0.23779000  0.48586000  1.0
  O  O15  1  0.58115000  0.86682000  0.54115000  1.0
  O  O16  1  0.73647000  0.86702000  0.56462000  1.0
  O  O17  1  0.63048000  0.94262000  0.34650000  1.0
  O  O18  1  0.52749000  0.06287000  0.62943000  1.0
  O  O19  1  0.89325000  0.26871000  0.96781000  1.0
  O  O20  1  0.76274000  0.43326000  0.01426000  1.0
  O  O21  1  0.13389000  0.41859000  0.95895000  1.0
  O  O22  1  0.13290000  0.26383000  0.93518000  1.0
  O  O23  1  0.05738000  0.36929000  0.15353000  1.0
  O  O24  1  0.93715000  0.47280000  0.87076000  1.0
