# generated using pymatgen
data_V2CoH10C12N2O5
_symmetry_space_group_name_H-M   'P 1'
_cell_length_a   7.92515000
_cell_length_b   11.40529000
_cell_length_c   13.31143337
_cell_angle_alpha   78.37186797
_cell_angle_beta   72.74622092
_cell_angle_gamma   79.83480000
_symmetry_Int_Tables_number   1
_chemical_formula_structural   V2CoH10C12N2O5
_chemical_formula_sum   'V4 Co2 H20 C24 N4 O10'
_cell_volume   1116.68195220
_cell_formula_units_Z   2
loop_
 _symmetry_equiv_pos_site_id
 _symmetry_equiv_pos_as_xyz
  1  'x, y, z'
loop_
 _atom_site_type_symbol
 _atom_site_label
 _atom_site_symmetry_multiplicity
 _atom_site_fract_x
 _atom_site_fract_y
 _atom_site_fract_z
 _atom_site_occupancy
  V  V0  1  0.11215000  0.69029000  0.01746000  1
  V  V1  1  0.07434000  0.44165000  0.11970000  1
  V  V2  1  0.88821000  0.30966000  0.98240000  1
  V  V3  1  0.92609000  0.55828000  0.88025000  1
  Co  Co4  1  0.50035000  0.49999000  0.00008000  1
  Co  Co5  1  0.00017000  0.99994000  0.00004000  1
  H  H6  1  0.75623000  0.85145000  0.16138000  1
  H  H7  1  0.56020000  0.86501000  0.34174000  1
  H  H8  1  0.80387000  0.17843000  0.33693000  1
  H  H9  1  0.99547000  0.14863000  0.15891000  1
  H  H10  1  0.59148000  0.11058000  0.49697000  1
  H  H11  1  0.55218000  0.66628000  0.79681000  1
  H  H12  1  0.55969000  0.65888000  0.61169000  1
  H  H13  1  0.37032000  0.30972000  0.72617000  1
  H  H14  1  0.38804000  0.32758000  0.90588000  1
  H  H15  1  0.40713000  0.38536000  0.54476000  1
  H  H16  1  0.24388000  0.14852000  0.83864000  1
  H  H17  1  0.43982000  0.13499000  0.65826000  1
  H  H18  1  0.19613000  0.82159000  0.66308000  1
  H  H19  1  0.00459000  0.85135000  0.84112000  1
  H  H20  1  0.40849000  0.88943000  0.50303000  1
  H  H21  1  0.44810000  0.33372000  0.20323000  1
  H  H22  1  0.44024000  0.34117000  0.38842000  1
  H  H23  1  0.62964000  0.69035000  0.27399000  1
  H  H24  1  0.61220000  0.67242000  0.09422000  1
  H  H25  1  0.59284000  0.61467000  0.45534000  1
  C  C26  1  0.76246000  0.92284000  0.20265000  1
  C  C27  1  0.65377000  0.93065000  0.30468000  1
  C  C28  1  0.66281000  0.02329000  0.35919000  1
  C  C29  1  0.78930000  0.10319000  0.30256000  1
  C  C30  1  0.89629000  0.08895000  0.20123000  1
  C  C31  1  0.56150000  0.03623000  0.46707000  1
  C  C32  1  0.52032000  0.58694000  0.77661000  1
  C  C33  1  0.52065000  0.58253000  0.67343000  1
  C  C34  1  0.47122000  0.47954000  0.65045000  1
  C  C35  1  0.41733000  0.38853000  0.73778000  1
  C  C36  1  0.42592000  0.39761000  0.83811000  1
  C  C37  1  0.46625000  0.46398000  0.54676000  1
  C  C38  1  0.23763000  0.07714000  0.79737000  1
  C  C39  1  0.34625000  0.06936000  0.69531000  1
  C  C40  1  0.33717000  0.97672000  0.64081000  1
  C  C41  1  0.21069000  0.89682000  0.69745000  1
  C  C42  1  0.10376000  0.91104000  0.79880000  1
  C  C43  1  0.43848000  0.96378000  0.53292000  1
  C  C44  1  0.47993000  0.41305000  0.22347000  1
  C  C45  1  0.47943000  0.41748000  0.32667000  1
  C  C46  1  0.52885000  0.52047000  0.34966000  1
  C  C47  1  0.58278000  0.61149000  0.26236000  1
  C  C48  1  0.57435000  0.60240000  0.16200000  1
  C  C49  1  0.53372000  0.53604000  0.45336000  1
  N  N50  1  0.88377000  0.00092000  0.14904000  1
  N  N51  1  0.47359000  0.49633000  0.85923000  1
  N  N52  1  0.11641000  0.99902000  0.85100000  1
  N  N53  1  0.52683000  0.50364000  0.14086000  1
  O  O54  1  0.29165000  0.40991000  0.06781000  1
  O  O55  1  0.32760000  0.66750000  0.00627000  1
  O  O56  1  0.07532000  0.64570000  0.90368000  1
  O  O57  1  0.02695000  0.83838000  0.02582000  1
  O  O58  1  0.00235000  0.59729000  0.13753000  1
  O  O59  1  0.70874000  0.59016000  0.93213000  1
  O  O60  1  0.67265000  0.33260000  0.99383000  1
  O  O61  1  0.92544000  0.35427000  0.09605000  1
  O  O62  1  0.97320000  0.16148000  0.97419000  1
  O  O63  1  0.99793000  0.40264000  0.86224000  1
