# generated using pymatgen
data_H11C15(NO)2
_symmetry_space_group_name_H-M   'P 1'
_cell_length_a   9.99966667
_cell_length_b   15.17180000
_cell_length_c   15.17180000
_cell_angle_alpha   90.00000000
_cell_angle_beta   90.00000000
_cell_angle_gamma   90.00000000
_symmetry_Int_Tables_number   1
_chemical_formula_structural   H11C15(NO)2
_chemical_formula_sum   'H22 C30 N4 O4'
_cell_volume   2301.75842456
_cell_formula_units_Z   2
loop_
 _symmetry_equiv_pos_site_id
 _symmetry_equiv_pos_as_xyz
  1  'x, y, z'
loop_
 _atom_site_type_symbol
 _atom_site_label
 _atom_site_symmetry_multiplicity
 _atom_site_fract_x
 _atom_site_fract_y
 _atom_site_fract_z
 _atom_site_occupancy
  C  1  1  0.95146600  0.96997000  0.96124400  1
  C  2  1  0.90601100  0.99608500  0.87623800  1
  C  3  1  0.83928400  0.93863600  0.81746400  1
  C  4  1  0.81291100  0.85202800  0.84645200  1
  C  5  1  0.87245500  0.81706800  0.92349600  1
  C  6  1  0.93979100  0.87787200  0.97921200  1
  C  10  1  0.01151600  0.03066300  0.02280500  1
  C  11  1  0.05323600  0.11761300  0.99951900  1
  C  12  1  0.12099500  0.17512100  0.05807400  1
  C  13  1  0.14982900  0.14242100  0.14316900  1
  C  14  1  0.09139900  0.06415200  0.17580100  1
  C  15  1  0.02567600  0.00931800  0.11386300  1
  C  19  1  0.09143700  0.04822800  0.26843300  1
  C  20  1  0.14603000  0.26604600  0.04145900  1
  C  21  1  0.87296900  0.72366600  0.93501200  1
  C  22  1  0.81438100  0.96118400  0.72797000  1
  C  27  1  0.92374500  0.00471300  0.58954100  1
  C  28  1  0.81618700  0.99839800  0.52921200  1
  C  29  1  0.83515700  0.99595400  0.43656100  1
  C  30  1  0.96746200  0.00164000  0.40088700  1
  C  31  1  0.07471800  0.00540300  0.46189100  1
  C  33  1  0.05353100  0.00965500  0.55308500  1
  C  36  1  0.71399800  0.99263200  0.37929000  1
  C  44  1  0.05487100  0.40477100  0.98569800  1
  C  45  1  0.05045200  0.45195200  0.06641200  1
  C  46  1  0.01420400  0.54213900  0.07190500  1
  C  47  1  0.97765700  0.58885700  0.99377200  1
  C  48  1  0.98302300  0.54140600  0.91307600  1
  C  50  1  0.01765000  0.45177900  0.90933200  1
  C  53  1  0.00664100  0.58386100  0.16079300  1
  H  7  1  0.91371500  0.06002700  0.85657000  1
  H  8  1  0.98656400  0.85335400  0.03328500  1
  H  9  1  0.76952500  0.80948200  0.80270600  1
  H  16  1  0.04343700  0.13860100  0.93636200  1
  H  17  1  0.19404700  0.18405800  0.18736900  1
  H  18  1  0.98558800  0.95218800  0.13712100  1
  H  32  1  0.72080900  0.00044200  0.55301400  1
  H  34  1  0.17156600  0.00138300  0.44102700  1
  H  35  1  0.13567400  0.01068400  0.59337200  1
  H  37  1  0.62054600  0.99176800  0.41653600  1
  H  38  1  0.71628400  0.93304700  0.33901000  1
  H  39  1  0.71162900  0.05027200  0.33625600  1
  H  41  1  0.99139300  0.01998000  0.71233400  1
  H  43  1  0.91662500  0.98634400  0.27424100  1
  H  49  1  0.06524700  0.41852600  0.12392800  1
  H  51  1  0.96819200  0.57256300  0.85427000  1
  H  52  1  0.02042700  0.42148000  0.84906800  1
  H  54  1  0.02780000  0.53789100  0.21439300  1
  H  55  1  0.90644000  0.61031200  0.17160900  1
  H  56  1  0.07929800  0.63732700  0.16536100  1
  H  58  1  0.04729600  0.28587100  0.92813000  1
  H  60  1  0.97785700  0.71033800  0.04567500  1
  N  40  1  0.91146500  0.00278800  0.67962200  1
  N  42  1  0.99012800  0.00489800  0.31138700  1
  N  57  1  0.08280200  0.31627700  0.97946800  1
  N  59  1  0.94532200  0.67713200  0.99573900  1
  O  23  1  0.17542100  0.09867500  0.31751500  1
  O  24  1  0.78959600  0.67558200  0.88311200  1
  O  25  1  0.72055300  0.91273300  0.68515200  1
  O  26  1  0.23380700  0.30861900  0.09500500  1
