# generated using pymatgen
data_H11C20(NO2)4
_symmetry_space_group_name_H-M   'P 1'
_cell_length_a   40.39730000
_cell_length_b   40.39730000
_cell_length_c   50.28260000
_cell_angle_alpha   90.00000000
_cell_angle_beta   90.00000000
_cell_angle_gamma   90.00000000
_symmetry_Int_Tables_number   1
_chemical_formula_structural   H11C20(NO2)4
_chemical_formula_sum   'H176 C320 N64 O128'
_cell_volume   82058.27913054
_cell_formula_units_Z   16
loop_
 _symmetry_equiv_pos_site_id
 _symmetry_equiv_pos_as_xyz
  1  'x, y, z'
loop_
 _atom_site_type_symbol
 _atom_site_label
 _atom_site_symmetry_multiplicity
 _atom_site_fract_x
 _atom_site_fract_y
 _atom_site_fract_z
 _atom_site_occupancy
  H  7  1  0.09624100  0.13198800  0.14449400  1
  H  16  1  0.18294300  0.13932800  0.10039600  1
  H  19  1  0.19640900  0.07250200  0.13314100  1
  H  20  1  0.10449900  0.05373900  0.12152700  1
  H  21  1  0.15321300  0.10779300  0.22941700  1
  H  22  1  0.14555200  0.07730000  0.02244100  1
  H  37  1  0.70261900  0.09809200  0.64315900  1
  H  46  1  0.62383900  0.04512500  0.61165900  1
  H  49  1  0.58845800  0.11336900  0.62497000  1
  H  50  1  0.66952500  0.15326100  0.60456700  1
  H  51  1  0.64142700  0.13685300  0.72206300  1
  H  52  1  0.67554800  0.05352000  0.52367300  1
  H  67  1  0.20107300  0.62336900  0.60560000  1
  H  76  1  0.11415300  0.66103900  0.63652100  1
  H  79  1  0.09126100  0.58465600  0.62042600  1
  H  80  1  0.17730500  0.56197800  0.64433100  1
  H  81  1  0.14964100  0.57543000  0.52542300  1
  H  82  1  0.17106700  0.66350000  0.72299800  1
  H  97  1  0.61465300  0.55435400  0.11536300  1
  H  106  1  0.70362400  0.57971700  0.15027500  1
  H  109  1  0.69664600  0.63748800  0.10781900  1
  H  110  1  0.60559800  0.63800600  0.12405000  1
  H  111  1  0.67364900  0.53136200  0.03240100  1
  H  112  1  0.65694800  0.64809600  0.22179700  1
  H  127  1  0.90108800  0.30564200  0.35368900  1
  H  136  1  0.93782500  0.38486000  0.39819600  1
  H  139  1  0.87197400  0.41540900  0.37803800  1
  H  140  1  0.83656100  0.32689800  0.38670100  1
  H  141  1  0.87178400  0.37382700  0.27593700  1
  H  142  1  0.88745800  0.34554100  0.48278800  1
  H  157  1  0.86780600  0.91206900  0.85142200  1
  H  166  1  0.83173700  0.82580500  0.88480400  1
  H  169  1  0.90612800  0.80223000  0.86587100  1
  H  170  1  0.93071600  0.88910200  0.88580400  1
  H  171  1  0.90807100  0.85738700  0.76948100  1
  H  172  1  0.83735600  0.87936600  0.97203700  1
  H  187  1  0.43178600  0.39406100  0.88860200  1
  H  196  1  0.42733100  0.30891900  0.84289000  1
  H  199  1  0.35825900  0.30396800  0.87597000  1
  H  200  1  0.35491500  0.39650700  0.86701000  1
  H  201  1  0.39964100  0.33816600  0.97226100  1
  H  202  1  0.37497300  0.36480200  0.76582600  1
  H  217  1  0.37894400  0.79819500  0.39578700  1
  H  226  1  0.34099600  0.88327000  0.36074300  1
  H  229  1  0.41565700  0.90771900  0.37689800  1
  H  230  1  0.43860900  0.81811700  0.35820600  1
  H  231  1  0.42111700  0.85756000  0.47483100  1
  H  232  1  0.33948600  0.82492200  0.27561200  1
  H  247  1  0.99197300  0.92388400  0.93097500  1
  H  254  1  0.09432400  0.97411700  0.04284600  1
  H  255  1  0.03953500  0.05813700  0.01997200  1
  H  256  1  0.92912900  0.92081400  0.99778100  1
  H  257  1  0.00117700  0.02367000  0.99671900  1
  H  258  1  0.96746800  0.95407900  0.02229500  1
  H  266  1  0.11610400  0.03117400  0.04552300  1
  H  268  1  0.94549900  0.88416300  0.93580900  1
  H  275  1  0.76697700  0.29063300  0.43029400  1
  H  282  1  0.69074200  0.21507300  0.55707400  1
  H  283  1  0.70605700  0.14770200  0.49435000  1
  H  284  1  0.83168000  0.27927400  0.49532900  1
  H  285  1  0.73830200  0.18797500  0.47121100  1
  H  286  1  0.79204300  0.24517500  0.51727100  1
  H  294  1  0.66057700  0.16184600  0.55308200  1
  H  296  1  0.81743900  0.32521200  0.43727500  1
  H  303  1  0.28093000  0.44117100  0.82432300  1
  H  310  1  0.20258100  0.50354400  0.69616600  1
  H  311  1  0.21926300  0.57898200  0.75240200  1
  H  312  1  0.34439700  0.44250000  0.75788900  1
  H  313  1  0.25474700  0.54306400  0.77703900  1
  H  314  1  0.30743600  0.47859400  0.73521900  1
  H  322  1  0.16981800  0.55459400  0.69755000  1
  H  324  1  0.32543800  0.40048000  0.81739300  1
  H  331  1  0.49553800  0.77813100  0.31166300  1
  H  338  1  0.58504900  0.73245300  0.18966700  1
  H  339  1  0.55315800  0.64695400  0.23016700  1
  H  340  1  0.42956400  0.78273600  0.24691300  1
  H  341  1  0.51269300  0.67880800  0.25346000  1
  H  342  1  0.46623200  0.74917200  0.22099500  1
  H  350  1  0.61828200  0.68146400  0.19290900  1
  H  352  1  0.45010000  0.81945900  0.30771700  1
  H  359  1  0.29720300  0.64439700  0.57197000  1
  H  366  1  0.36050700  0.70407900  0.43216400  1
  H  367  1  0.35044200  0.77373300  0.49383500  1
  H  368  1  0.23014400  0.64927900  0.50806900  1
  H  369  1  0.32719500  0.73260400  0.52184500  1
  H  370  1  0.27161200  0.67312400  0.48070300  1
  H  378  1  0.35199600  0.76815100  0.42755400  1
  H  380  1  0.23233800  0.65044700  0.57429600  1
  H  387  1  0.79307800  0.55981700  0.18817100  1
  H  394  1  0.85560900  0.50932100  0.33016200  1
  H  395  1  0.84958200  0.43658400  0.27047900  1
  H  396  1  0.72318500  0.55876000  0.25018800  1
  H  397  1  0.82224800  0.47456200  0.24183500  1
  H  398  1  0.76338500  0.53582300  0.27957600  1
  H  406  1  0.85189400  0.44043600  0.33375800  1
  H  408  1  0.72694000  0.55363900  0.18515200  1
  H  415  1  0.50460800  0.14777700  0.67249500  1
  H  422  1  0.45330800  0.22488600  0.80922500  1
  H  423  1  0.46809100  0.28990600  0.74493200  1
  H  424  1  0.57515500  0.14880800  0.73405400  1
  H  425  1  0.48883000  0.24533900  0.71859100  1
  H  426  1  0.53943200  0.18156800  0.76064100  1
  H  434  1  0.46195400  0.28922000  0.81168100  1
  H  436  1  0.56916900  0.14272800  0.66794700  1
  H  443  1  0.03442200  0.40379900  0.45649000  1
  H  450  1  0.03396200  0.51829500  0.56909400  1
  H  451  1  0.08722900  0.56144600  0.50602600  1
  H  452  1  0.94562800  0.45840500  0.45650400  1
  H  453  1  0.06067100  0.52532500  0.47517300  1
  H  454  1  0.97099600  0.50042500  0.48312200  1
  H  462  1  0.08824000  0.54875500  0.57379700  1
  H  464  1  0.98396500  0.39141700  0.42672800  1
  H  471  1  0.75921200  0.77502000  0.93724300  1
  H  478  1  0.74118300  0.68457600  0.05762300  1
  H  479  1  0.72189000  0.61603400  0.99645900  1
  H  480  1  0.85320100  0.73453000  0.95323500  1
  H  481  1  0.75196900  0.64980600  0.96566900  1
  H  482  1  0.82826600  0.69253700  0.98031400  1
  H  490  1  0.69470500  0.64412200  0.05792800  1
  H  492  1  0.84248200  0.77813900  0.91870200  1
  H  499  1  0.26934000  0.93637700  0.30974000  1
  H  506  1  0.25236100  0.01944600  0.18324800  1
  H  507  1  0.22799500  0.08548300  0.24500500  1
  H  508  1  0.36419000  0.96643600  0.28474500  1
  H  509  1  0.26034900  0.05388000  0.27539600  1
  H  510  1  0.33991100  0.00756000  0.25643700  1
  H  518  1  0.20346900  0.05555800  0.18280500  1
  H  520  1  0.35345900  0.92818400  0.32333500  1
  H  527  1  0.25075400  0.19793500  0.06896200  1
  H  534  1  0.35818500  0.22067900  0.94445400  1
  H  535  1  0.30632800  0.30616700  0.96819800  1
  H  536  1  0.20561300  0.16410200  0.99853300  1
  H  537  1  0.27338700  0.27383000  0.99785300  1
  H  538  1  0.24755900  0.19046300  0.97269700  1
  H  546  1  0.34062900  0.30364700  0.92800300  1
  H  548  1  0.19182700  0.17782500  0.06588600  1
  H  555  1  0.79929400  0.08266300  0.68211900  1
  H  562  1  0.84862100  0.00773900  0.82083700  1
  H  563  1  0.84032100  0.94559600  0.75402500  1
  H  564  1  0.72608100  0.07414900  0.74121100  1
  H  565  1  0.82067400  0.99062100  0.72816100  1
  H  566  1  0.76440800  0.04804400  0.76996500  1
  H  574  1  0.83980600  0.94402100  0.82113500  1
  H  576  1  0.73551200  0.07450500  0.67553800  1
  H  583  1  0.47813100  0.97014200  0.42975900  1
  H  590  1  0.57497200  0.96911500  0.55366300  1
  H  591  1  0.53408500  0.06388300  0.54183400  1
  H  592  1  0.42667000  0.92369300  0.49228600  1
  H  593  1  0.49386200  0.04111700  0.51203000  1
  H  594  1  0.45935500  0.95259600  0.52395900  1
  H  602  1  0.57533800  0.05150100  0.57659500  1
  H  604  1  0.44802800  0.91632900  0.42571400  1
  H  611  1  0.96716200  0.74282700  0.81511700  1
  H  618  1  0.06433300  0.73779500  0.69113000  1
  H  619  1  0.02582000  0.64321600  0.70791300  1
  H  620  1  0.91664600  0.78653600  0.75085100  1
  H  621  1  0.98485600  0.66740600  0.73632500  1
  H  622  1  0.94931900  0.75575900  0.72034700  1
  H  630  1  0.06745400  0.65372000  0.67277800  1
  H  632  1  0.93704300  0.79612300  0.81785600  1
  H  639  1  0.00713100  0.16922400  0.17357900  1
  H  646  1  0.93247600  0.21691300  0.31158900  1
  H  647  1  0.93665700  0.29327200  0.25477800  1
  H  648  1  0.07140800  0.18362200  0.23844200  1
  H  649  1  0.96541600  0.25796300  0.22497500  1
  H  650  1  0.02696300  0.20503200  0.26422700  1
  H  658  1  0.93379500  0.27972200  0.32102200  1
  H  660  1  0.07115300  0.17256500  0.17107400  1
  H  667  1  0.52575100  0.42983600  0.93960800  1
  H  674  1  0.54415300  0.49260200  0.06780300  1
  H  675  1  0.56090600  0.57471900  0.01805300  1
  H  676  1  0.43033600  0.46394200  0.95935200  1
  H  677  1  0.52865400  0.54931900  0.98357100  1
  H  678  1  0.45362200  0.50160800  0.99101700  1
  H  686  1  0.57620700  0.57123900  0.06801000  1
  H  688  1  0.47506400  0.41253800  0.91548400  1
  C  1  1  0.14514100  0.11550700  0.13846300  1
  C  2  1  0.11830800  0.12734100  0.15378800  1
  C  3  1  0.12076500  0.13160200  0.18161300  1
  C  4  1  0.15143200  0.12466800  0.19417600  1
  C  5  1  0.17884200  0.11330200  0.17914800  1
  C  6  1  0.17534300  0.10784300  0.15149000  1
  C  9  1  0.14127600  0.11061700  0.11052100  1
  C  10  1  0.11561500  0.09056500  0.09999000  1
  C  11  1  0.11292800  0.08546700  0.07219300  1
  C  12  1  0.13673600  0.09966400  0.05488200  1
  C  13  1  0.16244800  0.11988800  0.06507000  1
  C  14  1  0.16411900  0.12522300  0.09278800  1
  C  23  1  0.18705500  0.13339500  0.04798500  1
  C  24  1  0.08684100  0.06596000  0.06167400  1
  C  25  1  0.09254200  0.14070400  0.19692300  1
  C  26  1  0.20810900  0.10348100  0.19249600  1
  C  31  1  0.65109300  0.09533100  0.63734200  1
  C  32  1  0.68017200  0.09970200  0.65253200  1
  C  33  1  0.67915500  0.10619700  0.68012800  1
  C  34  1  0.64776400  0.10811700  0.69269900  1
  C  35  1  0.61814800  0.10348000  0.67795700  1
  C  36  1  0.61991800  0.09789200  0.65019500  1
  C  39  1  0.65370000  0.08802700  0.60965900  1
  C  40  1  0.67136400  0.10896400  0.59200200  1
  C  41  1  0.67338700  0.10112300  0.56458700  1
  C  42  1  0.65697700  0.07281200  0.55452400  1
  C  43  1  0.63780000  0.05278300  0.57175300  1
  C  44  1  0.63725600  0.06006300  0.59918200  1
  C  53  1  0.61554900  0.02872600  0.56160400  1
  C  54  1  0.69006900  0.12248400  0.54683000  1
  C  55  1  0.70904000  0.10907900  0.69511600  1
  C  56  1  0.58707900  0.10605100  0.69100500  1
  C  61  1  0.14982400  0.61649400  0.61071100  1
  C  62  1  0.17948500  0.61796700  0.59586100  1
  C  63  1  0.18026000  0.61172900  0.56821300  1
  C  64  1  0.15002500  0.60427100  0.55517800  1
  C  65  1  0.11989500  0.60309000  0.56960500  1
  C  66  1  0.11995600  0.60831800  0.59742200  1
  C  69  1  0.15064000  0.62361600  0.63848400  1
  C  70  1  0.17206700  0.60634000  0.65600900  1
  C  71  1  0.17374700  0.61524200  0.68321100  1
  C  72  1  0.15344700  0.64093200  0.69321400  1
  C  73  1  0.13054700  0.65698200  0.67621800  1
  C  74  1  0.12992600  0.64858100  0.64897600  1
  C  83  1  0.10665700  0.67942400  0.68635900  1
  C  84  1  0.19447500  0.59754500  0.70080500  1
  C  85  1  0.21062100  0.61333600  0.55377200  1
  C  86  1  0.09056900  0.59343600  0.55633200  1
  C  91  1  0.65801500  0.58360600  0.11336700  1
  C  92  1  0.63367400  0.56190900  0.10328600  1
  C  93  1  0.63484700  0.55053900  0.07683200  1
  C  94  1  0.66113100  0.56054000  0.06004300  1
  C  95  1  0.68525100  0.58310800  0.06951400  1
  C  96  1  0.68364500  0.59453000  0.09616800  1
  C  99  1  0.65562600  0.59502500  0.14012300  1
  C  100  1  0.62674800  0.61095200  0.14970400  1
  C  101  1  0.62504000  0.62185400  0.17641200  1
  C  102  1  0.65257600  0.61727200  0.19353800  1
  C  103  1  0.68174600  0.60134200  0.18433300  1
  C  104  1  0.68267200  0.59069100  0.15754800  1
  C  113  1  0.70942600  0.59599500  0.20152900  1
  C  114  1  0.59615400  0.63783700  0.18595500  1
  C  115  1  0.60772600  0.53245200  0.06671300  1
  C  116  1  0.70840200  0.59696800  0.05145800  1
  C  121  1  0.89772600  0.35620000  0.36376600  1
  C  122  1  0.89910200  0.32906200  0.34605600  1
  C  123  1  0.89744100  0.33324500  0.31821200  1
  C  124  1  0.89531800  0.36583600  0.30791000  1
  C  125  1  0.89485000  0.39365300  0.32516600  1
  C  126  1  0.89497800  0.38862800  0.35305500  1
  C  129  1  0.89957000  0.35040500  0.39178400  1
  C  130  1  0.87786600  0.32793500  0.40467700  1
  C  131  1  0.88076500  0.32210300  0.43232700  1
  C  132  1  0.90389200  0.34037200  0.44758800  1
  C  133  1  0.92481000  0.36404900  0.43527600  1
  C  134  1  0.92288100  0.36788400  0.40736800  1
  C  143  1  0.94409600  0.38662500  0.45064700  1
  C  144  1  0.85912500  0.29983200  0.44526800  1
  C  145  1  0.89914000  0.30538400  0.30087000  1
  C  146  1  0.89314400  0.42604100  0.31422200  1
  C  151  1  0.87430600  0.86084000  0.85681200  1
  C  152  1  0.87204100  0.89022300  0.84168900  1
  C  153  1  0.87604600  0.89033000  0.81376300  1
  C  154  1  0.88188100  0.85970100  0.80076300  1
  C  155  1  0.88387400  0.82986000  0.81551100  1
  C  156  1  0.88107700  0.83060500  0.84353500  1
  C  159  1  0.86938500  0.86208300  0.88487900  1
  C  160  1  0.88831500  0.88322500  0.90150300  1
  C  161  1  0.88228700  0.88426500  0.92927000  1
  C  162  1  0.85765200  0.86364000  0.94057600  1
  C  163  1  0.83989300  0.84115600  0.92433600  1
  C  164  1  0.84540300  0.84131900  0.89664500  1
  C  173  1  0.81865200  0.81675500  0.93532000  1
  C  174  1  0.90189500  0.90448200  0.94604200  1
  C  175  1  0.87439800  0.92051700  0.79909400  1
  C  176  1  0.89155200  0.79997900  0.80219400  1
  C  181  1  0.40871100  0.34824400  0.88158400  1
  C  182  1  0.42417900  0.37256200  0.89748800  1
  C  183  1  0.42809600  0.36869800  0.92525700  1
  C  184  1  0.41684500  0.33882700  0.93710000  1
  C  185  1  0.40162800  0.31385500  0.92148400  1
  C  186  1  0.39676400  0.31904900  0.89392800  1
  C  189  1  0.40492300  0.35379400  0.85372500  1
  C  190  1  0.38914000  0.38256300  0.84375400  1
  C  191  1  0.38722400  0.38802100  0.81602400  1
  C  192  1  0.39946000  0.36392300  0.79806200  1
  C  193  1  0.41433500  0.33440400  0.80763000  1
  C  194  1  0.41702300  0.33012400  0.83548000  1
  C  203  1  0.42468900  0.30888000  0.78979300  1
  C  204  1  0.37043600  0.41605000  0.80603900  1
  C  205  1  0.44049200  0.39554400  0.94086700  1
  C  206  1  0.38660300  0.28628200  0.93407300  1
  C  211  1  0.38467400  0.84911600  0.38836300  1
  C  212  1  0.38341400  0.82059200  0.40458900  1
  C  213  1  0.38840500  0.82207500  0.43239000  1
  C  214  1  0.39411100  0.85348100  0.44415200  1
  C  215  1  0.39501200  0.88249500  0.42831500  1
  C  216  1  0.39145900  0.88014600  0.40041500  1
  C  219  1  0.37800600  0.84629400  0.36057800  1
  C  220  1  0.39535100  0.82375300  0.34400200  1
  C  221  1  0.38734800  0.82107000  0.31661900  1
  C  222  1  0.36242000  0.84154900  0.30555900  1
  C  223  1  0.34627800  0.86535000  0.32164400  1
  C  224  1  0.35357300  0.86672200  0.34902700  1
  C  233  1  0.32547000  0.89000500  0.31058100  1
  C  234  1  0.40551500  0.79962300  0.29978200  1
  C  235  1  0.38706800  0.79280300  0.44824300  1
  C  236  1  0.40195300  0.91332400  0.44042900  1
  C  241  1  0.95654900  0.92017800  0.96175900  1
  C  242  1  0.95009600  0.92896300  0.98846200  1
  C  243  1  0.97278100  0.94816000  0.00295000  1
  C  244  1  0.00257700  0.95881400  0.99106500  1
  C  245  1  0.00988100  0.94980900  0.96445900  1
  C  246  1  0.98680600  0.93029500  0.95023400  1
  C  248  1  0.02483200  0.97819700  0.00618700  1
  C  249  1  0.05214300  0.96371100  0.01951300  1
  C  250  1  0.07445900  0.98451400  0.03335900  1
  C  251  1  0.06986600  0.01917600  0.03448700  1
  C  252  1  0.04268500  0.03303800  0.02072700  1
  C  253  1  0.02034200  0.01282200  0.00682500  1
  C  269  1  0.80348200  0.28704700  0.46023100  1
  C  270  1  0.80982900  0.27429100  0.48587800  1
  C  271  1  0.78621600  0.25477900  0.49900400  1
  C  272  1  0.75535300  0.24788500  0.48700200  1
  C  273  1  0.74807500  0.26131700  0.46159100  1
  C  274  1  0.77213600  0.28113000  0.44870800  1
  C  276  1  0.73341600  0.22595100  0.50024500  1
  C  277  1  0.71918400  0.23388700  0.52525200  1
  C  278  1  0.70037100  0.20957900  0.53876300  1
  C  279  1  0.69630700  0.17738900  0.52829000  1
  C  280  1  0.70948300  0.17042100  0.50289000  1
  C  281  1  0.72797200  0.19430400  0.48911000  1
  C  297  1  0.31697400  0.43969800  0.79389700  1
  C  298  1  0.32383600  0.45061200  0.76776900  1
  C  299  1  0.30166100  0.47128900  0.75417200  1
  C  300  1  0.27164200  0.48125000  0.76613600  1
  C  301  1  0.26401500  0.47030100  0.79223700  1
  C  302  1  0.28673000  0.44948600  0.80566100  1
  C  304  1  0.24966300  0.50157600  0.75135800  1
  C  305  1  0.23411800  0.49002500  0.72780500  1
  C  306  1  0.21354100  0.51184600  0.71327100  1
  C  307  1  0.20857800  0.54497500  0.72135500  1
  C  308  1  0.22343200  0.55563600  0.74531200  1
  C  309  1  0.24384300  0.53431300  0.76004500  1
  C  325  1  0.45870400  0.78254000  0.28204400  1
  C  326  1  0.45075600  0.77402000  0.25555000  1
  C  327  1  0.47246200  0.75466500  0.24024200  1
  C  328  1  0.50258100  0.74331500  0.25116900  1
  C  329  1  0.51125700  0.75194700  0.27760100  1
  C  330  1  0.48923800  0.77173500  0.29261800  1
  C  332  1  0.52443600  0.72467200  0.23506600  1
  C  333  1  0.54559100  0.74035900  0.21643300  1
  C  334  1  0.56924600  0.72101900  0.20266500  1
  C  335  1  0.57200900  0.68652600  0.20684300  1
  C  336  1  0.55064600  0.67147300  0.22553300  1
  C  337  1  0.52714700  0.69027900  0.23948300  1
  C  353  1  0.26031000  0.64334300  0.54228100  1
  C  354  1  0.25367100  0.65118000  0.51545300  1
  C  355  1  0.27818700  0.66537100  0.49937200  1
  C  356  1  0.31017400  0.67188900  0.50953400  1
  C  357  1  0.31752900  0.66326200  0.53628100  1
  C  358  1  0.29236900  0.64926600  0.55237000  1
  C  360  1  0.33113400  0.69282900  0.49424700  1
  C  361  1  0.34106500  0.68463300  0.46795700  1
  C  362  1  0.35470900  0.70959200  0.45148200  1
  C  363  1  0.35892500  0.74231500  0.46071400  1
  C  364  1  0.34972900  0.74983800  0.48711100  1
  C  365  1  0.33601500  0.72547700  0.50361600  1
  C  381  1  0.75495200  0.56230300  0.21676500  1
  C  382  1  0.74698600  0.55596800  0.24358700  1
  C  383  1  0.77073000  0.54248400  0.26082600  1
  C  384  1  0.80312600  0.53540200  0.25178100  1
  C  385  1  0.81172000  0.54266800  0.22500000  1
  C  386  1  0.78734500  0.55579700  0.20774000  1
  C  388  1  0.82374300  0.51564900  0.26833600  1
  C  389  1  0.83347400  0.52564700  0.29428500  1
  C  390  1  0.84944100  0.50252900  0.31118700  1
  C  391  1  0.85631200  0.47003900  0.30254000  1
  C  392  1  0.84662100  0.46051900  0.27669600  1
  C  393  1  0.83050600  0.48295800  0.25988100  1
  C  409  1  0.54249900  0.14385000  0.70120900  1
  C  410  1  0.55184900  0.15361700  0.72710700  1
  C  411  1  0.53081300  0.17321100  0.74269100  1
  C  412  1  0.49968200  0.18356300  0.73292800  1
  C  413  1  0.48958200  0.17349000  0.70710400  1
  C  414  1  0.51128900  0.15392800  0.69150200  1
  C  416  1  0.48220100  0.20782800  0.74784600  1
  C  417  1  0.47185800  0.20201500  0.77444100  1
  C  418  1  0.46020200  0.22889000  0.78989800  1
  C  419  1  0.45821400  0.26114600  0.77927600  1
  C  420  1  0.46804100  0.26650100  0.75271800  1
  C  421  1  0.48005900  0.24020600  0.73725500  1
  C  437  1  0.98764600  0.42696200  0.45460100  1
  C  438  1  0.96995600  0.45578300  0.46176800  1
  C  439  1  0.98488800  0.48051500  0.47723500  1
  C  440  1  0.01811100  0.47720500  0.48545600  1
  C  441  1  0.03682900  0.44924600  0.47731600  1
  C  442  1  0.02140100  0.42459500  0.46156900  1
  C  444  1  0.03103600  0.50046900  0.50376700  1
  C  445  1  0.02312500  0.49850400  0.53121200  1
  C  446  1  0.03880400  0.52044100  0.54918000  1
  C  447  1  0.06174100  0.54445500  0.54039000  1
  C  448  1  0.06918800  0.54592800  0.51292500  1
  C  449  1  0.05400000  0.52428300  0.49481200  1
  C  465  1  0.80840800  0.75882600  0.94312400  1
  C  466  1  0.82795700  0.73381200  0.95487000  1
  C  467  1  0.81335200  0.70925300  0.97077600  1
  C  468  1  0.77874300  0.70869100  0.97453300  1
  C  469  1  0.75852100  0.73270500  0.96189600  1
  C  470  1  0.77368100  0.75739200  0.94610300  1
  C  472  1  0.76514300  0.68693000  0.99364100  1
  C  473  1  0.76203100  0.69711600  0.02050800  1
  C  474  1  0.74425300  0.67681500  0.03839200  1
  C  475  1  0.72987100  0.64664700  0.03015800  1
  C  476  1  0.73354200  0.63680000  0.00335800  1
  C  477  1  0.75094400  0.65676900  0.98523800  1
  C  493  1  0.31882300  0.94748700  0.29950700  1
  C  494  1  0.33900800  0.96921900  0.28466700  1
  C  495  1  0.32476900  0.99322000  0.26802300  1
  C  496  1  0.29003700  0.99656700  0.26655200  1
  C  497  1  0.26939200  0.97589000  0.28222500  1
  C  498  1  0.28415000  0.95166500  0.29870200  1
  C  500  1  0.27617700  0.01800100  0.24728400  1
  C  501  1  0.27387700  0.00797100  0.22031900  1
  C  502  1  0.25513100  0.02744000  0.20244600  1
  C  503  1  0.23854200  0.05643700  0.21080300  1
  C  504  1  0.24146800  0.06608100  0.23773400  1
  C  505  1  0.26011600  0.04717500  0.25574700  1
  C  521  1  0.22493400  0.17769300  0.03625000  1
  C  522  1  0.22457600  0.17578900  0.00819900  1
  C  523  1  0.24914300  0.19145600  0.99301800  1
  C  524  1  0.27466400  0.20955900  0.00552800  1
  C  525  1  0.27540200  0.21198800  0.03366400  1
  C  526  1  0.25036600  0.19607200  0.04865800  1
  C  528  1  0.29671100  0.22784800  0.98928500  1
  C  529  1  0.32141500  0.21231500  0.97358800  1
  C  530  1  0.34084700  0.23193300  0.95620800  1
  C  531  1  0.33578200  0.26644400  0.95400800  1
  C  532  1  0.31077100  0.28127400  0.96956900  1
  C  533  1  0.29165800  0.26232500  0.98715900  1
  C  549  1  0.75956800  0.08230000  0.70934700  1
  C  550  1  0.75031500  0.07296400  0.73537600  1
  C  551  1  0.77303200  0.05734900  0.75231600  1
  C  552  1  0.80572500  0.05071000  0.74379600  1
  C  553  1  0.81586900  0.06133000  0.71813000  1
  C  554  1  0.79257800  0.07693700  0.70120500  1
  C  556  1  0.82410000  0.02701700  0.75865500  1
  C  557  1  0.83229100  0.03180600  0.78585500  1
  C  558  1  0.84384600  0.00457200  0.80100500  1
  C  559  1  0.84761400  0.97284500  0.78961400  1
  C  560  1  0.83989100  0.96864400  0.76245100  1
  C  561  1  0.82824600  0.99528000  0.74724500  1
  C  577  1  0.44805000  0.94554900  0.45786200  1
  C  578  1  0.44297500  0.94106100  0.48546000  1
  C  579  1  0.46269700  0.95762600  0.50416900  1
  C  580  1  0.48826500  0.97899900  0.49577800  1
  C  581  1  0.49355000  0.98433300  0.46821600  1
  C  582  1  0.47336800  0.96741600  0.44963900  1
  C  584  1  0.51069000  0.99142300  0.51500000  1
  C  585  1  0.53430600  0.97036000  0.52728800  1
  C  586  1  0.55781700  0.98423400  0.54491200  1
  C  587  1  0.55851500  0.01856400  0.55015700  1
  C  588  1  0.53407300  0.03889400  0.53846100  1
  C  589  1  0.51060600  0.02557900  0.52087400  1
  C  605  1  0.93754300  0.76628400  0.78608600  1
  C  606  1  0.93273100  0.76938600  0.75833600  1
  C  607  1  0.95245500  0.75167900  0.74029800  1
  C  608  1  0.97785800  0.73060100  0.74949600  1
  C  609  1  0.98287000  0.72668500  0.77724900  1
  C  610  1  0.96258700  0.74460000  0.79514000  1
  C  612  1  0.00047100  0.71715700  0.73081600  1
  C  613  1  0.02364100  0.73770800  0.71745900  1
  C  614  1  0.04749700  0.72298900  0.70059500  1
  C  615  1  0.04916700  0.68831900  0.69723600  1
  C  616  1  0.02511900  0.66842400  0.70989400  1
  C  617  1  0.00124000  0.68259800  0.72669300  1
  C  633  1  0.04306500  0.17325700  0.20388600  1
  C  634  1  0.04818900  0.18385100  0.23032000  1
  C  635  1  0.02197100  0.19650600  0.24545700  1
  C  636  1  0.98976500  0.19895700  0.23464400  1
  C  637  1  0.98422000  0.18898200  0.20794100  1
  C  638  1  0.01105500  0.17634300  0.19286100  1
  C  640  1  0.96542600  0.21559100  0.25006300  1
  C  641  1  0.95541300  0.20360200  0.27536200  1
  C  642  1  0.93815500  0.22500100  0.29283900  1
  C  643  1  0.93056700  0.25792300  0.28564200  1
  C  644  1  0.93969900  0.26899100  0.26000700  1
  C  645  1  0.95679700  0.24812600  0.24243600  1
  C  661  1  0.47597500  0.44290100  0.94704400  1
  C  662  1  0.45551800  0.46511000  0.96126300  1
  C  663  1  0.46916800  0.48745800  0.97962800  1
  C  664  1  0.50371500  0.48864700  0.98353400  1
  C  665  1  0.52484500  0.46812600  0.96816100  1
  C  666  1  0.51064100  0.44579500  0.94974700  1
  C  668  1  0.51648800  0.50614500  0.00560600  1
  C  669  1  0.52056000  0.48972600  0.03035000  1
  C  670  1  0.53970000  0.50502400  0.05042400  1
  C  671  1  0.55498000  0.53593500  0.04601800  1
  C  672  1  0.54919000  0.55276200  0.02187200  1
  C  673  1  0.53042900  0.53780100  0.00166100  1
  N  259  1  0.03983400  0.96059200  0.95265800  1
  N  260  1  0.05660700  0.92896100  0.01857900  1
  N  265  1  0.09312700  0.03855700  0.04675200  1
  N  267  1  0.93537200  0.90091000  0.94721700  1
  N  287  1  0.71689000  0.25502000  0.44976600  1
  N  288  1  0.72401900  0.26581200  0.53623200  1
  N  293  1  0.67963500  0.15414700  0.54284600  1
  N  295  1  0.82608300  0.30611000  0.44695400  1
  N  315  1  0.23346600  0.47934400  0.80399400  1
  N  316  1  0.23901100  0.45690200  0.71942200  1
  N  321  1  0.18868800  0.56507800  0.70633000  1
  N  323  1  0.33678700  0.41740400  0.80690000  1
  N  343  1  0.54189000  0.74123300  0.28827300  1
  N  344  1  0.54348500  0.77504200  0.21268600  1
  N  349  1  0.59744600  0.66948800  0.19514600  1
  N  351  1  0.43890800  0.80255600  0.29713100  1
  N  371  1  0.34954100  0.66963400  0.54655900  1
  N  372  1  0.33629000  0.65197000  0.45846900  1
  N  377  1  0.36630200  0.76700200  0.44311800  1
  N  379  1  0.23513200  0.63546600  0.55928300  1
  N  399  1  0.84422800  0.53603600  0.21586400  1
  N  400  1  0.82676800  0.55835700  0.30285200  1
  N  405  1  0.86766500  0.44686200  0.32001500  1
  N  407  1  0.73083600  0.57014500  0.19890000  1
  N  427  1  0.45835500  0.18367500  0.69726100  1
  N  428  1  0.47353700  0.16959100  0.78508100  1
  N  433  1  0.44932000  0.28687800  0.79530500  1
  N  435  1  0.56514200  0.13019900  0.68422900  1
  N  455  1  0.07003700  0.44591100  0.48593200  1
  N  456  1  0.00084600  0.47386400  0.54023700  1
  N  461  1  0.07977000  0.56169100  0.55884000  1
  N  463  1  0.97221600  0.40153700  0.44158800  1
  N  483  1  0.72383300  0.73218500  0.96597900  1
  N  484  1  0.77568100  0.72776900  0.02872400  1
  N  489  1  0.70962200  0.63025300  0.04745800  1
  N  491  1  0.82336700  0.78406000  0.92962200  1
  N  511  1  0.23453300  0.97896700  0.28042700  1
  N  512  1  0.28863100  0.97782800  0.21211300  1
  N  517  1  0.21625400  0.07083800  0.19384200  1
  N  519  1  0.33301000  0.92265600  0.31394800  1
  N  539  1  0.30104500  0.23016700  0.04613500  1
  N  540  1  0.32611100  0.17767500  0.97562400  1
  N  545  1  0.35302100  0.28569500  0.93645000  1
  N  547  1  0.20031500  0.16411100  0.05145100  1
  N  567  1  0.84862900  0.05487000  0.70954000  1
  N  568  1  0.82806600  0.06347600  0.79744100  1
  N  573  1  0.85395300  0.94613500  0.80554000  1
  N  575  1  0.73597500  0.08951900  0.69069500  1
  N  595  1  0.51996100  0.00487900  0.45978800  1
  N  596  1  0.53469700  0.93615200  0.52109300  1
  N  601  1  0.58236800  0.03266100  0.56578300  1
  N  603  1  0.43336600  0.92539100  0.43936700  1
  N  623  1  0.00915800  0.70655500  0.78653900  1
  N  624  1  0.02341000  0.77233200  0.72195600  1
  N  629  1  0.07370100  0.67362400  0.68261800  1
  N  631  1  0.92267600  0.78726100  0.80392100  1
  N  651  1  0.95205900  0.19177600  0.19698600  1
  N  652  1  0.96389100  0.17093000  0.28299500  1
  N  657  1  0.92050500  0.27977900  0.30483100  1
  N  659  1  0.06889100  0.16240000  0.18855500  1
  N  679  1  0.55951000  0.46927200  0.97237300  1
  N  680  1  0.50693800  0.45772900  0.03403100  1
  N  685  1  0.57793700  0.54779900  0.06341400  1
  N  687  1  0.46304300  0.41800600  0.93171600  1
  O  8  1  0.15484000  0.12968700  0.22093300  1
  O  15  1  0.13275200  0.09681300  0.02798500  1
  O  17  1  0.20169800  0.09563800  0.13752800  1
  O  18  1  0.09408700  0.07493200  0.11674800  1
  O  27  1  0.20071100  0.11244300  0.03002900  1
  O  28  1  0.05556900  0.07365900  0.06916500  1
  O  29  1  0.22437300  0.12677300  0.20677500  1
  O  30  1  0.08755300  0.12390200  0.21991700  1
  O  38  1  0.64602600  0.11314100  0.71954000  1
  O  45  1  0.65621700  0.06743500  0.52771800  1
  O  47  1  0.59121800  0.09362100  0.63620500  1
  O  48  1  0.68691500  0.13672400  0.60124000  1
  O  57  1  0.62683200  0.00816300  0.54234500  1
  O  58  1  0.71822200  0.11057800  0.53579200  1
  O  59  1  0.58255900  0.08818700  0.71352400  1
  O  60  1  0.70995900  0.13081200  0.71563800  1
  O  68  1  0.14955000  0.59952800  0.52826500  1
  O  75  1  0.15326100  0.64735500  0.71988200  1
  O  77  1  0.09085800  0.60607800  0.61113600  1
  O  78  1  0.19175200  0.58134100  0.64678300  1
  O  87  1  0.11701300  0.70204000  0.70444100  1
  O  88  1  0.22196900  0.61351200  0.70929500  1
  O  89  1  0.08004700  0.61295500  0.53613000  1
  O  90  1  0.21535900  0.59151700  0.53364600  1
  O  98  1  0.66067100  0.55188400  0.03378900  1
  O  105  1  0.64933600  0.62510100  0.21985000  1
  O  107  1  0.70740400  0.61588300  0.10518700  1
  O  108  1  0.60081000  0.61684300  0.13293000  1
  O  117  1  0.71593900  0.61894500  0.22048000  1
  O  118  1  0.56689500  0.62185900  0.18313800  1
  O  119  1  0.72854400  0.57601400  0.03805400  1
  O  120  1  0.61454400  0.50337300  0.05443500  1
  O  128  1  0.89507000  0.37046100  0.28098400  1
  O  135  1  0.90650100  0.33461200  0.47430700  1
  O  137  1  0.89386500  0.41557700  0.36945800  1
  O  138  1  0.85440400  0.31104100  0.39056700  1
  O  147  1  0.93126300  0.39655400  0.47425800  1
  O  148  1  0.87308100  0.27270400  0.45641700  1
  O  149  1  0.91412800  0.43357100  0.29407000  1
  O  150  1  0.87935900  0.30512900  0.27910500  1
  O  158  1  0.88430700  0.85862000  0.77365800  1
  O  165  1  0.85401800  0.86251300  0.96756000  1
  O  167  1  0.88413900  0.80173500  0.85747600  1
  O  168  1  0.91202400  0.90339700  0.89084700  1
  O  177  1  0.79760100  0.82613200  0.95489900  1
  O  178  1  0.88597500  0.92867600  0.95959100  1
  O  179  1  0.86947700  0.78896400  0.78397100  1
  O  180  1  0.89560000  0.92436700  0.77843300  1
  O  188  1  0.42112000  0.33369600  0.96374900  1
  O  195  1  0.39780100  0.36983900  0.77132500  1
  O  197  1  0.38067200  0.29543800  0.87936600  1
  O  198  1  0.37611400  0.40555700  0.86070800  1
  O  207  1  0.40597800  0.30365400  0.76780900  1
  O  208  1  0.38896400  0.43892600  0.79318700  1
  O  209  1  0.40587600  0.26736400  0.95004300  1
  O  210  1  0.42830400  0.39905700  0.96583000  1
  O  218  1  0.39723700  0.85618900  0.47113300  1
  O  225  1  0.35707100  0.84129900  0.27874500  1
  O  227  1  0.39375700  0.90826600  0.38543800  1
  O  228  1  0.41947100  0.80383100  0.35436100  1
  O  237  1  0.30238700  0.88035600  0.29263400  1
  O  238  1  0.38832600  0.77553500  0.28713900  1
  O  239  1  0.37975600  0.92440600  0.45853500  1
  O  240  1  0.40804200  0.79037500  0.46919400  1
  O  261  1  0.05568900  0.91650500  0.04146200  1
  O  262  1  0.03443900  0.97849600  0.93268900  1
  O  263  1  0.05751500  0.93652600  0.94568000  1
  O  264  1  0.08368300  0.92143300  0.00787600  1
  O  289  1  0.73860900  0.26434900  0.55827700  1
  O  290  1  0.71996900  0.24027800  0.42789800  1
  O  291  1  0.70105900  0.28137800  0.44599900  1
  O  292  1  0.69697000  0.28066000  0.53936200  1
  O  317  1  0.25195800  0.45566400  0.69671900  1
  O  318  1  0.23780700  0.49515200  0.82523200  1
  O  319  1  0.21592200  0.45438400  0.80886100  1
  O  320  1  0.21222800  0.44109900  0.71894500  1
  O  345  1  0.53663800  0.78209000  0.18897900  1
  O  346  1  0.53772900  0.72352400  0.30854200  1
  O  347  1  0.56005200  0.76532400  0.29434500  1
  O  348  1  0.57006300  0.78920600  0.21893300  1
  O  373  1  0.31748400  0.65136300  0.43856000  1
  O  374  1  0.34854800  0.68917500  0.56599500  1
  O  375  1  0.36340300  0.64332300  0.55387200  1
  O  376  1  0.36336800  0.63882000  0.45218500  1
  O  401  1  0.80842800  0.55864600  0.32303800  1
  O  402  1  0.84425500  0.51561400  0.19700300  1
  O  403  1  0.85831000  0.56208000  0.20820500  1
  O  404  1  0.85303300  0.57360000  0.30825400  1
  O  429  1  0.49211700  0.16835500  0.80510400  1
  O  430  1  0.46121200  0.20071900  0.67647700  1
  O  431  1  0.44019500  0.15920000  0.69226600  1
  O  432  1  0.44533400  0.15930300  0.79163000  1
  O  457  1  0.97618900  0.48648100  0.55160100  1
  O  458  1  0.08961900  0.44446100  0.46655700  1
  O  459  1  0.07384600  0.42051800  0.50003400  1
  O  460  1  0.01466000  0.45409200  0.55601800  1
  O  485  1  0.79672900  0.72381800  0.04684400  1
  O  486  1  0.70853000  0.72854900  0.94442500  1
  O  487  1  0.71395600  0.75829400  0.97700300  1
  O  488  1  0.75365700  0.74725100  0.03687800  1
  O  513  1  0.30935500  0.98245700  0.19385900  1
  O  514  1  0.22201400  0.98618500  0.30255400  1
  O  515  1  0.22141500  0.95277200  0.27203500  1
  O  516  1  0.26729500  0.95745300  0.20418200  1
  O  541  1  0.32111800  0.16353300  0.95373200  1
  O  542  1  0.28970800  0.25380200  0.05958700  1
  O  543  1  0.31804400  0.21199800  0.06113200  1
  O  544  1  0.35488800  0.17085500  0.98336100  1
  O  569  1  0.80782400  0.06268600  0.81641400  1
  O  570  1  0.84912400  0.03681900  0.68918100  1
  O  571  1  0.86370400  0.08130700  0.70438900  1
  O  572  1  0.85509700  0.07470000  0.80589200  1
  O  597  1  0.53014500  0.91874000  0.54147400  1
  O  598  1  0.50965300  0.02865700  0.44597400  1
  O  599  1  0.54097900  0.98895300  0.44653400  1
  O  600  1  0.56155800  0.92776800  0.51044700  1
  O  625  1  0.01863200  0.78808800  0.70075800  1
  O  626  1  0.99868600  0.68356600  0.80111500  1
  O  627  1  0.03010800  0.72313500  0.79934100  1
  O  628  1  0.05007000  0.78199300  0.73222600  1
  O  653  1  0.98189000  0.17064900  0.30338100  1
  O  654  1  0.95183100  0.21059600  0.17708900  1
  O  655  1  0.94099100  0.16399300  0.19011300  1
  O  656  1  0.93846200  0.15395600  0.28757500  1
  O  681  1  0.48679300  0.45731800  0.05306200  1
  O  682  1  0.57462000  0.47727200  0.95150700  1
  O  683  1  0.57049600  0.44194800  0.98041100  1
  O  684  1  0.52906300  0.43651000  0.03826700  1
