# generated using pymatgen
data_YH6(C2O)6
_symmetry_space_group_name_H-M   'P 1'
_cell_length_a   8.71819000
_cell_length_b   10.51888000
_cell_length_c   10.71310156
_cell_angle_alpha   62.86472934
_cell_angle_beta   69.07657075
_cell_angle_gamma   70.63835000
_symmetry_Int_Tables_number   1
_chemical_formula_structural   YH6(C2O)6
_chemical_formula_sum   'Y2 H12 C24 O12'
_cell_volume   799.67660722
_cell_formula_units_Z   2
loop_
 _symmetry_equiv_pos_site_id
 _symmetry_equiv_pos_as_xyz
  1  'x, y, z'
loop_
 _atom_site_type_symbol
 _atom_site_label
 _atom_site_symmetry_multiplicity
 _atom_site_fract_x
 _atom_site_fract_y
 _atom_site_fract_z
 _atom_site_occupancy
  Y  Y0  1  0.71553000  0.00456000  0.99093000  1
  Y  Y1  1  0.28448000  0.99544000  0.00907000  1
  H  H2  1  0.24829000  0.36775000  0.92319000  1
  H  H3  1  0.08168000  0.61942000  0.89726000  1
  H  H4  1  0.27677000  0.60789000  0.21873000  1
  H  H5  1  0.45028000  0.35760000  0.24067000  1
  H  H6  1  0.75125000  0.61251000  0.36711000  1
  H  H7  1  0.22672000  0.64136000  0.43868000  1
  H  H8  1  0.75170000  0.63225000  0.07682000  1
  H  H9  1  0.91833000  0.38058000  0.10274000  1
  H  H10  1  0.72323000  0.39210000  0.78128000  1
  H  H11  1  0.54972000  0.64240000  0.75934000  1
  H  H12  1  0.24874000  0.38749000  0.63290000  1
  H  H13  1  0.77328000  0.35864000  0.56133000  1
  C  C14  1  0.35546000  0.34683000  0.08604000  1
  C  C15  1  0.25316000  0.42073000  0.98781000  1
  C  C16  1  0.16023000  0.56041000  0.97369000  1
  C  C17  1  0.16659000  0.62668000  0.05892000  1
  C  C18  1  0.27112000  0.55355000  0.15549000  1
  C  C19  1  0.36636000  0.41444000  0.16844000  1
  C  C20  1  0.46157000  0.20237000  0.09094000  1
  C  C21  1  0.06286000  0.77520000  0.04435000  1
  C  C22  1  0.48836000  0.64056000  0.39192000  1
  C  C23  1  0.64274000  0.56160000  0.42647000  1
  C  C24  1  0.34547000  0.57835000  0.46631000  1
  C  C25  1  0.48014000  0.78711000  0.27045000  1
  C  C26  1  0.64453000  0.65316000  0.91397000  1
  C  C27  1  0.74684000  0.57927000  0.01220000  1
  C  C28  1  0.83977000  0.43959000  0.02632000  1
  C  C29  1  0.83342000  0.37332000  0.94108000  1
  C  C30  1  0.72889000  0.44644000  0.84451000  1
  C  C31  1  0.63365000  0.58556000  0.83156000  1
  C  C32  1  0.53844000  0.79763000  0.90906000  1
  C  C33  1  0.93714000  0.22480000  0.95565000  1
  C  C34  1  0.51165000  0.35943000  0.60808000  1
  C  C35  1  0.35727000  0.43840000  0.57353000  1
  C  C36  1  0.65453000  0.42165000  0.53369000  1
  C  C37  1  0.51987000  0.21289000  0.72956000  1
  O  O38  1  0.41965000  0.12896000  0.04247000  1
  O  O39  1  0.59884000  0.15573000  0.12817000  1
  O  O40  1  0.94021000  0.81972000  0.98562000  1
  O  O41  1  0.09778000  0.85087000  0.09216000  1
  O  O42  1  0.61060000  0.84241000  0.21478000  1
  O  O43  1  0.34419000  0.84449000  0.22723000  1
  O  O44  1  0.58034000  0.87104000  0.95754000  1
  O  O45  1  0.40117000  0.84427000  0.87183000  1
  O  O46  1  0.05980000  0.18027000  0.01439000  1
  O  O47  1  0.90223000  0.14913000  0.90784000  1
  O  O48  1  0.38940000  0.15758000  0.78523000  1
  O  O49  1  0.65582000  0.15551000  0.77277000  1
