# generated using pymatgen
data_Mn2H4C20(S2O3)3
_symmetry_space_group_name_H-M   'P 1'
_cell_length_a   8.88273000
_cell_length_b   12.13166000
_cell_length_c   14.04483611
_cell_angle_alpha   106.85304488
_cell_angle_beta   107.21188790
_cell_angle_gamma   91.04490000
_symmetry_Int_Tables_number   1
_chemical_formula_structural   Mn2H4C20(S2O3)3
_chemical_formula_sum   'Mn4 H8 C40 S12 O18'
_cell_volume   1374.64567701
_cell_formula_units_Z   2
loop_
 _symmetry_equiv_pos_site_id
 _symmetry_equiv_pos_as_xyz
  1  'x, y, z'
loop_
 _atom_site_type_symbol
 _atom_site_label
 _atom_site_symmetry_multiplicity
 _atom_site_fract_x
 _atom_site_fract_y
 _atom_site_fract_z
 _atom_site_occupancy
  Mn  Mn0  1  0.93872000  0.88258000  0.01469000  1
  Mn  Mn1  1  0.91991000  0.61294000  0.98176000  1
  Mn  Mn2  1  0.06158000  0.11681000  0.98508000  1
  Mn  Mn3  1  0.07937000  0.38670000  0.01803000  1
  H  H4  1  0.86657000  0.01941000  0.77664000  1
  H  H5  1  0.68350000  0.96724000  0.27404000  1
  H  H6  1  0.09189000  0.47807000  0.22954000  1
  H  H7  1  0.40716000  0.52409000  0.72575000  1
  H  H8  1  0.13345000  0.98005000  0.22319000  1
  H  H9  1  0.31625000  0.03331000  0.72592000  1
  H  H10  1  0.90806000  0.52109000  0.77101000  1
  H  H11  1  0.59375000  0.47704000  0.27537000  1
  C  C12  1  0.08525000  0.86343000  0.84755000  1
  C  C13  1  0.99685000  0.87193000  0.74424000  1
  C  C14  1  0.89571000  0.95157000  0.71773000  1
  C  C15  1  0.91254000  0.84275000  0.55461000  1
  C  C16  1  0.84629000  0.93579000  0.60894000  1
  C  C17  1  0.87259000  0.82990000  0.44693000  1
  C  C18  1  0.78014000  0.91591000  0.41946000  1
  C  C19  1  0.75143000  0.91077000  0.31345000  1
  C  C20  1  0.82345000  0.82253000  0.26294000  1
  C  C21  1  0.84075000  0.78880000  0.15861000  1
  C  C22  1  0.22661000  0.64521000  0.15468000  1
  C  C23  1  0.25149000  0.62904000  0.25747000  1
  C  C24  1  0.18118000  0.54651000  0.28632000  1
  C  C25  1  0.36115000  0.65806000  0.44807000  1
  C  C26  1  0.24230000  0.56283000  0.39487000  1
  C  C27  1  0.42894000  0.66791000  0.55525000  1
  C  C28  1  0.36470000  0.57860000  0.58253000  1
  C  C29  1  0.44034000  0.58227000  0.68764000  1
  C  C30  1  0.56137000  0.67278000  0.73825000  1
  C  C31  1  0.67860000  0.70766000  0.84308000  1
  C  C32  1  0.91490000  0.13484000  0.15202000  1
  C  C33  1  0.00380000  0.12783000  0.25572000  1
  C  C34  1  0.10461000  0.04796000  0.28218000  1
  C  C35  1  0.08778000  0.15726000  0.44504000  1
  C  C36  1  0.15386000  0.06395000  0.39097000  1
  C  C37  1  0.12767000  0.17026000  0.55264000  1
  C  C38  1  0.21976000  0.08413000  0.58025000  1
  C  C39  1  0.24841000  0.08963000  0.68629000  1
  C  C40  1  0.17644000  0.17811000  0.73665000  1
  C  C41  1  0.15876000  0.21139000  0.84104000  1
  C  C42  1  0.77189000  0.35497000  0.84541000  1
  C  C43  1  0.74807000  0.37044000  0.74251000  1
  C  C44  1  0.81873000  0.45289000  0.71391000  1
  C  C45  1  0.63879000  0.34189000  0.55210000  1
  C  C46  1  0.75795000  0.43689000  0.60544000  1
  C  C47  1  0.57118000  0.33230000  0.44496000  1
  C  C48  1  0.63572000  0.42162000  0.41789000  1
  C  C49  1  0.55997000  0.41839000  0.31284000  1
  C  C50  1  0.43891000  0.32804000  0.26199000  1
  C  C51  1  0.32184000  0.29285000  0.15738000  1
  S  S52  1  0.03520000  0.77732000  0.63586000  1
  S  S53  1  0.92084000  0.74212000  0.34298000  1
  S  S54  1  0.73712000  0.01036000  0.52627000  1
  S  S55  1  0.39622000  0.72702000  0.36422000  1
  S  S56  1  0.58036000  0.75582000  0.65856000  1
  S  S57  1  0.21467000  0.48510000  0.47684000  1
  S  S58  1  0.96557000  0.22285000  0.36383000  1
  S  S59  1  0.07937000  0.25838000  0.65636000  1
  S  S60  1  0.26241000  0.98933000  0.47348000  1
  S  S61  1  0.60309000  0.27288000  0.63575000  1
  S  S62  1  0.41965000  0.24471000  0.34147000  1
  S  S63  1  0.78623000  0.51462000  0.52366000  1
  O  O64  1  0.87243000  0.68614000  0.12421000  1
  O  O65  1  0.83125000  0.86815000  0.11230000  1
  O  O66  1  0.17644000  0.79249000  0.86030000  1
  O  O67  1  0.04714000  0.94019000  0.92893000  1
  O  O68  1  0.74107000  0.81214000  0.87826000  1
  O  O69  1  0.71421000  0.62876000  0.88960000  1
  O  O70  1  0.29653000  0.72679000  0.14455000  1
  O  O71  1  0.11645000  0.56322000  0.07005000  1
  O  O72  1  0.12757000  0.31409000  0.87572000  1
  O  O73  1  0.16738000  0.13116000  0.88640000  1
  O  O74  1  0.81949000  0.20350000  0.13788000  1
  O  O75  1  0.95385000  0.05918000  0.07091000  1
  O  O76  1  0.25976000  0.18834000  0.12213000  1
  O  O77  1  0.28527000  0.37133000  0.11038000  1
  O  O78  1  0.70205000  0.27339000  0.85548000  1
  O  O79  1  0.88252000  0.43648000  0.92991000  1
  O  O80  1  0.01480000  0.74652000  0.98983000  1
  O  O81  1  0.98496000  0.25278000  0.00981000  1
