# generated using pymatgen
data_CuH10(C11O2)2
_symmetry_space_group_name_H-M   'P 1'
_cell_length_a   17.17129050
_cell_length_b   25.69388102
_cell_length_c   38.91800064
_cell_angle_alpha   89.99953208
_cell_angle_beta   89.99947951
_cell_angle_gamma   100.91473641
_symmetry_Int_Tables_number   1
_chemical_formula_structural   CuH10(C11O2)2
_chemical_formula_sum   'Cu12 H120 C264 O48'
_cell_volume   16859.89509602
_cell_formula_units_Z   12
loop_
 _symmetry_equiv_pos_site_id
 _symmetry_equiv_pos_as_xyz
  1  'x, y, z'
loop_
 _atom_site_type_symbol
 _atom_site_label
 _atom_site_symmetry_multiplicity
 _atom_site_fract_x
 _atom_site_fract_y
 _atom_site_fract_z
 _atom_site_occupancy
  Cu  Cu1  1  0.05434878  0.79201728  0.73432068  1.0
  Cu  Cu2  1  0.93314673  0.72905173  0.74684036  1.0
  Cu  Cu3  1  0.99410410  0.50028939  0.03115810  1.0
  Cu  Cu4  1  0.94565118  0.70798446  0.23432183  1.0
  Cu  Cu5  1  0.06685264  0.77094771  0.24684056  1.0
  Cu  Cu6  1  0.00589645  0.99970958  0.53116289  1.0
  Cu  Cu7  1  0.94565141  0.20798424  0.26567977  1.0
  Cu  Cu8  1  0.06684988  0.27094562  0.25315964  1.0
  Cu  Cu9  1  0.00589629  0.49970973  0.96883713  1.0
  Cu  Cu10  1  0.05436633  0.29202467  0.76567956  1.0
  Cu  Cu11  1  0.93313050  0.22904227  0.75315791  1.0
  Cu  Cu12  1  0.99410635  0.00029026  0.46884184  1.0
  H  H1  1  0.77668263  0.52495905  0.93522868  1.0
  H  H2  1  0.64165075  0.54754330  0.93068127  1.0
  H  H3  1  0.62507398  0.54872379  0.04126028  1.0
  H  H4  1  0.76014008  0.52622713  0.04533788  1.0
  H  H5  1  0.40247717  0.58940976  0.04038018  1.0
  H  H6  1  0.20161776  0.63177255  0.98843834  1.0
  H  H7  1  0.39939816  0.59870847  0.92965739  1.0
  H  H8  1  0.29635163  0.69685277  0.12341166  1.0
  H  H9  1  0.22944397  0.72715935  0.17467923  1.0
  H  H10  1  0.01402705  0.61970648  0.14879160  1.0
  H  H11  1  0.08029949  0.58920093  0.09725803  1.0
  H  H12  1  0.06872120  0.61468097  0.88553301  1.0
  H  H13  1  0.99993618  0.64822906  0.83591022  1.0
  H  H14  1  0.22281217  0.73644770  0.79984965  1.0
  H  H15  1  0.29237681  0.70263735  0.84912617  1.0
  H  H16  1  0.93334285  0.33533836  0.05534043  1.0
  H  H17  1  0.90829907  0.23658288  0.05583444  1.0
  H  H18  1  0.90932376  0.23597398  0.94486486  1.0
  H  H19  1  0.93519614  0.33472589  0.94481968  1.0
  H  H20  1  0.89904311  0.06886988  0.94233010  1.0
  H  H21  1  0.89604811  0.91941945  0.99326806  1.0
  H  H22  1  0.89796178  0.06086261  0.05317263  1.0
  H  H23  1  0.02600782  0.96641068  0.86031569  1.0
  H  H24  1  0.04746561  0.91344384  0.80850713  1.0
  H  H25  1  0.83332193  0.80224296  0.83069759  1.0
  H  H26  1  0.81035780  0.85530095  0.88232333  1.0
  H  H27  1  0.03124512  0.95162209  0.12542391  1.0
  H  H28  1  0.05768788  0.89493061  0.17474900  1.0
  H  H29  1  0.84307241  0.78426174  0.15254651  1.0
  H  H30  1  0.81561893  0.84065881  0.10324455  1.0
  H  H31  1  0.22332147  0.97503931  0.43522412  1.0
  H  H32  1  0.35834982  0.95245544  0.43067919  1.0
  H  H33  1  0.37492180  0.95127746  0.54125812  1.0
  H  H34  1  0.23985166  0.97377493  0.54533404  1.0
  H  H35  1  0.59752078  0.91059247  0.54037306  1.0
  H  H36  1  0.79838328  0.86822988  0.48842983  1.0
  H  H37  1  0.60060382  0.90129102  0.42965035  1.0
  H  H38  1  0.70366021  0.80315402  0.62340832  1.0
  H  H39  1  0.77054685  0.77284046  0.67467558  1.0
  H  H40  1  0.98597759  0.88030169  0.64878527  1.0
  H  H41  1  0.91969401  0.91079733  0.59725580  1.0
  H  H42  1  0.93128651  0.88532221  0.38553287  1.0
  H  H43  1  0.00006144  0.85176492  0.33590578  1.0
  H  H44  1  0.77719925  0.76355380  0.29984866  1.0
  H  H45  1  0.70761352  0.79735923  0.34912413  1.0
  H  H46  1  0.06665535  0.16465499  0.55533803  1.0
  H  H47  1  0.09169949  0.26341356  0.55583263  1.0
  H  H48  1  0.09067490  0.26402514  0.44486342  1.0
  H  H49  1  0.06480363  0.16527695  0.44481691  1.0
  H  H50  1  0.10095663  0.43113209  0.44232364  1.0
  H  H51  1  0.10395221  0.58058005  0.49326047  1.0
  H  H52  1  0.10203874  0.43913400  0.55316621  1.0
  H  H53  1  0.97398380  0.53358564  0.36031444  1.0
  H  H54  1  0.95254182  0.58656506  0.30850575  1.0
  H  H55  1  0.16667071  0.69775910  0.33069379  1.0
  H  H56  1  0.18965144  0.64470380  0.38232340  1.0
  H  H57  1  0.96876470  0.54838329  0.62542157  1.0
  H  H58  1  0.94230583  0.60506292  0.67474623  1.0
  H  H59  1  0.15693639  0.71573896  0.65254084  1.0
  H  H60  1  0.18437286  0.65933703  0.60324294  1.0
  H  H61  1  0.22332174  0.47504104  0.06477588  1.0
  H  H62  1  0.35835061  0.45245678  0.06932052  1.0
  H  H63  1  0.37492423  0.45127698  0.95874162  1.0
  H  H64  1  0.23985336  0.47377470  0.95466624  1.0
  H  H65  1  0.59751823  0.41059232  0.95962598  1.0
  H  H66  1  0.79838098  0.36822879  0.01156840  1.0
  H  H67  1  0.60060118  0.40129204  0.07034835  1.0
  H  H68  1  0.70365949  0.30314796  0.87658490  1.0
  H  H69  1  0.77055334  0.27283754  0.82531922  1.0
  H  H70  1  0.98598156  0.38029587  0.85120863  1.0
  H  H71  1  0.91970182  0.41079442  0.90273740  1.0
  H  H72  1  0.93128789  0.38532630  0.11446500  1.0
  H  H73  1  0.00005761  0.35176729  0.16409292  1.0
  H  H74  1  0.77719731  0.26355492  0.20015119  1.0
  H  H75  1  0.70760849  0.29735907  0.15087624  1.0
  H  H76  1  0.06665654  0.66465693  0.94466367  1.0
  H  H77  1  0.09170102  0.76341533  0.94416829  1.0
  H  H78  1  0.09067546  0.76402471  0.05513767  1.0
  H  H79  1  0.06480376  0.66527651  0.05518481  1.0
  H  H80  1  0.10095670  0.93113089  0.05767550  1.0
  H  H81  1  0.10395285  0.08058000  0.00673881  1.0
  H  H82  1  0.10203973  0.93913451  0.94683301  1.0
  H  H83  1  0.97398186  0.03358017  0.13968592  1.0
  H  H84  1  0.95254166  0.08656073  0.19149439  1.0
  H  H85  1  0.16666958  0.19775397  0.16930489  1.0
  H  H86  1  0.18965578  0.14470150  0.11767498  1.0
  H  H87  1  0.96875761  0.04838588  0.87457302  1.0
  H  H88  1  0.94230583  0.10506954  0.82524973  1.0
  H  H89  1  0.15693226  0.21574411  0.84745345  1.0
  H  H90  1  0.18437425  0.15934467  0.89675116  1.0
  H  H91  1  0.77668491  0.02495871  0.56477127  1.0
  H  H92  1  0.64165283  0.04754312  0.56931906  1.0
  H  H93  1  0.62507752  0.04872204  0.45874016  1.0
  H  H94  1  0.76014376  0.02622541  0.45466208  1.0
  H  H95  1  0.40247864  0.08940706  0.45962137  1.0
  H  H96  1  0.20161711  0.13176868  0.51156345  1.0
  H  H97  1  0.39939997  0.09870711  0.57034362  1.0
  H  H98  1  0.29635376  0.19685050  0.37658997  1.0
  H  H99  1  0.22944402  0.22715600  0.32532305  1.0
  H  H100  1  0.01402865  0.11970286  0.35121113  1.0
  H  H101  1  0.08029576  0.08919425  0.40274547  1.0
  H  H102  1  0.06871039  0.11468255  0.61447180  1.0
  H  H103  1  0.99993010  0.14823352  0.66409433  1.0
  H  H104  1  0.22280287  0.23644937  0.70015330  1.0
  H  H105  1  0.29237457  0.20264134  0.65087874  1.0
  H  H106  1  0.93334477  0.83534273  0.44465771  1.0
  H  H107  1  0.90830069  0.73658805  0.44416434  1.0
  H  H108  1  0.90932421  0.73597626  0.55513392  1.0
  H  H109  1  0.93519657  0.83472717  0.55517912  1.0
  H  H110  1  0.89904356  0.56887155  0.55767003  1.0
  H  H111  1  0.89604720  0.41942056  0.50673280  1.0
  H  H112  1  0.89796161  0.56086458  0.44682773  1.0
  H  H113  1  0.02601421  0.46640744  0.63968912  1.0
  H  H114  1  0.04746540  0.41343628  0.69149595  1.0
  H  H115  1  0.83332556  0.30223680  0.66930749  1.0
  H  H116  1  0.81035544  0.35529291  0.61768224  1.0
  H  H117  1  0.03124638  0.45162604  0.37457631  1.0
  H  H118  1  0.05768708  0.39493246  0.32525193  1.0
  H  H119  1  0.84307230  0.28426507  0.34745601  1.0
  H  H120  1  0.81561347  0.34066019  0.39675824  1.0
  C  C1  1  0.85771471  0.51335603  0.99343736  1.0
  C  C2  1  0.77641462  0.52492565  0.99054843  1.0
  C  C3  1  0.74293440  0.53049899  0.95818850  1.0
  C  C4  1  0.66789373  0.54291356  0.95572232  1.0
  C  C5  1  0.62485212  0.55015072  0.98571527  1.0
  C  C6  1  0.65868623  0.54371740  0.01815196  1.0
  C  C7  1  0.73356646  0.53122843  0.02045695  1.0
  C  C8  1  0.54927139  0.56413505  0.98391001  1.0
  C  C9  1  0.48450273  0.57710173  0.98383901  1.0
  C  C10  1  0.40925948  0.59188223  0.98485846  1.0
  C  C11  1  0.37261569  0.59675345  0.01672131  1.0
  C  C12  1  0.29764625  0.61097659  0.01812877  1.0
  C  C13  1  0.25911795  0.62004625  0.98747273  1.0
  C  C14  1  0.29562909  0.61587824  0.95553029  1.0
  C  C15  1  0.37073394  0.60179762  0.95432058  1.0
  C  C16  1  0.26127556  0.61784023  0.05011027  1.0
  C  C17  1  0.22921868  0.62664534  0.07686958  1.0
  C  C18  1  0.19255896  0.64096085  0.10708648  1.0
  C  C19  1  0.23482264  0.67968000  0.12933003  1.0
  C  C20  1  0.19768205  0.69662607  0.15775028  1.0
  C  C21  1  0.11786323  0.67527920  0.16476027  1.0
  C  C22  1  0.07598130  0.63597834  0.14314429  1.0
  C  C23  1  0.11273594  0.61891663  0.11458121  1.0
  C  C24  1  0.07723287  0.69640643  0.19398059  1.0
  C  C25  1  0.25718184  0.62748663  0.92501786  1.0
  C  C26  1  0.22368174  0.63978237  0.89948583  1.0
  C  C27  1  0.18495572  0.65664962  0.87060594  1.0
  C  C28  1  0.10211080  0.64115082  0.86657944  1.0
  C  C29  1  0.06392877  0.65974323  0.83899562  1.0
  C  C30  1  0.10731063  0.69445414  0.81501093  1.0
  C  C31  1  0.18983468  0.70949655  0.81862056  1.0
  C  C32  1  0.22842026  0.69067515  0.84596135  1.0
  C  C33  1  0.06567786  0.71698780  0.78667054  1.0
  C  C34  1  0.95764703  0.39963996  0.99993206  1.0
  C  C35  1  0.93704736  0.34084444  0.00007460  1.0
  C  C36  1  0.92798556  0.31314682  0.03135765  1.0
  C  C37  1  0.91377211  0.25817987  0.03159050  1.0
  C  C38  1  0.90827062  0.22973868  0.00034296  1.0
  C  C39  1  0.91446606  0.25789219  0.96897031  1.0
  C  C40  1  0.92898548  0.31282705  0.96892286  1.0
  C  C41  1  0.90022197  0.17398965  0.00018552  1.0
  C  C42  1  0.89789676  0.12625096  0.99939768  1.0
  C  C43  1  0.89678252  0.07107129  0.99792790  1.0
  C  C44  1  0.89733690  0.04581441  0.96586565  1.0
  C  C45  1  0.89669722  0.99116739  0.96410424  1.0
  C  C46  1  0.89544192  0.96163656  0.99456433  1.0
  C  C47  1  0.89643912  0.98673209  0.02669096  1.0
  C  C48  1  0.89681446  0.04138173  0.02830453  1.0
  C  C49  1  0.90037398  0.96570601  0.93197325  1.0
  C  C50  1  0.90663488  0.94243943  0.90510275  1.0
  C  C51  1  0.91685321  0.91413034  0.87473335  1.0
  C  C52  1  0.98354657  0.93079545  0.85352247  1.0
  C  C53  1  0.99563103  0.90132149  0.82479037  1.0
  C  C54  1  0.94178770  0.85475795  0.81663261  1.0
  C  C55  1  0.87460708  0.83848264  0.83727567  1.0
  C  C56  1  0.86203734  0.86785477  0.86598894  1.0
  C  C57  1  0.95811901  0.82148990  0.78716152  1.0
  C  C58  1  0.90064900  0.95701519  0.05710679  1.0
  C  C59  1  0.90850311  0.93073156  0.08250410  1.0
  C  C60  1  0.92161946  0.89976689  0.11124560  1.0
  C  C61  1  0.98990111  0.91523408  0.13172573  1.0
  C  C62  1  0.00468140  0.88372842  0.15903296  1.0
  C  C63  1  0.95190903  0.83636715  0.16647806  1.0
  C  C64  1  0.88342853  0.82113153  0.14647072  1.0
  C  C65  1  0.86827161  0.85242562  0.11912296  1.0
  C  C66  1  0.97016730  0.80144488  0.19467882  1.0
  C  C67  1  0.14228410  0.98664368  0.49343758  1.0
  C  C68  1  0.22358335  0.97507422  0.49054547  1.0
  C  C69  1  0.25706496  0.96950020  0.45818549  1.0
  C  C70  1  0.33210567  0.95708553  0.45572023  1.0
  C  C71  1  0.37514528  0.94984889  0.48571345  1.0
  C  C72  1  0.34130968  0.95628314  0.51814988  1.0
  C  C73  1  0.26642949  0.96877242  0.52045416  1.0
  C  C74  1  0.45072651  0.93586465  0.48390902  1.0
  C  C75  1  0.51549537  0.92289850  0.48383553  1.0
  C  C76  1  0.59073956  0.90811855  0.48485245  1.0
  C  C77  1  0.62738503  0.90324857  0.51671511  1.0
  C  C78  1  0.70235653  0.88902692  0.51812394  1.0
  C  C79  1  0.74088339  0.87995699  0.48746716  1.0
  C  C80  1  0.70436979  0.88412353  0.45552549  1.0
  C  C81  1  0.62926494  0.89820318  0.45431462  1.0
  C  C82  1  0.73872836  0.88216431  0.55010669  1.0
  C  C83  1  0.77078344  0.87336035  0.57686712  1.0
  C  C84  1  0.80744323  0.85904394  0.60708512  1.0
  C  C85  1  0.76518636  0.82032461  0.62933006  1.0
  C  C86  1  0.80232427  0.80337532  0.65775078  1.0
  C  C87  1  0.88214466  0.82471956  0.66476290  1.0
  C  C88  1  0.92402213  0.86402234  0.64314463  1.0
  C  C89  1  0.88726405  0.88108400  0.61458177  1.0
  C  C90  1  0.92277480  0.80359104  0.69398358  1.0
  C  C91  1  0.74281671  0.87251359  0.42501517  1.0
  C  C92  1  0.77631877  0.86021548  0.39948488  1.0
  C  C93  1  0.81504401  0.84334805  0.37060649  1.0
  C  C94  1  0.89789124  0.85884995  0.36658203  1.0
  C  C95  1  0.93607021  0.84025734  0.33899810  1.0
  C  C96  1  0.89268360  0.80554823  0.31501561  1.0
  C  C97  1  0.81016104  0.79050396  0.31862312  1.0
  C  C98  1  0.77157229  0.80932293  0.34596305  1.0
  C  C99  1  0.93431470  0.78301525  0.28667542  1.0
  C  C100  1  0.04235260  0.10035776  0.49993432  1.0
  C  C101  1  0.06295190  0.15915313  0.50007325  1.0
  C  C102  1  0.07201373  0.18684941  0.53135620  1.0
  C  C103  1  0.08622709  0.24181653  0.53158924  1.0
  C  C104  1  0.09172823  0.27025926  0.50034204  1.0
  C  C105  1  0.08553291  0.24210688  0.46896932  1.0
  C  C106  1  0.07101346  0.18717192  0.46892144  1.0
  C  C107  1  0.09977601  0.32600840  0.50018581  1.0
  C  C108  1  0.10210206  0.37374725  0.49939498  1.0
  C  C109  1  0.10321755  0.42892739  0.49792282  1.0
  C  C110  1  0.10266319  0.45418468  0.46586051  1.0
  C  C111  1  0.10330296  0.50883133  0.46410073  1.0
  C  C112  1  0.10455853  0.53836310  0.49455982  1.0
  C  C113  1  0.10356196  0.51326829  0.52668721  1.0
  C  C114  1  0.10318634  0.45861770  0.52829907  1.0
  C  C115  1  0.09962557  0.53429385  0.43197145  1.0
  C  C116  1  0.09336225  0.55756333  0.40510279  1.0
  C  C117  1  0.08314449  0.58587211  0.37473457  1.0
  C  C118  1  0.01644866  0.56920274  0.35352512  1.0
  C  C119  1  0.00436927  0.59867797  0.32479352  1.0
  C  C120  1  0.05821604  0.64523967  0.31663744  1.0
  C  C121  1  0.12539611  0.66151810  0.33727823  1.0
  C  C122  1  0.13796683  0.63214775  0.36599180  1.0
  C  C123  1  0.04188661  0.67850704  0.28716585  1.0
  C  C124  1  0.09935251  0.54298509  0.55710454  1.0
  C  C125  1  0.09149982  0.56926721  0.58250310  1.0
  C  C126  1  0.07838348  0.60023249  0.61124565  1.0
  C  C127  1  0.01010430  0.58477011  0.63172697  1.0
  C  C128  1  0.99531908  0.61627488  0.65903443  1.0
  C  C129  1  0.04808861  0.66363788  0.66648125  1.0
  C  C130  1  0.11656959  0.67887012  0.64647153  1.0
  C  C131  1  0.13172511  0.64757354  0.61912428  1.0
  C  C132  1  0.02982857  0.69856028  0.69468184  1.0
  C  C133  1  0.14228443  0.48664296  0.00656253  1.0
  C  C134  1  0.22358470  0.47507457  0.00945465  1.0
  C  C135  1  0.25706603  0.46950143  0.04181462  1.0
  C  C136  1  0.33210676  0.45708673  0.04427962  1.0
  C  C137  1  0.37514692  0.44984926  0.01428634  1.0
  C  C138  1  0.34131205  0.45628335  0.98184988  1.0
  C  C139  1  0.26643181  0.46877265  0.97954590  1.0
  C  C140  1  0.45072765  0.43586451  0.01609065  1.0
  C  C141  1  0.51549668  0.42289835  0.01616347  1.0
  C  C142  1  0.59074056  0.40811794  0.01514591  1.0
  C  C143  1  0.62738547  0.40324716  0.98328271  1.0
  C  C144  1  0.70235607  0.38902390  0.98187245  1.0
  C  C145  1  0.74088039  0.37995500  0.01253009  1.0
  C  C146  1  0.70436716  0.38412281  0.04447237  1.0
  C  C147  1  0.62926345  0.39820300  0.04568421  1.0
  C  C148  1  0.73872816  0.38215957  0.94988925  1.0
  C  C149  1  0.77078310  0.37335486  0.92312854  1.0
  C  C150  1  0.80744481  0.35903888  0.89291040  1.0
  C  C151  1  0.76518685  0.32031982  0.87066600  1.0
  C  C152  1  0.80232513  0.30337078  0.84224587  1.0
  C  C153  1  0.88214433  0.32471692  0.83523583  1.0
  C  C154  1  0.92402568  0.36401889  0.85685173  1.0
  C  C155  1  0.88726710  0.38108013  0.88541397  1.0
  C  C156  1  0.92277303  0.30358974  0.80601572  1.0
  C  C157  1  0.74281431  0.37251419  0.07498301  1.0
  C  C158  1  0.77631605  0.36021740  0.10051372  1.0
  C  C159  1  0.81504117  0.34335051  0.12939210  1.0
  C  C160  1  0.89788898  0.35885360  0.13341566  1.0
  C  C161  1  0.93606648  0.34026047  0.16099980  1.0
  C  C162  1  0.89267880  0.30555085  0.18498248  1.0
  C  C163  1  0.81015658  0.29050576  0.18137572  1.0
  C  C164  1  0.77156780  0.30932464  0.15403590  1.0
  C  C165  1  0.93430947  0.28301717  0.21332319  1.0
  C  C166  1  0.04235323  0.60035867  0.00006768  1.0
  C  C167  1  0.06295344  0.65915422  0.99992851  1.0
  C  C168  1  0.07201539  0.68685118  0.96864534  1.0
  C  C169  1  0.08622873  0.74181811  0.96841187  1.0
  C  C170  1  0.09173011  0.77026046  0.99965900  1.0
  C  C171  1  0.08553412  0.74210722  0.03103190  1.0
  C  C172  1  0.07101446  0.68717221  0.03108027  1.0
  C  C173  1  0.09977808  0.82600965  0.99981474  1.0
  C  C174  1  0.10210341  0.87374865  0.00060437  1.0
  C  C175  1  0.10321849  0.92892875  0.00207598  1.0
  C  C176  1  0.10266387  0.95418428  0.03413851  1.0
  C  C177  1  0.10330382  0.00883089  0.03589760  1.0
  C  C178  1  0.10455912  0.03836322  0.00543810  1.0
  C  C179  1  0.10356204  0.01327056  0.97331007  1.0
  C  C180  1  0.10318710  0.95861973  0.97169942  1.0
  C  C181  1  0.09962659  0.03429212  0.06802708  1.0
  C  C182  1  0.09336391  0.05755968  0.09489630  1.0
  C  C183  1  0.08314620  0.08586750  0.12526451  1.0
  C  C184  1  0.01644887  0.06919709  0.14647421  1.0
  C  C185  1  0.00436915  0.09867213  0.17520575  1.0
  C  C186  1  0.05821614  0.14523356  0.18336108  1.0
  C  C187  1  0.12539674  0.16151255  0.16271984  1.0
  C  C188  1  0.13796942  0.13214324  0.13400623  1.0
  C  C189  1  0.04188624  0.17850171  0.21283281  1.0
  C  C190  1  0.09935109  0.04298805  0.94289246  1.0
  C  C191  1  0.09149605  0.06927018  0.91749358  1.0
  C  C192  1  0.07838025  0.10023600  0.88875103  1.0
  C  C193  1  0.01010057  0.08477247  0.86827017  1.0
  C  C194  1  0.99531660  0.11627753  0.84096320  1.0
  C  C195  1  0.04808875  0.16363916  0.83351820  1.0
  C  C196  1  0.11656926  0.17887449  0.85352572  1.0
  C  C197  1  0.13172369  0.14757782  0.88087254  1.0
  C  C198  1  0.02983112  0.19856016  0.80531798  1.0
  C  C199  1  0.85771796  0.01335672  0.50656256  1.0
  C  C200  1  0.77641780  0.02492543  0.50945153  1.0
  C  C201  1  0.74293684  0.03049863  0.54181150  1.0
  C  C202  1  0.66789584  0.04291311  0.54427785  1.0
  C  C203  1  0.62485433  0.05015012  0.51428511  1.0
  C  C204  1  0.65868932  0.04371607  0.48184848  1.0
  C  C205  1  0.73356978  0.03122713  0.47954314  1.0
  C  C206  1  0.54927277  0.06413440  0.51609051  1.0
  C  C207  1  0.48450354  0.07710032  0.51616216  1.0
  C  C208  1  0.40925917  0.09188042  0.51514335  1.0
  C  C209  1  0.37261636  0.09675058  0.48328045  1.0
  C  C210  1  0.29764608  0.11097280  0.48187387  1.0
  C  C211  1  0.25911724  0.12004300  0.51253015  1.0
  C  C212  1  0.29562664  0.11587676  0.54447314  1.0
  C  C213  1  0.37073253  0.10179610  0.54568131  1.0
  C  C214  1  0.26127460  0.11783534  0.44989266  1.0
  C  C215  1  0.22921786  0.12664006  0.42313343  1.0
  C  C216  1  0.19255877  0.14095545  0.39291678  1.0
  C  C217  1  0.23482440  0.17967594  0.37067319  1.0
  C  C218  1  0.19768409  0.19662219  0.34225300  1.0
  C  C219  1  0.11786550  0.17527496  0.33524338  1.0
  C  C220  1  0.07598277  0.13597340  0.35685956  1.0
  C  C221  1  0.11273544  0.11891063  0.38542286  1.0
  C  C222  1  0.07723509  0.19640276  0.30602272  1.0
  C  C223  1  0.25717875  0.12748691  0.57498539  1.0
  C  C224  1  0.22367782  0.13978459  0.60051690  1.0
  C  C225  1  0.18495099  0.15665231  0.62939653  1.0
  C  C226  1  0.10210493  0.14115285  0.63342286  1.0
  C  C227  1  0.06392278  0.15974528  0.66100594  1.0
  C  C228  1  0.10730887  0.19445520  0.68498836  1.0
  C  C229  1  0.18983178  0.20949887  0.68138070  1.0
  C  C230  1  0.22841748  0.19067776  0.65404062  1.0
  C  C231  1  0.06567861  0.21698767  0.71332809  1.0
  C  C232  1  0.95764799  0.89964228  0.50006535  1.0
  C  C233  1  0.93704885  0.84084744  0.49992370  1.0
  C  C234  1  0.92798746  0.81315083  0.46864072  1.0
  C  C235  1  0.91377355  0.75818379  0.46840837  1.0
  C  C236  1  0.90827160  0.72974152  0.49965586  1.0
  C  C237  1  0.91446684  0.75789473  0.53102826  1.0
  C  C238  1  0.92898644  0.81282962  0.53107563  1.0
  C  C239  1  0.90022268  0.67399207  0.49981356  1.0
  C  C240  1  0.89789759  0.62625313  0.50060234  1.0
  C  C241  1  0.89678300  0.57107277  0.50207281  1.0
  C  C242  1  0.89733722  0.54581470  0.53413535  1.0
  C  C243  1  0.89669759  0.49116726  0.53589827  1.0
  C  C244  1  0.89544177  0.46163782  0.50543771  1.0
  C  C245  1  0.89643881  0.48673392  0.47331074  1.0
  C  C246  1  0.89681454  0.54138376  0.47169623  1.0
  C  C247  1  0.90037534  0.46570439  0.56802947  1.0
  C  C248  1  0.90663793  0.44243608  0.59489952  1.0
  C  C249  1  0.91685618  0.41412569  0.62526889  1.0
  C  C250  1  0.98355031  0.43079173  0.64647922  1.0
  C  C251  1  0.99563397  0.40131740  0.67521067  1.0
  C  C252  1  0.94178831  0.35475481  0.68336668  1.0
  C  C253  1  0.87460739  0.33847709  0.66272619  1.0
  C  C254  1  0.86203842  0.36784964  0.63401351  1.0
  C  C255  1  0.95811734  0.32148823  0.71283737  1.0
  C  C256  1  0.90064790  0.45701745  0.44289498  1.0
  C  C257  1  0.90850115  0.43073449  0.41749762  1.0
  C  C258  1  0.92161727  0.39977016  0.38875634  1.0
  C  C259  1  0.98990024  0.41523835  0.36827605  1.0
  C  C260  1  0.00468076  0.38373218  0.34096915  1.0
  C  C261  1  0.95190797  0.33637089  0.33352504  1.0
  C  C262  1  0.88342661  0.32113512  0.35353262  1.0
  C  C263  1  0.86826806  0.35242877  0.38088016  1.0
  C  C264  1  0.97016680  0.30144798  0.30532426  1.0
  O  O1  1  0.88453988  0.50941106  0.02386151  1.0
  O  O2  1  0.11758274  0.73525355  0.21078161  1.0
  O  O3  1  0.00473759  0.67516879  0.19969350  1.0
  O  O4  1  0.10652633  0.75480388  0.76917433  1.0
  O  O5  1  0.99196872  0.69765064  0.78229294  1.0
  O  O6  1  0.96080109  0.42303572  0.02911440  1.0
  O  O7  1  0.02245752  0.83723806  0.77041678  1.0
  O  O8  1  0.90752666  0.77900877  0.78126329  1.0
  O  O9  1  0.92179298  0.75749990  0.19913386  1.0
  O  O10  1  0.03358009  0.81755413  0.21197817  1.0
  O  O11  1  0.89525960  0.50888994  0.96547327  1.0
  O  O12  1  0.97147446  0.42246866  0.97070711  1.0
  O  O13  1  0.11546194  0.99058953  0.52386231  1.0
  O  O14  1  0.88242357  0.76474536  0.71078547  1.0
  O  O15  1  0.99526950  0.82482798  0.69969478  1.0
  O  O16  1  0.89346507  0.74520075  0.26917835  1.0
  O  O17  1  0.00802576  0.80235026  0.28229795  1.0
  O  O18  1  0.03919960  0.07696429  0.52911748  1.0
  O  O19  1  0.97754598  0.66276111  0.27042196  1.0
  O  O20  1  0.09248153  0.72098732  0.28126538  1.0
  O  O21  1  0.07820328  0.74250403  0.69913663  1.0
  O  O22  1  0.96641466  0.68245067  0.71198015  1.0
  O  O23  1  0.10473690  0.99110889  0.46547472  1.0
  O  O24  1  0.02852482  0.07752752  0.47071088  1.0
  O  O25  1  0.11546204  0.49058720  0.97613757  1.0
  O  O26  1  0.88241625  0.26474529  0.78921471  1.0
  O  O27  1  0.99526910  0.32482794  0.80030610  1.0
  O  O28  1  0.89346089  0.24520199  0.23082079  1.0
  O  O29  1  0.00802079  0.30235217  0.21770082  1.0
  O  O30  1  0.03920091  0.57696567  0.97088437  1.0
  O  O31  1  0.97754607  0.16275653  0.22957790  1.0
  O  O32  1  0.09247969  0.22098264  0.21873232  1.0
  O  O33  1  0.07820991  0.24250287  0.80086379  1.0
  O  O34  1  0.96641631  0.18244729  0.78802121  1.0
  O  O35  1  0.10473661  0.49110908  0.03452565  1.0
  O  O36  1  0.02852362  0.57752805  0.02929153  1.0
  O  O37  1  0.88454352  0.00941089  0.47613863  1.0
  O  O38  1  0.11758443  0.23524940  0.28922035  1.0
  O  O39  1  0.00473938  0.17516632  0.30031074  1.0
  O  O40  1  0.10653293  0.25480199  0.73082342  1.0
  O  O41  1  0.99196879  0.19764897  0.71770400  1.0
  O  O42  1  0.96080211  0.92303793  0.47088303  1.0
  O  O43  1  0.02245798  0.33723845  0.72957998  1.0
  O  O44  1  0.90751954  0.27900893  0.71873543  1.0
  O  O45  1  0.92179207  0.25750341  0.30086890  1.0
  O  O46  1  0.03358104  0.31755593  0.28802491  1.0
  O  O47  1  0.89526207  0.00889179  0.53452657  1.0
  O  O48  1  0.97147486  0.92247036  0.52928991  1.0
