# generated using pymatgen
data_CuH12C11NO4
_symmetry_space_group_name_H-M   'P 1'
_cell_length_a   9.17562000
_cell_length_b   12.60095000
_cell_length_c   12.60109000
_cell_angle_alpha   66.41338000
_cell_angle_beta   77.94994000
_cell_angle_gamma   77.94981000
_symmetry_Int_Tables_number   1
_chemical_formula_structural   CuH12C11NO4
_chemical_formula_sum   'Cu4 H48 C44 N4 O16'
_cell_volume   1293.00602305
_cell_formula_units_Z   4
loop_
 _symmetry_equiv_pos_site_id
 _symmetry_equiv_pos_as_xyz
  1  'x, y, z'
loop_
 _atom_site_type_symbol
 _atom_site_label
 _atom_site_symmetry_multiplicity
 _atom_site_fract_x
 _atom_site_fract_y
 _atom_site_fract_z
 _atom_site_occupancy
  Cu  Cu0  1  0.31485000  0.22683000  0.17489000  1
  Cu  Cu1  1  0.17050000  0.23979000  0.36976000  1
  Cu  Cu2  1  0.68514000  0.82511000  0.77317000  1
  Cu  Cu3  1  0.82950000  0.63024000  0.76021000  1
  H  H4  1  0.54868000  0.04911000  0.09779000  1
  H  H5  1  0.74489000  0.04363000  0.93096000  1
  H  H6  1  0.59837000  0.41426000  0.75804000  1
  H  H7  1  0.40451000  0.40019000  0.92985000  1
  H  H8  1  0.06921000  0.05737000  0.60876000  1
  H  H9  1  0.87462000  0.04201000  0.77940000  1
  H  H10  1  0.76441000  0.42034000  0.62769000  1
  H  H11  1  0.95652000  0.41536000  0.45935000  1
  H  H12  1  0.51112000  0.46620000  0.33390000  1
  H  H13  1  0.70599000  0.39165000  0.13866000  1
  H  H14  1  0.73964000  0.50071000  0.18193000  1
  H  H15  1  0.48041000  0.61287000  0.12761000  1
  H  H16  1  0.46487000  0.50272000  0.07728000  1
  H  H17  1  0.62615000  0.27544000  0.46950000  1
  H  H18  1  0.73838000  0.24490000  0.34886000  1
  H  H19  1  0.76862000  0.36154000  0.38089000  1
  H  H20  1  0.82026000  0.14884000  0.20159000  1
  H  H21  1  0.74711000  0.96601000  0.35404000  1
  H  H22  1  0.79025000  0.06034000  0.41180000  1
  H  H23  1  0.04304000  0.94640000  0.44147000  1
  H  H24  1  0.00286000  0.84299000  0.39293000  1
  H  H25  1  0.86848000  0.96500000  0.15825000  1
  H  H26  1  0.99729000  0.06372000  0.06937000  1
  H  H27  1  0.05552000  0.93909000  0.18993000  1
  H  H28  1  0.45132000  0.90221000  0.95089000  1
  H  H29  1  0.25512000  0.06904000  0.95637000  1
  H  H30  1  0.40163000  0.24196000  0.58574000  1
  H  H31  1  0.59549000  0.07015000  0.59981000  1
  H  H32  1  0.93079000  0.39124000  0.94263000  1
  H  H33  1  0.12538000  0.22059000  0.95798000  1
  H  H34  1  0.23558000  0.37231000  0.57966000  1
  H  H35  1  0.04348000  0.54065000  0.58464000  1
  H  H36  1  0.48887000  0.66610000  0.53380000  1
  H  H37  1  0.29400000  0.86134000  0.60835000  1
  H  H38  1  0.26036000  0.81807000  0.49929000  1
  H  H39  1  0.51958000  0.87239000  0.38713000  1
  H  H40  1  0.53512000  0.92272000  0.49728000  1
  H  H41  1  0.37384000  0.53049000  0.72456000  1
  H  H42  1  0.26161000  0.65114000  0.75510000  1
  H  H43  1  0.23137000  0.61911000  0.63846000  1
  H  H44  1  0.17973000  0.79841000  0.85116000  1
  H  H45  1  0.25288000  0.64596000  0.03400000  1
  H  H46  1  0.20975000  0.58820000  0.93966000  1
  H  H47  1  0.95696000  0.55853000  0.05360000  1
  H  H48  1  0.99713000  0.60708000  0.15701000  1
  H  H49  1  0.13151000  0.84176000  0.03501000  1
  H  H50  1  0.00270000  0.93063000  0.93628000  1
  H  H51  1  0.94447000  0.81007000  0.06091000  1
  C  C52  1  0.56263000  0.12716000  0.01920000  1
  C  C53  1  0.67300000  0.12558000  0.92537000  1
  C  C54  1  0.68838000  0.22863000  0.82580000  1
  C  C55  1  0.59073000  0.32973000  0.82906000  1
  C  C56  1  0.48243000  0.32343000  0.92583000  1
  C  C57  1  0.99857000  0.13539000  0.61690000  1
  C  C58  1  0.89026000  0.12846000  0.71392000  1
  C  C59  1  0.80224000  0.23119000  0.72268000  1
  C  C60  1  0.82670000  0.33656000  0.62839000  1
  C  C61  1  0.93594000  0.33523000  0.53394000  1
  C  C62  1  0.44801000  0.33313000  0.29719000  1
  C  C63  1  0.56884000  0.39948000  0.29801000  1
  C  C64  1  0.65079000  0.45858000  0.17465000  1
  C  C65  1  0.54488000  0.54868000  0.09078000  1
  C  C66  1  0.62673000  0.61442000  0.97164000  1
  C  C67  1  0.68109000  0.31497000  0.37956000  1
  C  C68  1  0.03546000  0.13761000  0.24375000  1
  C  C69  1  0.90950000  0.07720000  0.23925000  1
  C  C70  1  0.83955000  0.00368000  0.36268000  1
  C  C71  1  0.95159000  0.90636000  0.43422000  1
  C  C72  1  0.88196000  0.84021000  0.55811000  1
  C  C73  1  0.96088000  0.00733000  0.15947000  1
  C  C74  1  0.43736000  0.98080000  0.87284000  1
  C  C75  1  0.32701000  0.07462000  0.87442000  1
  C  C76  1  0.31162000  0.17420000  0.77137000  1
  C  C77  1  0.40927000  0.17093000  0.67027000  1
  C  C78  1  0.51757000  0.07416000  0.67657000  1
  C  C79  1  0.00143000  0.38309000  0.86461000  1
  C  C80  1  0.10974000  0.28608000  0.87154000  1
  C  C81  1  0.19776000  0.27732000  0.76881000  1
  C  C82  1  0.17330000  0.37161000  0.66344000  1
  C  C83  1  0.06405000  0.46606000  0.66477000  1
  C  C84  1  0.55198000  0.70281000  0.66687000  1
  C  C85  1  0.43115000  0.70199000  0.60052000  1
  C  C86  1  0.34921000  0.82535000  0.54142000  1
  C  C87  1  0.45511000  0.90922000  0.45132000  1
  C  C88  1  0.37326000  0.02835000  0.38558000  1
  C  C89  1  0.31891000  0.62044000  0.68503000  1
  C  C90  1  0.96453000  0.75625000  0.86238000  1
  C  C91  1  0.09050000  0.76075000  0.92280000  1
  C  C92  1  0.16045000  0.63732000  0.99632000  1
  C  C93  1  0.04840000  0.56578000  0.09365000  1
  C  C94  1  0.11803000  0.44189000  0.15979000  1
  C  C95  1  0.03912000  0.84053000  0.99266000  1
  N  N96  1  0.46650000  0.22373000  0.01971000  1
  N  N97  1  0.02276000  0.23712000  0.52779000  1
  N  N98  1  0.53349000  0.98029000  0.77627000  1
  N  N99  1  0.97724000  0.47221000  0.76287000  1
  O  O100  1  0.47161000  0.29051000  0.21807000  1
  O  O101  1  0.33368000  0.32389000  0.37665000  1
  O  O102  1  0.60634000  0.72610000  0.93627000  1
  O  O103  1  0.70974000  0.55372000  0.91547000  1
  O  O104  1  0.13903000  0.16349000  0.15614000  1
  O  O105  1  0.02693000  0.15811000  0.33601000  1
  O  O106  1  0.78472000  0.89952000  0.60910000  1
  O  O107  1  0.92638000  0.73051000  0.60257000  1
  O  O108  1  0.52838000  0.78193000  0.70949000  1
  O  O109  1  0.66632000  0.62335000  0.67611000  1
  O  O110  1  0.39365000  0.06373000  0.27390000  1
  O  O111  1  0.29026000  0.08453000  0.44628000  1
  O  O112  1  0.86097000  0.84386000  0.83651000  1
  O  O113  1  0.97307000  0.66399000  0.84189000  1
  O  O114  1  0.21528000  0.39090000  0.10048000  1
  O  O115  1  0.07362000  0.39743000  0.26949000  1
