# generated using pymatgen
data_UH7(CO)6
_symmetry_space_group_name_H-M   'P 1'
_cell_length_a   12.04108000
_cell_length_b   19.19549037
_cell_length_c   19.29261000
_cell_angle_alpha   60.18297086
_cell_angle_beta   89.99683000
_cell_angle_gamma   89.98180467
_symmetry_Int_Tables_number   1
_chemical_formula_structural   UH7(CO)6
_chemical_formula_sum   'U12 H84 C72 O72'
_cell_volume   3868.86895776
_cell_formula_units_Z   12
loop_
 _symmetry_equiv_pos_site_id
 _symmetry_equiv_pos_as_xyz
  1  'x, y, z'
loop_
 _atom_site_type_symbol
 _atom_site_label
 _atom_site_symmetry_multiplicity
 _atom_site_fract_x
 _atom_site_fract_y
 _atom_site_fract_z
 _atom_site_occupancy
  U  U0  1  0.15450000  0.49600000  0.67145000  1
  U  U1  1  0.82679000  0.31429000  0.51548000  1
  U  U2  1  0.53238000  0.16785000  0.82559000  1
  U  U3  1  0.82102000  0.33004000  0.99412000  1
  U  U4  1  0.48719000  0.67176000  0.83166000  1
  U  U5  1  0.15758000  0.51564000  0.17063000  1
  U  U6  1  0.86570000  0.82587000  0.00636000  1
  U  U7  1  0.15884000  0.99359000  0.67621000  1
  U  U8  1  0.82196000  0.83271000  0.49584000  1
  U  U9  1  0.49206000  0.16973000  0.31536000  1
  U  U10  1  0.20039000  0.00488000  0.16968000  1
  U  U11  1  0.48375000  0.67718000  0.32964000  1
  H  H12  1  0.85892000  0.63327000  0.75683000  1
  H  H13  1  0.76710000  0.66419000  0.67472000  1
  H  H14  1  0.70312000  0.52363000  0.72616000  1
  H  H15  1  0.84870000  0.53172000  0.70810000  1
  H  H16  1  0.87221000  0.62616000  0.45518000  1
  H  H17  1  0.81598000  0.63425000  0.53557000  1
  H  H18  1  0.71193000  0.50926000  0.58627000  1
  H  H19  1  0.68722000  0.56515000  0.48362000  1
  H  H20  1  0.87223000  0.24469000  0.27276000  1
  H  H21  1  0.84151000  0.29446000  0.32685000  1
  H  H22  1  0.74456000  0.40429000  0.19138000  1
  H  H23  1  0.89206000  0.40356000  0.19383000  1
  H  H24  1  0.60838000  0.07722000  0.61342000  1
  H  H25  1  0.54391000  0.13084000  0.51785000  1
  H  H26  1  0.41007000  0.10384000  0.62267000  1
  H  H27  1  0.43175000  0.20976000  0.56510000  1
  H  H28  1  0.90285000  0.13336000  0.90199000  1
  H  H29  1  0.86775000  0.03081000  0.95727000  1
  H  H30  1  0.79371000  0.05353000  0.06955000  1
  H  H31  1  0.93756000  0.07001000  0.05353000  1
  H  H32  1  0.29448000  0.29267000  0.92686000  1
  H  H33  1  0.25194000  0.19032000  0.98158000  1
  H  H34  1  0.12454000  0.21850000  0.86135000  1
  H  H35  1  0.08563000  0.26399000  0.91894000  1
  H  H36  1  0.80318000  0.52761000  0.89046000  1
  H  H37  1  0.91698000  0.43887000  0.61573000  1
  H  H38  1  0.66539000  0.16121000  0.68176000  1
  H  H39  1  0.73196000  0.17829000  0.46282000  1
  H  H40  1  0.19256000  0.75636000  0.61053000  1
  H  H41  1  0.10000000  0.67421000  0.66101000  1
  H  H42  1  0.03649000  0.72599000  0.74957000  1
  H  H43  1  0.18179000  0.70752000  0.75961000  1
  H  H44  1  0.20537000  0.45416000  0.91863000  1
  H  H45  1  0.15000000  0.53569000  0.83098000  1
  H  H46  1  0.04636000  0.58669000  0.90471000  1
  H  H47  1  0.02138000  0.48354000  0.95143000  1
  H  H48  1  0.20514000  0.27312000  0.48239000  1
  H  H49  1  0.17479000  0.32764000  0.37901000  1
  H  H50  1  0.07857000  0.19073000  0.40506000  1
  H  H51  1  0.22594000  0.19377000  0.40289000  1
  H  H52  1  0.94170000  0.61371000  0.30891000  1
  H  H53  1  0.87862000  0.51720000  0.34959000  1
  H  H54  1  0.74389000  0.62357000  0.27288000  1
  H  H55  1  0.76453000  0.56424000  0.22613000  1
  H  H56  1  0.23596000  0.90131000  0.96481000  1
  H  H57  1  0.20072000  0.95792000  0.01054000  1
  H  H58  1  0.12710000  0.06997000  0.87640000  1
  H  H59  1  0.27063000  0.05380000  0.87606000  1
  H  H60  1  0.62733000  0.92667000  0.78117000  1
  H  H61  1  0.58564000  0.98297000  0.82751000  1
  H  H62  1  0.45692000  0.86228000  0.91950000  1
  H  H63  1  0.41867000  0.92005000  0.81719000  1
  H  H64  1  0.13874000  0.89128000  0.58196000  1
  H  H65  1  0.25184000  0.61587000  0.94465000  1
  H  H66  1  0.99919000  0.67992000  0.16175000  1
  H  H67  1  0.06404000  0.46309000  0.35688000  1
  H  H68  1  0.52568000  0.61003000  0.63305000  1
  H  H69  1  0.43335000  0.66177000  0.66375000  1
  H  H70  1  0.37022000  0.74976000  0.52350000  1
  H  H71  1  0.51501000  0.76089000  0.53300000  1
  H  H72  1  0.53942000  0.91869000  0.62641000  1
  H  H73  1  0.48333000  0.83025000  0.63352000  1
  H  H74  1  0.37983000  0.90398000  0.50947000  1
  H  H75  1  0.35493000  0.95165000  0.56493000  1
  H  H76  1  0.53860000  0.48224000  0.24471000  1
  H  H77  1  0.50744000  0.37827000  0.29351000  1
  H  H78  1  0.41152000  0.40489000  0.40356000  1
  H  H79  1  0.55913000  0.40301000  0.40232000  1
  H  H80  1  0.27492000  0.30870000  0.07790000  1
  H  H81  1  0.21014000  0.35196000  0.13078000  1
  H  H82  1  0.07642000  0.27348000  0.10364000  1
  H  H83  1  0.09758000  0.22639000  0.20903000  1
  H  H84  1  0.56968000  0.96509000  0.13322000  1
  H  H85  1  0.53478000  0.01081000  0.03166000  1
  H  H86  1  0.46042000  0.87650000  0.05348000  1
  H  H87  1  0.60351000  0.87456000  0.07182000  1
  H  H88  1  0.96097000  0.78051000  0.29213000  1
  H  H89  1  0.91869000  0.82763000  0.19015000  1
  H  H90  1  0.79050000  0.92011000  0.21911000  1
  H  H91  1  0.75270000  0.81690000  0.26377000  1
  H  H92  1  0.47044000  0.58202000  0.52787000  1
  H  H93  1  0.58534000  0.94459000  0.43972000  1
  H  H94  1  0.33269000  0.15890000  0.16012000  1
  H  H95  1  0.39957000  0.35875000  0.17831000  1
  C  C96  1  0.68659000  0.62903000  0.78568000  1
  C  C97  1  0.77974000  0.61849000  0.73850000  1
  C  C98  1  0.78294000  0.53535000  0.74639000  1
  C  C99  1  0.79971000  0.46764000  0.82884000  1
  C  C100  1  0.95069000  0.55362000  0.56475000  1
  C  C101  1  0.84831000  0.58958000  0.51823000  1
  C  C102  1  0.75313000  0.53246000  0.52795000  1
  C  C103  1  0.78154000  0.45901000  0.52143000  1
  C  C104  1  0.70225000  0.24923000  0.29669000  1
  C  C105  1  0.81503000  0.28799000  0.27582000  1
  C  C106  1  0.81819000  0.36772000  0.19757000  1
  C  C107  1  0.81976000  0.35485000  0.12655000  1
  C  C108  1  0.66230000  0.19652000  0.54924000  1
  C  C109  1  0.57244000  0.13567000  0.57015000  1
  C  C110  1  0.47221000  0.15264000  0.60802000  1
  C  C111  1  0.50032000  0.15706000  0.68016000  1
  C  C112  1  0.73177000  0.11083000  0.91093000  1
  C  C113  1  0.84567000  0.09059000  0.94788000  1
  C  C114  1  0.85588000  0.09242000  0.02543000  1
  C  C115  1  0.84185000  0.17541000  0.01424000  1
  C  C116  1  0.35243000  0.21825000  0.88285000  1
  C  C117  1  0.26269000  0.24198000  0.92141000  1
  C  C118  1  0.15047000  0.26206000  0.87931000  1
  C  C119  1  0.15326000  0.34276000  0.80523000  1
  C  C120  1  0.02048000  0.78699000  0.58506000  1
  C  C121  1  0.11294000  0.73840000  0.64303000  1
  C  C122  1  0.11625000  0.74635000  0.71788000  1
  C  C123  1  0.13222000  0.82937000  0.70288000  1
  C  C124  1  0.28584000  0.56335000  0.88243000  1
  C  C125  1  0.18228000  0.51771000  0.89277000  1
  C  C126  1  0.08744000  0.52799000  0.93987000  1
  C  C127  1  0.11535000  0.52155000  0.01953000  1
  C  C128  1  0.03466000  0.29631000  0.45405000  1
  C  C129  1  0.14815000  0.27630000  0.43617000  1
  C  C130  1  0.15215000  0.19726000  0.43509000  1
  C  C131  1  0.15453000  0.12605000  0.51875000  1
  C  C132  1  0.99625000  0.55072000  0.25233000  1
  C  C133  1  0.90631000  0.57069000  0.29314000  1
  C  C134  1  0.80537000  0.60801000  0.23927000  1
  C  C135  1  0.83427000  0.67977000  0.16258000  1
  C  C136  1  0.06461000  0.91110000  0.97780000  1
  C  C137  1  0.17865000  0.94783000  0.96086000  1
  C  C138  1  0.18900000  0.02536000  0.88177000  1
  C  C139  1  0.17355000  0.01353000  0.81076000  1
  C  C140  1  0.68639000  0.88333000  0.89853000  1
  C  C141  1  0.59619000  0.92219000  0.83672000  1
  C  C142  1  0.48360000  0.88020000  0.85852000  1
  C  C143  1  0.48713000  0.80546000  0.85262000  1
  C  C144  1  0.35370000  0.58500000  0.62792000  1
  C  C145  1  0.44650000  0.64328000  0.61811000  1
  C  C146  1  0.45061000  0.71840000  0.53565000  1
  C  C147  1  0.47050000  0.70340000  0.46832000  1
  C  C148  1  0.61872000  0.88156000  0.55393000  1
  C  C149  1  0.51567000  0.89225000  0.58943000  1
  C  C150  1  0.42097000  0.93964000  0.53245000  1
  C  C151  1  0.44922000  0.01910000  0.45926000  1
  C  C152  1  0.36794000  0.45418000  0.24959000  1
  C  C153  1  0.48134000  0.43595000  0.28748000  1
  C  C154  1  0.48506000  0.43491000  0.36704000  1
  C  C155  1  0.48730000  0.51890000  0.35478000  1
  C  C156  1  0.32856000  0.25438000  0.19665000  1
  C  C157  1  0.23874000  0.29442000  0.13583000  1
  C  C158  1  0.13848000  0.23968000  0.15244000  1
  C  C159  1  0.16810000  0.16251000  0.15783000  1
  C  C160  1  0.39791000  0.97798000  0.11100000  1
  C  C161  1  0.51195000  0.96116000  0.09112000  1
  C  C162  1  0.52164000  0.88130000  0.09325000  1
  C  C163  1  0.50481000  0.81018000  0.17558000  1
  C  C164  1  0.01976000  0.89837000  0.21858000  1
  C  C165  1  0.92943000  0.83650000  0.24174000  1
  C  C166  1  0.81718000  0.85880000  0.26203000  1
  C  C167  1  0.81970000  0.85226000  0.34263000  1
  O  O168  1  0.61062000  0.57501000  0.81783000  1
  O  O169  1  0.68422000  0.69216000  0.79193000  1
  O  O170  1  0.80877000  0.39427000  0.84773000  1
  O  O171  1  0.83922000  0.48199000  0.89017000  1
  O  O172  1  0.03529000  0.59367000  0.56554000  1
  O  O173  1  0.94769000  0.47589000  0.63213000  1
  O  O174  1  0.88261000  0.44304000  0.51113000  1
  O  O175  1  0.70392000  0.41045000  0.52986000  1
  O  O176  1  0.68778000  0.18441000  0.36375000  1
  O  O177  1  0.62045000  0.28115000  0.24841000  1
  O  O178  1  0.82229000  0.28344000  0.13739000  1
  O  O179  1  0.82070000  0.41576000  0.05542000  1
  O  O180  1  0.64499000  0.26951000  0.53913000  1
  O  O181  1  0.75255000  0.19374000  0.50334000  1
  O  O182  1  0.43702000  0.18770000  0.71278000  1
  O  O183  1  0.60423000  0.13140000  0.71932000  1
  O  O184  1  0.72344000  0.13390000  0.83614000  1
  O  O185  1  0.64498000  0.10516000  0.95158000  1
  O  O186  1  0.82686000  0.23600000  0.94408000  1
  O  O187  1  0.84665000  0.18519000  0.07512000  1
  O  O188  1  0.45513000  0.22260000  0.90092000  1
  O  O189  1  0.32868000  0.19046000  0.83692000  1
  O  O190  1  0.22863000  0.39324000  0.79863000  1
  O  O191  1  0.08175000  0.36111000  0.74931000  1
  O  O192  1  0.94379000  0.81893000  0.60645000  1
  O  O193  1  0.02010000  0.79455000  0.51544000  1
  O  O194  1  0.14303000  0.84875000  0.75702000  1
  O  O195  1  0.17454000  0.89049000  0.62806000  1
  O  O196  1  0.37042000  0.56253000  0.84254000  1
  O  O197  1  0.28529000  0.63102000  0.89282000  1
  O  O198  1  0.21605000  0.51176000  0.04585000  1
  O  O199  1  0.03690000  0.52952000  0.05931000  1
  O  O200  1  0.01685000  0.36350000  0.45192000  1
  O  O201  1  0.95431000  0.24668000  0.47088000  1
  O  O202  1  0.15658000  0.13777000  0.57850000  1
  O  O203  1  0.15701000  0.05423000  0.52974000  1
  O  O204  1  0.97353000  0.53332000  0.19509000  1
  O  O205  1  0.08695000  0.50493000  0.30223000  1
  O  O206  1  0.77101000  0.71305000  0.09983000  1
  O  O207  1  0.93818000  0.71901000  0.14935000  1
  O  O208  1  0.05641000  0.83601000  0.02970000  1
  O  O209  1  0.97769000  0.95193000  0.94335000  1
  O  O210  1  0.15362000  0.94362000  0.82020000  1
  O  O211  1  0.18257000  0.07445000  0.74049000  1
  O  O212  1  0.78923000  0.90099000  0.87649000  1
  O  O213  1  0.66213000  0.83722000  0.97179000  1
  O  O214  1  0.56479000  0.79715000  0.81156000  1
  O  O215  1  0.41434000  0.74981000  0.88824000  1
  O  O216  1  0.27787000  0.60577000  0.57429000  1
  O  O217  1  0.35164000  0.51592000  0.69075000  1
  O  O218  1  0.48203000  0.75730000  0.39546000  1
  O  O219  1  0.50654000  0.62735000  0.48192000  1
  O  O220  1  0.70288000  0.84068000  0.59415000  1
  O  O221  1  0.61814000  0.89225000  0.47618000  1
  O  O222  1  0.54978000  0.04589000  0.44334000  1
  O  O223  1  0.37117000  0.05804000  0.41096000  1
  O  O224  1  0.35096000  0.45227000  0.18475000  1
  O  O225  1  0.28698000  0.47098000  0.28193000  1
  O  O226  1  0.49404000  0.57909000  0.28394000  1
  O  O227  1  0.48434000  0.52969000  0.41537000  1
  O  O228  1  0.31035000  0.19450000  0.27039000  1
  O  O229  1  0.41997000  0.30293000  0.19270000  1
  O  O230  1  0.10406000  0.09997000  0.18545000  1
  O  O231  1  0.27158000  0.14928000  0.13137000  1
  O  O232  1  0.38976000  0.02855000  0.13616000  1
  O  O233  1  0.31077000  0.94443000  0.10318000  1
  O  O234  1  0.48186000  0.82083000  0.23486000  1
  O  O235  1  0.51596000  0.73946000  0.18552000  1
  O  O236  1  0.12230000  0.87551000  0.22278000  1
  O  O237  1  0.99624000  0.97205000  0.19154000  1
  O  O238  1  0.89515000  0.80842000  0.39257000  1
  O  O239  1  0.74803000  0.88950000  0.36167000  1
