# generated using pymatgen
data_AlCuH3C6N6O5
_symmetry_space_group_name_H-M   'P 1'
_cell_length_a   6.72547500
_cell_length_b   9.21819000
_cell_length_c   12.21653500
_cell_angle_alpha   89.89864000
_cell_angle_beta   90.00000000
_cell_angle_gamma   90.00047000
_symmetry_Int_Tables_number   1
_chemical_formula_structural   AlCuH3C6N6O5
_chemical_formula_sum   'Al2 Cu2 H6 C12 N12 O10'
_cell_volume   757.38374832
_cell_formula_units_Z   2
loop_
 _symmetry_equiv_pos_site_id
 _symmetry_equiv_pos_as_xyz
  1  'x, y, z'
loop_
 _atom_site_type_symbol
 _atom_site_label
 _atom_site_symmetry_multiplicity
 _atom_site_fract_x
 _atom_site_fract_y
 _atom_site_fract_z
 _atom_site_occupancy
  Al  Al0  1  0.00011500  0.00016000  0.00012000  1
  Al  Al1  1  0.50011250  0.99983000  0.99988000  1
  C  C2  1  0.42390000  0.31780000  0.69946000  1
  C  C3  1  0.07940000  0.31016000  0.30561500  1
  C  C4  1  0.57940000  0.68982000  0.69438000  1
  C  C5  1  0.92390000  0.68220000  0.30053000  1
  C  C6  1  0.25454000  0.27064000  0.75536000  1
  C  C7  1  0.24726000  0.25952000  0.25020000  1
  C  C8  1  0.74725000  0.74048000  0.74980000  1
  C  C9  1  0.75454000  0.72936000  0.24464000  1
  C  C10  1  0.24886000  0.17558000  0.85290000  1
  C  C11  1  0.25148000  0.16365000  0.15366000  1
  C  C12  1  0.75154500  0.83634000  0.84634000  1
  C  C13  1  0.74892000  0.82440500  0.14710000  1
  Cu  Cu14  1  0.50320000  0.49928000  0.49488000  1
  Cu  Cu15  1  0.00320000  0.50072000  0.50512000  1
  H  H16  1  0.58020000  0.30022000  0.71668000  1
  H  H17  1  0.92242000  0.29356000  0.29002000  1
  H  H18  1  0.42242000  0.70643000  0.70998000  1
  H  H19  1  0.08020000  0.69976000  0.28332000  1
  H  H20  1  0.24942000  0.81635000  0.96347500  1
  H  H21  1  0.74942000  0.18364000  0.03651500  1
  N  N22  1  0.59041000  0.67692000  0.29670000  1
  N  N23  1  0.91284000  0.68768000  0.69936500  1
  N  N24  1  0.41284000  0.31232000  0.30062000  1
  N  N25  1  0.09040000  0.32307000  0.70329000  1
  N  N26  1  0.15712000  0.39732000  0.61868000  1
  N  N27  1  0.34846000  0.39012000  0.38374000  1
  N  N28  1  0.84846000  0.60988000  0.61626000  1
  N  N29  1  0.65712000  0.60266000  0.38132000  1
  N  N30  1  0.85878000  0.60409500  0.38650000  1
  N  N31  1  0.64688000  0.60916000  0.61062000  1
  N  N32  1  0.14688000  0.39082000  0.38938000  1
  N  N33  1  0.35878000  0.39590000  0.61350000  1
  O  O34  1  0.75001000  0.08754500  0.00450000  1
  O  O35  1  0.41959000  0.13918000  0.88990000  1
  O  O36  1  0.08130000  0.12686000  0.11640000  1
  O  O37  1  0.58127000  0.87314000  0.88360000  1
  O  O38  1  0.91956500  0.86080000  0.11010000  1
  O  O39  1  0.57935000  0.86026000  0.11010000  1
  O  O40  1  0.92033500  0.87320000  0.88372000  1
  O  O41  1  0.42037000  0.12678000  0.11627000  1
  O  O42  1  0.07938500  0.13974000  0.88988000  1
  O  O43  1  0.25002000  0.91244000  0.99550000  1
