# generated using pymatgen
data_NiH14C24(NO2)4
_symmetry_space_group_name_H-M   'P 1'
_cell_length_a   7.45175000
_cell_length_b   15.48888000
_cell_length_c   26.85668000
_cell_angle_alpha   90.00045000
_cell_angle_beta   90.00000000
_cell_angle_gamma   89.79787000
_symmetry_Int_Tables_number   1
_chemical_formula_structural   NiH14C24(NO2)4
_chemical_formula_sum   'Ni4 H56 C96 N16 O32'
_cell_volume   3099.75888362
_cell_formula_units_Z   4
loop_
 _symmetry_equiv_pos_site_id
 _symmetry_equiv_pos_as_xyz
  1  'x, y, z'
loop_
 _atom_site_type_symbol
 _atom_site_label
 _atom_site_symmetry_multiplicity
 _atom_site_fract_x
 _atom_site_fract_y
 _atom_site_fract_z
 _atom_site_occupancy
  Ni  Ni0  1  0.52005000  0.65311000  0.30882000  1
  Ni  Ni1  1  0.97996000  0.34689000  0.80881000  1
  Ni  Ni2  1  0.47865000  0.15233000  0.19052000  1
  Ni  Ni3  1  0.02135000  0.84766000  0.69052000  1
  H  H4  1  0.55515000  0.75901000  0.21766000  1
  H  H5  1  0.75206000  0.77473000  0.36158000  1
  H  H6  1  0.75900000  0.87607000  0.18813000  1
  H  H7  1  0.97162000  0.88978000  0.33783000  1
  H  H8  1  0.23669000  0.89725000  0.28828000  1
  H  H9  1  0.84888000  0.02444000  0.19273000  1
  H  H10  1  0.46375000  0.00529000  0.25871000  1
  H  H11  1  0.09099000  0.12552000  0.16758000  1
  H  H12  1  0.25459000  0.46791000  0.42603000  1
  H  H13  1  0.23664000  0.40291000  0.51076000  1
  H  H14  1  0.73504000  0.60161000  0.46893000  1
  H  H15  1  0.57895000  0.30053000  0.68457000  1
  H  H16  1  0.18161000  0.49753000  0.58882000  1
  H  H17  1  0.08351000  0.43966000  0.67019000  1
  H  H18  1  0.94485000  0.24098000  0.71766000  1
  H  H19  1  0.74794000  0.22526000  0.86158000  1
  H  H20  1  0.74100000  0.12392000  0.68813000  1
  H  H21  1  0.52838000  0.11021000  0.83783000  1
  H  H22  1  0.26331000  0.10274000  0.78828000  1
  H  H23  1  0.65112000  0.97556000  0.69273000  1
  H  H24  1  0.03625000  0.99470000  0.75871000  1
  H  H25  1  0.40901000  0.87447000  0.66758000  1
  H  H26  1  0.24541000  0.53209000  0.92603000  1
  H  H27  1  0.26337000  0.59708000  0.01076000  1
  H  H28  1  0.76496000  0.39838000  0.96893000  1
  H  H29  1  0.92106000  0.69946000  0.18456000  1
  H  H30  1  0.31840000  0.50246000  0.08882000  1
  H  H31  1  0.41650000  0.56034000  0.17019000  1
  H  H32  1  0.44603000  0.25845000  0.28244000  1
  H  H33  1  0.24878000  0.27442000  0.13850000  1
  H  H34  1  0.24124000  0.37589000  0.31191000  1
  H  H35  1  0.02795000  0.38965000  0.16226000  1
  H  H36  1  0.76310000  0.39734000  0.21180000  1
  H  H37  1  0.15019000  0.52415000  0.30720000  1
  H  H38  1  0.53552000  0.50613000  0.24118000  1
  H  H39  1  0.90753000  0.62575000  0.33223000  1
  H  H40  1  0.74486000  0.96744000  0.07376000  1
  H  H41  1  0.76458000  0.90226000  0.98902000  1
  H  H42  1  0.26389000  0.10160000  0.03063000  1
  H  H43  1  0.42374000  0.80032000  0.81508000  1
  H  H44  1  0.81869000  0.99733000  0.91085000  1
  H  H45  1  0.91773000  0.93956000  0.82938000  1
  H  H46  1  0.05397000  0.74155000  0.78244000  1
  H  H47  1  0.25123000  0.72557000  0.63850000  1
  H  H48  1  0.25876000  0.62411000  0.81191000  1
  H  H49  1  0.47205000  0.61035000  0.66226000  1
  H  H50  1  0.73690000  0.60266000  0.71180000  1
  H  H51  1  0.34982000  0.47585000  0.80721000  1
  H  H52  1  0.96448000  0.49386000  0.74118000  1
  H  H53  1  0.59247000  0.37425000  0.83223000  1
  H  H54  1  0.75515000  0.03255000  0.57376000  1
  H  H55  1  0.73542000  0.09774000  0.48902000  1
  H  H56  1  0.23611000  0.89839000  0.53063000  1
  H  H57  1  0.07626000  0.19968000  0.31508000  1
  H  H58  1  0.68131000  0.00267000  0.41085000  1
  H  H59  1  0.58227000  0.06043000  0.32938000  1
  C  C60  1  0.64685000  0.79130000  0.24298000  1
  C  C61  1  0.76019000  0.79924000  0.32366000  1
  C  C62  1  0.76161000  0.85603000  0.22697000  1
  C  C63  1  0.88133000  0.86277000  0.31008000  1
  C  C64  1  0.88620000  0.89105000  0.26046000  1
  C  C65  1  0.02256000  0.95298000  0.24362000  1
  C  C66  1  0.19853000  0.94780000  0.26219000  1
  C  C67  1  0.98301000  0.01694000  0.20830000  1
  C  C68  1  0.32559000  0.00645000  0.24567000  1
  C  C69  1  0.11708000  0.07397000  0.19409000  1
  C  C70  1  0.49770000  0.58333000  0.39250000  1
  C  C71  1  0.49301000  0.54067000  0.44218000  1
  C  C72  1  0.35496000  0.48305000  0.45409000  1
  C  C73  1  0.34494000  0.44702000  0.50151000  1
  C  C74  1  0.47209000  0.46634000  0.53858000  1
  C  C75  1  0.61322000  0.52182000  0.52495000  1
  C  C76  1  0.62482000  0.55858000  0.47776000  1
  C  C77  1  0.26364000  0.33130000  0.73252000  1
  C  C78  1  0.32527000  0.36713000  0.68313000  1
  C  C79  1  0.49229000  0.34385000  0.66366000  1
  C  C80  1  0.54520000  0.37496000  0.61721000  1
  C  C81  1  0.43607000  0.43111000  0.58896000  1
  C  C82  1  0.26938000  0.45421000  0.60959000  1
  C  C83  1  0.21495000  0.42273000  0.65563000  1
  C  C84  1  0.85315000  0.20869000  0.74298000  1
  C  C85  1  0.73981000  0.20075000  0.82366000  1
  C  C86  1  0.73839000  0.14396000  0.72697000  1
  C  C87  1  0.61867000  0.13723000  0.81008000  1
  C  C88  1  0.61380000  0.10895000  0.76046000  1
  C  C89  1  0.47744000  0.04702000  0.74362000  1
  C  C90  1  0.30147000  0.05219000  0.76219000  1
  C  C91  1  0.51699000  0.98306000  0.70830000  1
  C  C92  1  0.17441000  0.99354000  0.74567000  1
  C  C93  1  0.38292000  0.92602000  0.69409000  1
  C  C94  1  0.00230000  0.41667000  0.89249000  1
  C  C95  1  0.00699000  0.45932000  0.94218000  1
  C  C96  1  0.14504000  0.51695000  0.95409000  1
  C  C97  1  0.15507000  0.55297000  0.00150000  1
  C  C98  1  0.02791000  0.53365000  0.03858000  1
  C  C99  1  0.88679000  0.47817000  0.02495000  1
  C  C100  1  0.87518000  0.44142000  0.97776000  1
  C  C101  1  0.23637000  0.66870000  0.23252000  1
  C  C102  1  0.17474000  0.63287000  0.18313000  1
  C  C103  1  0.00772000  0.65614000  0.16366000  1
  C  C104  1  0.95481000  0.62503000  0.11721000  1
  C  C105  1  0.06394000  0.56888000  0.08896000  1
  C  C106  1  0.23063000  0.54578000  0.10959000  1
  C  C107  1  0.28506000  0.57726000  0.15563000  1
  C  C108  1  0.35392000  0.29074000  0.25710000  1
  C  C109  1  0.24024000  0.29890000  0.17642000  1
  C  C110  1  0.23869000  0.35567000  0.27310000  1
  C  C111  1  0.11853000  0.36253000  0.19000000  1
  C  C112  1  0.11360000  0.39075000  0.23962000  1
  C  C113  1  0.97682000  0.45289000  0.25641000  1
  C  C114  1  0.80095000  0.44794000  0.23780000  1
  C  C115  1  0.01611000  0.51686000  0.29163000  1
  C  C116  1  0.67369000  0.50697000  0.25420000  1
  C  C117  1  0.88176000  0.57425000  0.30574000  1
  C  C118  1  0.49983000  0.08346000  0.10666000  1
  C  C119  1  0.50571000  0.04018000  0.05727000  1
  C  C120  1  0.64448000  0.98237000  0.04561000  1
  C  C121  1  0.65543000  0.94626000  0.99825000  1
  C  C122  1  0.52844000  0.96570000  0.96108000  1
  C  C123  1  0.38628000  0.02111000  0.97459000  1
  C  C124  1  0.37380000  0.05804000  0.02171000  1
  C  C125  1  0.73987000  0.83125000  0.76700000  1
  C  C126  1  0.67689000  0.86703000  0.81636000  1
  C  C127  1  0.51021000  0.84367000  0.83588000  1
  C  C128  1  0.45740000  0.87474000  0.88239000  1
  C  C129  1  0.56563000  0.93084000  0.91065000  1
  C  C130  1  0.73176000  0.95407000  0.88999000  1
  C  C131  1  0.78651000  0.92260000  0.84392000  1
  C  C132  1  0.14608000  0.70926000  0.75710000  1
  C  C133  1  0.25976000  0.70109000  0.67642000  1
  C  C134  1  0.26131000  0.64432000  0.77310000  1
  C  C135  1  0.38148000  0.63747000  0.69000000  1
  C  C136  1  0.38640000  0.60925000  0.73962000  1
  C  C137  1  0.52318000  0.54711000  0.75641000  1
  C  C138  1  0.69905000  0.55205000  0.73780000  1
  C  C139  1  0.48390000  0.48313000  0.79163000  1
  C  C140  1  0.82632000  0.49303000  0.75420000  1
  C  C141  1  0.61825000  0.42575000  0.80574000  1
  C  C142  1  0.00018000  0.91653000  0.60666000  1
  C  C143  1  0.99429000  0.95981000  0.55727000  1
  C  C144  1  0.85552000  0.01762000  0.54562000  1
  C  C145  1  0.84457000  0.05374000  0.49825000  1
  C  C146  1  0.97156000  0.03430000  0.46108000  1
  C  C147  1  0.11372000  0.97889000  0.47459000  1
  C  C148  1  0.12620000  0.94195000  0.52171000  1
  C  C149  1  0.76013000  0.16874000  0.26699000  1
  C  C150  1  0.82311000  0.13296000  0.31636000  1
  C  C151  1  0.98979000  0.15633000  0.33588000  1
  C  C152  1  0.04260000  0.12526000  0.38239000  1
  C  C153  1  0.93437000  0.06915000  0.41065000  1
  C  C154  1  0.76824000  0.04592000  0.38998000  1
  C  C155  1  0.71349000  0.07740000  0.34392000  1
  N  N156  1  0.64723000  0.76236000  0.29045000  1
  N  N157  1  0.28522000  0.06917000  0.21252000  1
  N  N158  1  0.75661000  0.54372000  0.56049000  1
  N  N159  1  0.72151000  0.34627000  0.59852000  1
  N  N160  1  0.85277000  0.23763000  0.79045000  1
  N  N161  1  0.21479000  0.93083000  0.71252000  1
  N  N162  1  0.74339000  0.45627000  0.06049000  1
  N  N163  1  0.77850000  0.65373000  0.09852000  1
  N  N164  1  0.35340000  0.26182000  0.20962000  1
  N  N165  1  0.71375000  0.56973000  0.28724000  1
  N  N166  1  0.24298000  0.04331000  0.93912000  1
  N  N167  1  0.28240000  0.84578000  0.90159000  1
  N  N168  1  0.14660000  0.73818000  0.70962000  1
  N  N169  1  0.78625000  0.43026000  0.78724000  1
  N  N170  1  0.25702000  0.95668000  0.43912000  1
  N  N171  1  0.21760000  0.15422000  0.40159000  1
  O  O172  1  0.60851000  0.64513000  0.38464000  1
  O  O173  1  0.39075000  0.55843000  0.35817000  1
  O  O174  1  0.11026000  0.36428000  0.74617000  1
  O  O175  1  0.35456000  0.27670000  0.75530000  1
  O  O176  1  0.90808000  0.55854000  0.54318000  1
  O  O177  1  0.71863000  0.54585000  0.60569000  1
  O  O178  1  0.82831000  0.31502000  0.62914000  1
  O  O179  1  0.75420000  0.35490000  0.55334000  1
  O  O180  1  0.89149000  0.35487000  0.88464000  1
  O  O181  1  0.10926000  0.44156000  0.85817000  1
  O  O182  1  0.38974000  0.63571000  0.24618000  1
  O  O183  1  0.14544000  0.72330000  0.25530000  1
  O  O184  1  0.59192000  0.44145000  0.04318000  1
  O  O185  1  0.78138000  0.45414000  0.10568000  1
  O  O186  1  0.67169000  0.68498000  0.12914000  1
  O  O187  1  0.74581000  0.64509000  0.05334000  1
  O  O188  1  0.39125000  0.14678000  0.11368000  1
  O  O189  1  0.60346000  0.05719000  0.14158000  1
  O  O190  1  0.88968000  0.86647000  0.75271000  1
  O  O191  1  0.65351000  0.77463000  0.74470000  1
  O  O192  1  0.09099000  0.05662000  0.95661000  1
  O  O193  1  0.28151000  0.04768000  0.89402000  1
  O  O194  1  0.17246000  0.81721000  0.87105000  1
  O  O195  1  0.25411000  0.85182000  0.94712000  1
  O  O196  1  0.10875000  0.85321000  0.61368000  1
  O  O197  1  0.89653000  0.94280000  0.64158000  1
  O  O198  1  0.61032000  0.13352000  0.25271000  1
  O  O199  1  0.84649000  0.22537000  0.24470000  1
  O  O200  1  0.40902000  0.94337000  0.45661000  1
  O  O201  1  0.21850000  0.95231000  0.39402000  1
  O  O202  1  0.32754000  0.18278000  0.37105000  1
  O  O203  1  0.24589000  0.14817000  0.44712000  1
