# generated using pymatgen
data_Cu2H3C10O9
_symmetry_space_group_name_H-M   'P 1'
_cell_length_a   10.58058000
_cell_length_b   11.42693000
_cell_length_c   15.92097000
_cell_angle_alpha   106.32431000
_cell_angle_beta   90.35650000
_cell_angle_gamma   94.05518000
_symmetry_Int_Tables_number   1
_chemical_formula_structural   Cu2H3C10O9
_chemical_formula_sum   'Cu8 H12 C40 O36'
_cell_volume   1841.99164724
_cell_formula_units_Z   4
loop_
 _symmetry_equiv_pos_site_id
 _symmetry_equiv_pos_as_xyz
  1  'x, y, z'
loop_
 _atom_site_type_symbol
 _atom_site_label
 _atom_site_symmetry_multiplicity
 _atom_site_fract_x
 _atom_site_fract_y
 _atom_site_fract_z
 _atom_site_occupancy
  Cu  Cu0  1  0.14338000  0.49183000  0.49929000  1
  Cu  Cu1  1  0.85622000  0.47078000  0.99697000  1
  Cu  Cu2  1  0.98508000  0.35384000  0.31553000  1
  Cu  Cu3  1  0.00642000  0.64463000  0.18368000  1
  Cu  Cu4  1  0.85661000  0.50817000  0.50071000  1
  Cu  Cu5  1  0.14379000  0.52923000  0.00302000  1
  Cu  Cu6  1  0.01491000  0.64615000  0.68447000  1
  Cu  Cu7  1  0.99357000  0.35537000  0.81632000  1
  H  H8  1  0.48929000  0.42902000  0.38506000  1
  H  H9  1  0.50093000  0.56011000  0.11351000  1
  H  H10  1  0.01411000  0.99899000  0.15508000  1
  H  H11  1  0.02838000  0.00664000  0.34704000  1
  H  H12  1  0.00910000  0.43378000  0.10126000  1
  H  H13  1  0.00636000  0.56594000  0.39749000  1
  H  H14  1  0.51071000  0.57098000  0.61494000  1
  H  H15  1  0.49907000  0.43989000  0.88649000  1
  H  H16  1  0.98588000  0.00102000  0.84490000  1
  H  H17  1  0.97161000  0.99336000  0.65296000  1
  H  H18  1  0.99086000  0.56625000  0.89872000  1
  H  H19  1  0.99364000  0.43406000  0.60251000  1
  C  C20  1  0.38172000  0.51730000  0.21161000  1
  C  C21  1  0.37838000  0.48086000  0.28901000  1
  C  C22  1  0.49145000  0.45801000  0.32551000  1
  C  C23  1  0.60758000  0.46973000  0.28600000  1
  C  C24  1  0.61129000  0.50803000  0.20948000  1
  C  C25  1  0.49829000  0.53038000  0.17273000  1
  C  C26  1  0.26529000  0.54412000  0.16775000  1
  C  C27  1  0.25811000  0.46140000  0.33462000  1
  C  C28  1  0.72563000  0.44404000  0.32895000  1
  C  C29  1  0.73381000  0.52916000  0.16600000  1
  C  C30  1  0.99419000  0.11004000  0.06781000  1
  C  C31  1  0.98501000  0.11090000  0.97920000  1
  C  C32  1  0.00785000  0.99949000  0.08695000  1
  C  C33  1  0.99732000  0.22523000  0.14217000  1
  C  C34  1  0.96167000  0.22068000  0.94849000  1
  C  C35  1  0.01250000  0.11360000  0.48100000  1
  C  C36  1  0.00521000  0.89017000  0.43174000  1
  C  C37  1  0.01620000  0.00338000  0.41417000  1
  C  C38  1  0.03250000  0.22808000  0.45263000  1
  C  C39  1  0.01818000  0.77592000  0.35839000  1
  C  C40  1  0.61828000  0.48270000  0.78839000  1
  C  C41  1  0.62161000  0.51914000  0.71099000  1
  C  C42  1  0.50855000  0.54199000  0.67449000  1
  C  C43  1  0.39242000  0.53027000  0.71400000  1
  C  C44  1  0.38871000  0.49197000  0.79052000  1
  C  C45  1  0.50171000  0.46962000  0.82727000  1
  C  C46  1  0.73471000  0.45588000  0.83225000  1
  C  C47  1  0.74188000  0.53859000  0.66537000  1
  C  C48  1  0.27436000  0.55595000  0.67105000  1
  C  C49  1  0.26620000  0.47083000  0.83400000  1
  C  C50  1  0.00578000  0.88997000  0.93218000  1
  C  C51  1  0.01497000  0.88911000  0.02079000  1
  C  C52  1  0.99214000  0.00052000  0.91303000  1
  C  C53  1  0.00256000  0.77475000  0.85783000  1
  C  C54  1  0.03832000  0.77931000  0.05146000  1
  C  C55  1  0.98750000  0.88640000  0.51900000  1
  C  C56  1  0.99479000  0.10983000  0.56826000  1
  C  C57  1  0.98379000  0.99662000  0.58583000  1
  C  C58  1  0.96750000  0.77192000  0.54737000  1
  C  C59  1  0.98182000  0.22408000  0.64161000  1
  O  O60  1  0.26834000  0.50754000  0.08408000  1
  O  O61  1  0.18050000  0.60038000  0.21559000  1
  O  O62  1  0.26290000  0.51919000  0.41630000  1
  O  O63  1  0.16991000  0.38885000  0.29089000  1
  O  O64  1  0.81268000  0.39513000  0.27964000  1
  O  O65  1  0.72206000  0.47501000  0.41236000  1
  O  O66  1  0.72994000  0.47393000  0.08398000  1
  O  O67  1  0.82128000  0.59861000  0.21266000  1
  O  O68  1  0.97436000  0.20941000  0.21827000  1
  O  O69  1  0.02591000  0.32712000  0.12997000  1
  O  O70  1  0.86207000  0.27458000  0.97162000  1
  O  O71  1  0.04364000  0.24539000  0.89590000  1
  O  O72  1  0.13177000  0.29740000  0.47965000  1
  O  O73  1  0.94889000  0.23999000  0.39805000  1
  O  O74  1  0.00650000  0.78873000  0.28033000  1
  O  O75  1  0.04280000  0.67867000  0.37429000  1
  O  O76  1  0.99979000  0.51148000  0.08039000  1
  O  O77  1  0.99367000  0.48731000  0.41810000  1
  O  O78  1  0.73165000  0.49246000  0.91591000  1
  O  O79  1  0.81949000  0.39962000  0.78440000  1
  O  O80  1  0.73709000  0.48079000  0.58370000  1
  O  O81  1  0.83008000  0.61116000  0.70909000  1
  O  O82  1  0.18731000  0.60487000  0.72037000  1
  O  O83  1  0.27793000  0.52498000  0.58764000  1
  O  O84  1  0.27007000  0.52607000  0.91602000  1
  O  O85  1  0.17872000  0.40139000  0.78734000  1
  O  O86  1  0.02565000  0.79055000  0.78173000  1
  O  O87  1  0.97379000  0.67290000  0.87003000  1
  O  O88  1  0.13789000  0.72539000  0.02825000  1
  O  O89  1  0.95640000  0.75461000  0.10409000  1
  O  O90  1  0.86823000  0.70260000  0.52035000  1
  O  O91  1  0.05110000  0.76001000  0.60195000  1
  O  O92  1  0.99350000  0.21127000  0.71967000  1
  O  O93  1  0.95720000  0.32133000  0.62571000  1
  O  O94  1  0.00021000  0.48855000  0.91960000  1
  O  O95  1  0.00632000  0.51269000  0.58190000  1
