# generated using pymatgen
data_H16C17(N3O)2
_symmetry_space_group_name_H-M   'P 1'
_cell_length_a   27.73690000
_cell_length_b   27.73690000
_cell_length_c   31.24940000
_cell_angle_alpha   90.00000000
_cell_angle_beta   90.00000000
_cell_angle_gamma   120.00000000
_symmetry_Int_Tables_number   1
_chemical_formula_structural   H16C17(N3O)2
_chemical_formula_sum   'H96 C102 N36 O12'
_cell_volume   20820.35625244
_cell_formula_units_Z   6
loop_
 _symmetry_equiv_pos_site_id
 _symmetry_equiv_pos_as_xyz
  1  'x, y, z'
loop_
 _atom_site_type_symbol
 _atom_site_label
 _atom_site_symmetry_multiplicity
 _atom_site_fract_x
 _atom_site_fract_y
 _atom_site_fract_z
 _atom_site_occupancy
  C  1  1  0.50765150  0.45634150  0.97280500  1
  C  2  1  0.55941650  0.47406750  0.00236200  1
  C  3  1  0.51778550  0.50744050  0.94453900  1
  C  4  1  0.52791250  0.55849650  0.97285300  1
  C  7  1  0.57982700  0.57449600  0.00224600  1
  C  8  1  0.57098950  0.52485050  0.03142200  1
  C  13  1  0.51777550  0.50736350  0.05941900  1
  C  14  1  0.46456400  0.48990500  0.03142500  1
  C  17  1  0.47614050  0.54072750  0.00241200  1
  C  20  1  0.45573400  0.44030100  0.00220600  1
  C  23  1  0.49907450  0.40816950  0.94549000  1
  C  24  1  0.41250500  0.47354200  0.05653600  1
  C  25  1  0.53648650  0.60670650  0.94558700  1
  C  26  1  0.62304150  0.54118250  0.05653000  1
  C  31  1  0.97704100  0.51781000  0.30609300  1
  C  32  1  0.94293850  0.46600650  0.33559700  1
  C  33  1  0.01800850  0.50768050  0.27783000  1
  C  34  1  0.05887650  0.49746350  0.30614700  1
  C  37  1  0.02289450  0.44550750  0.33548900  1
  C  38  1  0.98208000  0.45434000  0.36466000  1
  C  43  1  0.01780650  0.50749950  0.39271200  1
  C  44  1  0.05362700  0.56074800  0.36477200  1
  C  47  1  0.09287800  0.54917900  0.33576100  1
  C  50  1  0.01291250  0.56966750  0.33554600  1
  C  53  1  0.93748550  0.52645450  0.27878000  1
  C  54  1  0.08932700  0.61276100  0.38993400  1
  C  55  1  0.09851000  0.48889000  0.27887900  1
  C  56  1  0.94625350  0.40225850  0.38970700  1
  C  61  1  0.56890900  0.04836500  0.63952300  1
  C  62  1  0.55116800  0.08239300  0.66907500  1
  C  63  1  0.51783750  0.00744850  0.61121200  1
  C  64  1  0.46672850  0.96651250  0.63948100  1
  C  67  1  0.45072250  0.00241950  0.66887700  1
  C  68  1  0.50034050  0.04317850  0.69809600  1
  C  73  1  0.51776500  0.00740400  0.72609500  1
  C  74  1  0.53522100  0.97164800  0.69810300  1
  C  77  1  0.48442750  0.93245650  0.66904300  1
  C  80  1  0.58487550  0.01243050  0.66892500  1
  C  83  1  0.61714350  0.08799450  0.61227100  1
  C  84  1  0.55151900  0.93589900  0.72320900  1
  C  85  1  0.41853600  0.92691700  0.61218500  1
  C  86  1  0.48404250  0.07893550  0.72319200  1
  C  91  1  0.53176600  0.36797900  0.89383900  1
  C  92  1  0.52907950  0.32136150  0.91405300  1
  C  94  1  0.50670050  0.27163350  0.84799100  1
  C  95  1  0.51010550  0.31782450  0.82537100  1
  C  96  1  0.52351950  0.36626250  0.84926900  1
  C  98  1  0.49627600  0.22153900  0.82860000  1
  C  99  1  0.45498750  0.16752050  0.84248300  1
  C  100  1  0.45262050  0.12123150  0.82137400  1
  C  101  1  0.48852550  0.12844250  0.78701800  1
  C  102  1  0.52917800  0.18310300  0.77564900  1
  C  117  1  0.86459350  0.49381450  0.22714400  1
  C  118  1  0.82065600  0.49647500  0.24737500  1
  C  120  1  0.79322300  0.51877600  0.18132200  1
  C  121  1  0.83597650  0.51534350  0.15867600  1
  C  122  1  0.87108700  0.50204600  0.18257000  1
  C  124  1  0.75343550  0.52904250  0.16195600  1
  C  125  1  0.74074650  0.57038950  0.17576100  1
  C  126  1  0.69678650  0.57269150  0.15465600  1
  C  127  1  0.66802650  0.53667150  0.12037400  1
  C  128  1  0.68202700  0.49600000  0.10905600  1
  C  143  1  0.65744050  0.16084850  0.56063500  1
  C  144  1  0.70409150  0.20482050  0.58077900  1
  C  146  1  0.75371400  0.23201500  0.51466600  1
  C  147  1  0.70749750  0.18915550  0.49211900  1
  C  148  1  0.65910800  0.15417500  0.51608100  1
  C  150  1  0.80374650  0.27172250  0.49521300  1
  C  151  1  0.85782200  0.28464900  0.50910500  1
  C  152  1  0.90403250  0.32861350  0.48795500  1
  C  153  1  0.89670050  0.35715350  0.45354200  1
  C  154  1  0.84198900  0.34289300  0.44211800  1
  C  169  1  0.50383250  0.64693950  0.89395300  1
  C  170  1  0.50652300  0.69358300  0.91412100  1
  C  172  1  0.52897950  0.74326150  0.84803200  1
  C  173  1  0.52558150  0.69704750  0.82545200  1
  C  174  1  0.51223350  0.64866650  0.84940200  1
  C  176  1  0.53938850  0.79332850  0.82860300  1
  C  177  1  0.58066150  0.84736450  0.84246600  1
  C  178  1  0.58299800  0.89362500  0.82133400  1
  C  179  1  0.54699700  0.88637000  0.78703900  1
  C  180  1  0.50636800  0.83169600  0.77568600  1
  C  195  1  0.17142950  0.52156550  0.22726200  1
  C  196  1  0.21533700  0.51882600  0.24746400  1
  C  198  1  0.24263750  0.49642750  0.18139000  1
  C  199  1  0.19986650  0.49987450  0.15878100  1
  C  200  1  0.16487900  0.51332400  0.18269200  1
  C  202  1  0.28227350  0.48596550  0.16198100  1
  C  203  1  0.29496300  0.44464300  0.17585400  1
  C  204  1  0.33885550  0.44223850  0.15473000  1
  C  205  1  0.36756000  0.47814200  0.12037400  1
  C  206  1  0.35358900  0.51882300  0.10901400  1
  C  221  1  0.37828250  0.85397750  0.56058400  1
  C  222  1  0.33164700  0.81008900  0.58081800  1
  C  224  1  0.28194400  0.78264400  0.51474900  1
  C  225  1  0.32816600  0.82533900  0.49209900  1
  C  226  1  0.37657650  0.86043250  0.51600100  1
  C  228  1  0.23185900  0.74291200  0.49538900  1
  C  229  1  0.17786100  0.73043600  0.50912400  1
  C  230  1  0.13154600  0.68654300  0.48801300  1
  C  231  1  0.13872500  0.65763800  0.45380100  1
  C  232  1  0.19336100  0.67142400  0.44255600  1
  H  5  1  0.48170000  0.49439500  0.92367000  1
  H  6  1  0.55387400  0.52050900  0.92366900  1
  H  9  1  0.61656350  0.58766750  0.98197800  1
  H  10  1  0.58811350  0.61005950  0.02252900  1
  H  11  1  0.59597750  0.48493650  0.98251500  1
  H  12  1  0.55275000  0.43882300  0.02242000  1
  H  15  1  0.52496550  0.54223950  0.08007600  1
  H  16  1  0.51058250  0.47246350  0.08005300  1
  H  18  1  0.48280050  0.57594150  0.02250400  1
  H  19  1  0.43958350  0.52988350  0.98256700  1
  H  21  1  0.44744650  0.40470950  0.02245600  1
  H  22  1  0.41899950  0.42715650  0.98194000  1
  H  35  1  0.04109800  0.54379600  0.25699700  1
  H  36  1  0.99499500  0.47163000  0.25692400  1
  H  39  1  0.99932600  0.40880700  0.31518700  1
  H  40  1  0.05012750  0.43715650  0.35577400  1
  H  41  1  0.91724600  0.42948800  0.31570900  1
  H  42  1  0.91435750  0.47267450  0.35565200  1
  H  45  1  0.04545600  0.50024700  0.41336800  1
  H  46  1  0.99009750  0.51468250  0.41335200  1
  H  48  1  0.12138900  0.54245400  0.35585400  1
  H  49  1  0.11863900  0.58576400  0.31595500  1
  H  51  1  0.98560600  0.57795100  0.35579600  1
  H  52  1  0.03654500  0.60643000  0.31531500  1
  H  65  1  0.53088700  0.98440900  0.59034400  1
  H  66  1  0.50481250  0.03050150  0.59033800  1
  H  69  1  0.43759700  0.02602200  0.64860800  1
  H  70  1  0.41512650  0.97513950  0.68913400  1
  H  71  1  0.54034450  0.10811950  0.64922600  1
  H  72  1  0.58639250  0.11094050  0.68916500  1
  H  75  1  0.48285800  0.97971500  0.74673000  1
  H  76  1  0.55264800  0.03508100  0.74675400  1
  H  78  1  0.44917850  0.90389750  0.68910800  1
  H  79  1  0.49527100  0.90674400  0.64920000  1
  H  81  1  0.62044500  0.03969400  0.68920900  1
  H  82  1  0.59802800  0.98884600  0.64865900  1
  H  97  1  0.52438900  0.39967800  0.83456500  1
  H  104  1  0.42316400  0.08167700  0.83004200  1
  H  105  1  0.55754850  0.19047150  0.75204100  1
  H  106  1  0.53498600  0.32097900  0.94630600  1
  H  108  1  0.41534850  0.18911550  0.88726400  1
  H  109  1  0.38895450  0.12110150  0.88184500  1
  H  111  1  0.50029700  0.34862400  0.76875000  1
  H  112  1  0.48600950  0.28316850  0.76587900  1
  H  114  1  0.49120400  0.05821700  0.78436400  1
  H  116  1  0.57045200  0.44798700  0.91074200  1
  H  123  1  0.90359950  0.50112750  0.16785300  1
  H  130  1  0.68671200  0.60218300  0.16326800  1
  H  131  1  0.66102450  0.46760050  0.08546800  1
  H  132  1  0.81437900  0.49055600  0.27962800  1
  H  134  1  0.80204550  0.61015350  0.22047500  1
  H  135  1  0.76043350  0.63654850  0.21500000  1
  H  137  1  0.87634200  0.52482200  0.10197100  1
  H  138  1  0.82512600  0.53903700  0.09910000  1
  H  140  1  0.59511450  0.53390250  0.11771500  1
  H  142  1  0.90599050  0.45517350  0.24391200  1
  H  149  1  0.62564000  0.12162300  0.50142800  1
  H  156  1  0.94362150  0.33891650  0.49668800  1
  H  157  1  0.83451950  0.36373250  0.41843700  1
  H  158  1  0.70449200  0.21124100  0.61301400  1
  H  160  1  0.83640750  0.22340250  0.55381600  1
  H  161  1  0.90439850  0.26518250  0.54838800  1
  H  163  1  0.67651000  0.14855500  0.43551000  1
  H  164  1  0.74194800  0.19972700  0.43252700  1
  H  166  1  0.96703700  0.42997400  0.45091100  1
  H  168  1  0.57737750  0.11945850  0.57736500  1
  H  175  1  0.51127050  0.61519350  0.83471800  1
  H  182  1  0.61239750  0.93319250  0.83002200  1
  H  183  1  0.47798650  0.82429650  0.75208100  1
  H  184  1  0.50055650  0.69398250  0.94636300  1
  H  186  1  0.62033250  0.82582150  0.88725600  1
  H  187  1  0.64670550  0.89383150  0.88180500  1
  H  189  1  0.53517450  0.66610050  0.76881600  1
  H  190  1  0.54939050  0.73152650  0.76586400  1
  H  192  1  0.54429450  0.95658050  0.78437800  1
  H  194  1  0.46517100  0.56691700  0.91076200  1
  H  201  1  0.13234550  0.51422850  0.16799700  1
  H  208  1  0.34892550  0.41275950  0.16338600  1
  H  209  1  0.37459650  0.54718550  0.08540400  1
  H  210  1  0.22163700  0.52472600  0.27971800  1
  H  212  1  0.23373400  0.40503700  0.22064200  1
  H  213  1  0.27531000  0.37859300  0.21520500  1
  H  215  1  0.15924750  0.49010250  0.10217200  1
  H  216  1  0.21037850  0.47576150  0.09928300  1
  H  218  1  0.44045100  0.48086400  0.11771800  1
  H  220  1  0.13018000  0.56031600  0.24418400  1
  H  227  1  0.41003300  0.89291300  0.50127700  1
  H  234  1  0.09200850  0.67662750  0.49657000  1
  H  235  1  0.20069050  0.65031950  0.41901000  1
  H  236  1  0.33125900  0.80384400  0.61307400  1
  H  238  1  0.19954000  0.79183100  0.55377400  1
  H  239  1  0.13150750  0.75040850  0.54825100  1
  H  241  1  0.35911200  0.86562900  0.43537800  1
  H  242  1  0.29366200  0.81445300  0.43250500  1
  H  244  1  0.06865950  0.58469450  0.45108400  1
  H  246  1  0.45832000  0.89537300  0.57737100  1
  N  93  1  0.51704850  0.27574950  0.89071400  1
  N  103  1  0.53171200  0.22678500  0.79664700  1
  N  107  1  0.41731550  0.15859850  0.87375900  1
  N  110  1  0.49905450  0.31676650  0.78286300  1
  N  113  1  0.48587550  0.08388650  0.76659600  1
  N  115  1  0.53818550  0.41197850  0.91719400  1
  N  119  1  0.78702550  0.50844650  0.22404600  1
  N  129  1  0.72322100  0.49353800  0.13004500  1
  N  133  1  0.76955200  0.60816100  0.20696500  1
  N  136  1  0.84593550  0.52637050  0.11616600  1
  N  139  1  0.62612600  0.53930100  0.09993200  1
  N  141  1  0.90215000  0.48735100  0.25049500  1
  N  145  1  0.74965800  0.23836000  0.55738100  1
  N  155  1  0.79838200  0.30171700  0.46316100  1
  N  159  1  0.86686500  0.25611700  0.54049400  1
  N  162  1  0.70848750  0.17901750  0.44963500  1
  N  165  1  0.94115850  0.39914750  0.43309700  1
  N  167  1  0.61342200  0.12343500  0.58406600  1
  N  171  1  0.51859100  0.73918100  0.89074700  1
  N  181  1  0.50390550  0.78803950  0.79667300  1
  N  185  1  0.61834950  0.85632350  0.87373500  1
  N  188  1  0.53669900  0.69806900  0.78296300  1
  N  191  1  0.54960100  0.93089800  0.76661000  1
  N  193  1  0.49733700  0.60294200  0.91735100  1
  N  197  1  0.24888700  0.50676500  0.22411400  1
  N  207  1  0.31246900  0.52139400  0.13002500  1
  N  211  1  0.26620300  0.40697800  0.20712800  1
  N  214  1  0.18985250  0.48883150  0.11627500  1
  N  217  1  0.40943400  0.47545400  0.09993900  1
  N  219  1  0.13388200  0.52802500  0.25062600  1
  N  223  1  0.28603950  0.77647950  0.55748600  1
  N  233  1  0.23706700  0.71256800  0.46354200  1
  N  237  1  0.16898700  0.75938400  0.54026000  1
  N  240  1  0.32713200  0.83526300  0.44958000  1
  N  243  1  0.09412300  0.61583600  0.43334600  1
  N  245  1  0.42230050  0.89154150  0.58393800  1
  O  27  1  0.36559300  0.45893500  0.03363000  1
  O  28  1  0.45163950  0.35837850  0.95010800  1
  O  29  1  0.66995550  0.55578950  0.03362400  1
  O  30  1  0.58388150  0.65651750  0.95028500  1
  O  57  1  0.12161400  0.65972300  0.36707300  1
  O  58  1  0.93509850  0.57386350  0.28347800  1
  O  59  1  0.91394650  0.35539550  0.36674700  1
  O  60  1  0.10081450  0.44142450  0.28348400  1
  O  87  1  0.56610400  0.90357900  0.70029500  1
  O  88  1  0.66694400  0.09039700  0.61699800  1
  O  89  1  0.46938350  0.11119450  0.70027400  1
  O  90  1  0.36874500  0.92455600  0.61683500  1
