# generated using pymatgen
data_Cu2H60C44N10O11
_symmetry_space_group_name_H-M   'P 1'
_cell_length_a   10.94866000
_cell_length_b   11.77908000
_cell_length_c   13.03022000
_cell_angle_alpha   100.21415000
_cell_angle_beta   91.87418000
_cell_angle_gamma   93.86475000
_symmetry_Int_Tables_number   1
_chemical_formula_structural   Cu2H60C44N10O11
_chemical_formula_sum   'Cu2 H60 C44 N10 O11'
_cell_volume   1648.34400292
_cell_formula_units_Z   1
loop_
 _symmetry_equiv_pos_site_id
 _symmetry_equiv_pos_as_xyz
  1  'x, y, z'
loop_
 _atom_site_type_symbol
 _atom_site_label
 _atom_site_symmetry_multiplicity
 _atom_site_fract_x
 _atom_site_fract_y
 _atom_site_fract_z
 _atom_site_occupancy
  Cu  Cu0  1  0.49065000  0.38407000  0.49227000  1
  Cu  Cu1  1  0.50935000  0.61593000  0.50773000  1
  H  H2  1  0.12840000  0.69178000  0.54518000  1
  H  H3  1  0.08080000  0.31888000  0.50296000  1
  H  H4  1  0.89746000  0.36880000  0.36049000  1
  H  H5  1  0.10176000  0.39407000  0.35450000  1
  H  H6  1  0.89897000  0.63211000  0.63205000  1
  H  H7  1  0.83326000  0.18566000  0.62900000  1
  H  H8  1  0.98641000  0.19883000  0.59224000  1
  H  H9  1  0.93290000  0.09387000  0.41500000  1
  H  H10  1  0.88510000  0.01084000  0.51269000  1
  H  H11  1  0.77371000  0.08180000  0.44576000  1
  H  H12  1  0.18659000  0.61746000  0.36285000  1
  H  H13  1  0.88170000  0.50628000  0.33437000  1
  H  H14  1  0.12589000  0.60637000  0.18482000  1
  H  H15  1  0.01847000  0.48558000  0.19151000  1
  H  H16  1  0.18192000  0.46979000  0.20152000  1
  H  H17  1  0.48396000  0.79555000  0.11226000  1
  H  H18  1  0.69867000  0.74326000  0.14370000  1
  H  H19  1  0.68645000  0.89058000  0.12604000  1
  H  H20  1  0.73105000  0.78407000  0.01976000  1
  H  H21  1  0.62665000  0.78732000  0.86082000  1
  H  H22  1  0.42644000  0.86284000  0.77601000  1
  H  H23  1  0.49604000  0.92164000  0.90250000  1
  H  H24  1  0.52113000  0.64973000  0.19375000  1
  H  H25  1  0.36989000  0.81417000  0.89125000  1
  H  H26  1  0.65697000  0.30070000  0.62520000  1
  H  H27  1  0.48840000  0.18493000  0.74336000  1
  H  H28  1  0.64268000  0.14752000  0.76784000  1
  H  H29  1  0.61288000  0.29403000  0.79223000  1
  H  H30  1  0.79006000  0.46215000  0.68078000  1
  H  H31  1  0.84810000  0.40702000  0.82763000  1
  H  H32  1  0.00133000  0.45581000  0.80694000  1
  H  H33  1  0.94211000  0.30826000  0.75451000  1
  H  H34  1  0.36266000  0.19256000  0.26986000  1
  H  H35  1  0.44640000  0.28156000  0.15128000  1
  H  H36  1  0.18071000  0.06771000  0.27746000  1
  H  H37  1  0.14515000  0.21402000  0.28384000  1
  H  H38  1  0.15258000  0.15486000  0.40255000  1
  H  H39  1  0.70404000  0.93416000  0.77589000  1
  H  H40  1  0.82907000  0.93275000  0.68738000  1
  H  H41  1  0.93602000  0.82081000  0.76918000  1
  H  H42  1  0.83774000  0.85373000  0.87410000  1
  H  H43  1  0.80596000  0.72052000  0.78141000  1
  H  H44  1  0.29725000  0.33519000  0.66162000  1
  H  H45  1  0.18885000  0.22923000  0.59158000  1
  H  H46  1  0.42059000  0.27040000  0.96328000  1
  H  H47  1  0.09956000  0.19469000  0.75359000  1
  H  H48  1  0.26251000  0.19423000  0.76827000  1
  H  H49  1  0.18802000  0.31981000  0.82825000  1
  H  H50  1  0.91161000  0.79350000  0.56808000  1
  H  H51  1  0.90477000  0.82933000  0.40147000  1
  H  H52  1  0.91228000  0.68372000  0.34630000  1
  H  H53  1  0.04614000  0.76704000  0.41671000  1
  H  H54  1  0.05953000  0.69011000  0.73036000  1
  H  H55  1  0.23732000  0.66666667  0.81029000  1
  H  H56  1  0.28431000  0.71450000  0.69161000  1
  H  H57  1  0.42621000  0.36448000  0.81344000  1
  H  H58  1  0.27623000  0.56249000  0.70435000  1
  H  H59  1  0.69489000  0.03041000  0.63357000  1
  H  H60  1  0.32026000  0.96648000  0.34283000  1
  H  H61  1  0.38184000  0.78793000  0.40351000  1
  C  C62  1  0.50078000  0.52287000  0.70154000  1
  C  C63  1  0.46113000  0.45417000  0.96955000  1
  C  C64  1  0.49137000  0.56228000  0.03464000  1
  C  C65  1  0.74029000  0.49906000  0.49755000  1
  C  C66  1  0.50007000  0.56766000  0.14241000  1
  C  C67  1  0.45688000  0.36031000  0.12012000  1
  C  C68  1  0.44247000  0.35398000  0.01275000  1
  C  C69  1  0.62051000  0.97768000  0.59080000  1
  C  C70  1  0.61098000  0.85617000  0.58639000  1
  C  C71  1  0.44779000  0.84183000  0.45792000  1
  C  C72  1  0.45502000  0.96420000  0.46452000  1
  C  C73  1  0.12269000  0.50025000  0.50999000  1
  C  C74  1  0.53863000  0.03300000  0.53565000  1
  C  C75  1  0.54303000  0.15620000  0.54838000  1
  C  C76  1  0.39416000  0.14190000  0.40911000  1
  C  C77  1  0.49531000  0.47839000  0.29914000  1
  C  C78  1  0.38291000  0.01931000  0.40078000  1
  C  C79  1  0.26046000  0.50050000  0.50515000  1
  C  C80  1  0.92178000  0.40252000  0.56938000  1
  C  C81  1  0.06688000  0.39751000  0.56114000  1
  C  C82  1  0.92629000  0.46128000  0.39112000  1
  C  C83  1  0.94009000  0.61923000  0.55467000  1
  C  C84  1  0.06848000  0.47718000  0.39362000  1
  C  C85  1  0.87926000  0.49659000  0.50223000  1
  C  C86  1  0.89106000  0.19601000  0.56320000  1
  C  C87  1  0.86917000  0.08889000  0.47882000  1
  C  C88  1  0.10856000  0.52951000  0.22223000  1
  C  C89  1  0.67149000  0.79855000  0.08740000  1
  C  C90  1  0.45309000  0.84141000  0.85277000  1
  C  C91  1  0.58712000  0.21119000  0.73879000  1
  C  C92  1  0.92094000  0.39933000  0.76986000  1
  C  C93  1  0.19375000  0.15547000  0.32603000  1
  C  C94  1  0.76270000  0.87788000  0.72367000  1
  C  C95  1  0.08117000  0.61727000  0.57283000  1
  C  C96  1  0.83951000  0.81303000  0.79055000  1
  C  C97  1  0.20173000  0.30084000  0.65990000  1
  C  C98  1  0.18645000  0.24977000  0.75872000  1
  C  C99  1  0.94547000  0.74891000  0.41415000  1
  C  C100  1  0.23397000  0.64487000  0.72382000  1
  C  C101  1  0.48489000  0.46744000  0.18555000  1
  C  C102  1  0.49023000  0.54120000  0.81632000  1
  C  C103  1  0.51497000  0.66193000  0.99039000  1
  C  C104  1  0.51209000  0.65192000  0.88114000  1
  C  C105  1  0.45513000  0.44628000  0.86193000  1
  N  N106  1  0.47657000  0.20987000  0.48064000  1
  N  N107  1  0.10836000  0.63019000  0.68549000  1
  N  N108  1  0.52343000  0.79012000  0.51936000  1
  N  N109  1  0.10902000  0.56593000  0.33441000  1
  N  N110  1  0.54367000  0.77299000  0.05379000  1
  N  N111  1  0.53989000  0.75270000  0.83777000  1
  N  N112  1  0.61673000  0.22251000  0.63315000  1
  N  N113  1  0.87878000  0.43821000  0.67621000  1
  N  N114  1  0.32256000  0.19444000  0.34025000  1
  N  N115  1  0.90420000  0.72006000  0.51153000  1
  O  O116  1  0.49336000  0.41800000  0.64554000  1
  O  O117  1  0.68914000  0.80046000  0.64576000  1
  O  O118  1  0.12564000  0.39417000  0.65972000  1
  O  O119  1  0.50916000  0.61380000  0.65859000  1
  O  O120  1  0.67441000  0.40210000  0.49349000  1
  O  O121  1  0.69021000  0.59790000  0.50655000  1
  O  O122  1  0.49084000  0.38620000  0.34141000  1
  O  O123  1  0.50664000  0.58200000  0.35446000  1
  O  O124  1  0.30979000  0.40210000  0.49345000  1
  O  O125  1  0.32559000  0.59790000  0.50651000  1
  O  O126  1  0.86086000  0.29379000  0.52092000  1
