# generated using pymatgen
data_H14C24N3O2
_symmetry_space_group_name_H-M   'P 1'
_cell_length_a   39.33760000
_cell_length_b   39.33760000
_cell_length_c   39.33760000
_cell_angle_alpha   90.00000000
_cell_angle_beta   90.00000000
_cell_angle_gamma   90.00000000
_symmetry_Int_Tables_number   1
_chemical_formula_structural   H14C24N3O2
_chemical_formula_sum   'H168 C288 N36 O24'
_cell_volume   60872.84220746
_cell_formula_units_Z   12
loop_
 _symmetry_equiv_pos_site_id
 _symmetry_equiv_pos_as_xyz
  1  'x, y, z'
loop_
 _atom_site_type_symbol
 _atom_site_label
 _atom_site_symmetry_multiplicity
 _atom_site_fract_x
 _atom_site_fract_y
 _atom_site_fract_z
 _atom_site_occupancy
  H  9  1  0.03203700  0.57975800  0.42276600  1
  H  17  1  0.99002200  0.41279800  0.57804500  1
  H  19  1  0.99522100  0.53352800  0.58145600  1
  H  20  1  0.00399900  0.57681000  0.54075800  1
  H  21  1  0.01797200  0.41577800  0.46069900  1
  H  22  1  0.03080100  0.45887700  0.42091300  1
  H  35  1  0.42526200  0.03467200  0.58561000  1
  H  43  1  0.57413000  0.98178300  0.41582900  1
  H  45  1  0.58119200  0.99193400  0.53593500  1
  H  46  1  0.54223200  0.00399900  0.58001500  1
  H  47  1  0.45725700  0.01270700  0.42108800  1
  H  48  1  0.41930900  0.02836000  0.46485800  1
  H  61  1  0.58643900  0.42430700  0.03030100  1
  H  69  1  0.41539400  0.57528700  0.98868000  1
  H  71  1  0.53574700  0.58201300  0.99612600  1
  H  72  1  0.58012700  0.54258000  0.00530800  1
  H  73  1  0.42157900  0.45666000  0.01142200  1
  H  74  1  0.46568200  0.41806100  0.02440900  1
  H  87  1  0.49240200  0.07751600  0.91229800  1
  H  95  1  0.49103400  0.92004100  0.08284900  1
  H  97  1  0.48706800  0.04086100  0.07714400  1
  H  98  1  0.48725900  0.08148000  0.03327500  1
  H  99  1  0.49314100  0.91604200  0.96176700  1
  H  100  1  0.49369300  0.95665200  0.91793400  1
  H  113  1  0.91185800  0.49325300  0.07931400  1
  H  121  1  0.08321500  0.49155800  0.92272800  1
  H  123  1  0.07684200  0.48740100  0.04348400  1
  H  124  1  0.03276200  0.48766100  0.08388100  1
  H  125  1  0.96216900  0.49437700  0.91807100  1
  H  126  1  0.91813400  0.49501200  0.95845200  1
  H  139  1  0.07855800  0.91577300  0.50690200  1
  H  147  1  0.91786500  0.08305600  0.49965900  1
  H  149  1  0.03919400  0.07971800  0.49927800  1
  H  150  1  0.08043800  0.03664200  0.49998500  1
  H  151  1  0.91616900  0.96235200  0.50775900  1
  H  152  1  0.95748100  0.91948700  0.51114000  1
  H  163  1  0.99576800  0.53555100  0.34241500  1
  H  170  1  0.97938900  0.44411200  0.22027900  1
  H  171  1  0.98119900  0.45232600  0.16076100  1
  H  172  1  0.98729200  0.55830600  0.17522500  1
  H  173  1  0.93713400  0.44670800  0.33307600  1
  H  176  1  0.96228000  0.56883200  0.25017600  1
  H  177  1  0.00175800  0.57956000  0.23141600  1
  H  178  1  0.00776300  0.56971700  0.29355900  1
  H  179  1  0.03253300  0.54071700  0.26977000  1
  H  185  1  0.99076200  0.53413300  0.11800600  1
  H  186  1  0.96009900  0.48862200  0.39909900  1
  H  193  1  0.98528100  0.52684500  0.65911000  1
  H  200  1  0.02189700  0.44630300  0.78253100  1
  H  201  1  0.02097200  0.45543500  0.84174900  1
  H  202  1  0.00109400  0.55955400  0.82573700  1
  H  203  1  0.05665600  0.44812600  0.66917200  1
  H  206  1  0.02207800  0.57101900  0.74923000  1
  H  207  1  0.98230000  0.57744500  0.76923600  1
  H  208  1  0.97621400  0.56498400  0.70720900  1
  H  209  1  0.95485500  0.53474500  0.73274400  1
  H  215  1  0.00544800  0.53724400  0.88371400  1
  H  216  1  0.01460600  0.45590700  0.61808300  1
  H  223  1  0.34149000  0.99843200  0.53892700  1
  H  230  1  0.21618800  0.98384300  0.45139800  1
  H  231  1  0.15699200  0.98610000  0.46163000  1
  H  232  1  0.17507000  0.99226700  0.56705300  1
  H  233  1  0.32838600  0.93956400  0.45072200  1
  H  236  1  0.24997200  0.96681300  0.57521600  1
  H  237  1  0.23210800  0.00662200  0.58625600  1
  H  238  1  0.29396800  0.01173500  0.57437700  1
  H  239  1  0.26957900  0.03660600  0.54597100  1
  H  245  1  0.11691900  0.99591800  0.54468000  1
  H  246  1  0.39601600  0.96112600  0.49077700  1
  H  253  1  0.65586900  0.98007300  0.52805500  1
  H  260  1  0.78114100  0.01815100  0.45116900  1
  H  261  1  0.83996200  0.01892300  0.46245600  1
  H  262  1  0.82065500  0.00076200  0.56634400  1
  H  263  1  0.66695000  0.05010600  0.44825600  1
  H  266  1  0.74323300  0.01994600  0.57456000  1
  H  267  1  0.76405500  0.98087300  0.58255700  1
  H  268  1  0.70276000  0.97275100  0.56791500  1
  H  269  1  0.72999100  0.95161100  0.53903100  1
  H  275  1  0.87924300  0.00690300  0.54630900  1
  H  276  1  0.61645900  0.00493200  0.45590500  1
  H  283  1  0.53920400  0.33962200  0.99453700  1
  H  290  1  0.44557900  0.21886800  0.97917800  1
  H  291  1  0.45280900  0.15923000  0.98147600  1
  H  292  1  0.55893600  0.17202700  0.98871300  1
  H  293  1  0.45097600  0.33093000  0.93488900  1
  H  296  1  0.57114100  0.24639800  0.96342400  1
  H  297  1  0.58081300  0.22800600  0.00334800  1
  H  298  1  0.57201800  0.29039400  0.00833900  1
  H  299  1  0.54216100  0.26746400  0.03289700  1
  H  305  1  0.53384000  0.11521200  0.99194700  1
  H  306  1  0.49422700  0.39646300  0.95670100  1
  H  313  1  0.53054300  0.65684700  0.98910000  1
  H  320  1  0.44548200  0.78055400  0.01493600  1
  H  321  1  0.45459600  0.83983300  0.01475400  1
  H  322  1  0.56010800  0.82393700  0.00442800  1
  H  323  1  0.44547200  0.66775600  0.05261300  1
  H  326  1  0.57011400  0.74790500  0.02638100  1
  H  327  1  0.57950700  0.76739800  0.98692900  1
  H  328  1  0.56802200  0.70523600  0.98064200  1
  H  329  1  0.53930600  0.73027600  0.95676400  1
  H  335  1  0.53687300  0.88195500  0.00526700  1
  H  336  1  0.45847700  0.61382200  0.01717800  1
  H  343  1  0.52657300  0.02737800  0.65941500  1
  H  350  1  0.45641300  0.97393600  0.78255900  1
  H  351  1  0.46489600  0.98010300  0.84161700  1
  H  352  1  0.56339200  0.01838400  0.82388900  1
  H  353  1  0.45949700  0.94476000  0.66801500  1
  H  356  1  0.57781400  0.99343900  0.74668300  1
  H  357  1  0.58047800  0.03337900  0.76716200  1
  H  358  1  0.56504500  0.03921700  0.70607000  1
  H  359  1  0.53290200  0.05588100  0.73278500  1
  H  365  1  0.54314500  0.00772700  0.88204200  1
  H  366  1  0.47927200  0.96626600  0.61199000  1
  H  373  1  0.54413600  0.97623900  0.33527000  1
  H  380  1  0.45436200  0.01629000  0.21764200  1
  H  381  1  0.45948400  0.01198200  0.15782700  1
  H  382  1  0.56163300  0.98144300  0.16838400  1
  H  383  1  0.47136100  0.05413200  0.33120700  1
  H  386  1  0.58006600  0.00492300  0.24375100  1
  H  387  1  0.58249900  0.96483800  0.22346000  1
  H  388  1  0.57263000  0.95809100  0.28530500  1
  H  389  1  0.53829400  0.94128500  0.26166100  1
  H  395  1  0.53798200  0.99415800  0.11249300  1
  H  396  1  0.50981300  0.04324500  0.38247900  1
  H  403  1  0.00576800  0.34149800  0.46321300  1
  H  410  1  0.97971700  0.21837900  0.54602500  1
  H  411  1  0.98605400  0.15928700  0.53807800  1
  H  412  1  0.99878000  0.17433300  0.43268500  1
  H  413  1  0.93709300  0.32879200  0.54408000  1
  H  416  1  0.97136300  0.24958600  0.42112400  1
  H  417  1  0.01173700  0.23156800  0.41279300  1
  H  418  1  0.01545900  0.29383100  0.42479500  1
  H  419  1  0.03925700  0.26962200  0.45431300  1
  H  425  1  0.99761800  0.11721600  0.45585900  1
  H  426  1  0.94890100  0.38635600  0.51171200  1
  H  433  1  0.99517300  0.66006300  0.45595100  1
  H  440  1  0.01446900  0.77761700  0.55212600  1
  H  441  1  0.01010700  0.83733900  0.54676700  1
  H  442  1  0.99702100  0.82729800  0.44086300  1
  H  443  1  0.06155300  0.66699600  0.53931100  1
  H  446  1  0.02251300  0.75326400  0.42508700  1
  H  447  1  0.98205500  0.77184700  0.41844700  1
  H  448  1  0.97723800  0.70942800  0.42642200  1
  H  449  1  0.95522900  0.73173800  0.45863000  1
  H  455  1  0.99759300  0.88276600  0.46636800  1
  H  456  1  0.05702700  0.61436900  0.50612700  1
  H  463  1  0.33543000  0.54299700  0.97799100  1
  H  470  1  0.21747800  0.45392500  0.01890100  1
  H  471  1  0.15766800  0.45945100  0.01500700  1
  H  472  1  0.16872300  0.56132600  0.98372600  1
  H  473  1  0.33126100  0.47073800  0.05636800  1
  H  476  1  0.24430300  0.57945100  0.00645600  1
  H  477  1  0.22383000  0.58160100  0.96644400  1
  H  478  1  0.28557700  0.57132600  0.95947400  1
  H  479  1  0.26165800  0.53695500  0.94314400  1
  H  485  1  0.11276500  0.53812900  0.99721100  1
  H  486  1  0.38263400  0.50830800  0.04538600  1
  H  493  1  0.65932600  0.52722100  0.02647700  1
  H  500  1  0.78327100  0.45763300  0.97407300  1
  H  501  1  0.84224300  0.46630500  0.98079200  1
  H  502  1  0.82380700  0.56450600  0.01950700  1
  H  503  1  0.66903700  0.46059200  0.94361900  1
  H  506  1  0.74684500  0.57882500  0.99389400  1
  H  507  1  0.76686700  0.58129100  0.03408000  1
  H  508  1  0.70576000  0.56567000  0.03914700  1
  H  509  1  0.73236800  0.53348700  0.05589500  1
  H  515  1  0.88206500  0.54449400  0.00959500  1
  H  516  1  0.61267100  0.48035500  0.96458900  1
  C  1  1  0.01605800  0.50937800  0.48893200  1
  C  2  1  0.01407900  0.54419700  0.49877200  1
  C  3  1  0.01985400  0.56990000  0.47410600  1
  C  4  1  0.02801200  0.56097500  0.44043900  1
  C  5  1  0.03090200  0.52674300  0.43073000  1
  C  6  1  0.02425500  0.50065600  0.45468000  1
  C  7  1  0.00598500  0.55212600  0.53288000  1
  C  8  1  0.02521300  0.46600200  0.44530200  1
  C  10  1  0.00941200  0.48329600  0.51328000  1
  C  11  1  0.00253300  0.49182200  0.54788800  1
  C  12  1  0.99723400  0.46561800  0.57220800  1
  C  13  1  0.99507400  0.43169100  0.56081500  1
  C  14  1  0.00102700  0.42298500  0.52668400  1
  C  15  1  0.00950300  0.44859900  0.50289300  1
  C  16  1  0.00096000  0.52645600  0.55710300  1
  C  18  1  0.01747200  0.44047400  0.46884200  1
  C  27  1  0.48841100  0.01359000  0.51374300  1
  C  28  1  0.49924800  0.01259900  0.54831300  1
  C  29  1  0.47553000  0.01948200  0.57463600  1
  C  30  1  0.44214200  0.02937900  0.56643000  1
  C  31  1  0.43140200  0.03116900  0.53239400  1
  C  32  1  0.45417900  0.02254300  0.50580900  1
  C  33  1  0.53351000  0.00456300  0.55552500  1
  C  34  1  0.44376600  0.02240500  0.47142700  1
  C  36  1  0.51174700  0.00540000  0.48715500  1
  C  37  1  0.54637300  0.99786200  0.49500500  1
  C  38  1  0.56972000  0.99058200  0.46842500  1
  C  39  1  0.55736800  0.98772900  0.43490200  1
  C  40  1  0.52357300  0.99575700  0.42656600  1
  C  41  1  0.50047300  0.00491400  0.45269200  1
  C  42  1  0.55670900  0.99772200  0.52936400  1
  C  44  1  0.46629900  0.01317700  0.44544900  1
  C  53  1  0.51414900  0.48807500  0.01287200  1
  C  54  1  0.54866300  0.49910300  0.01209800  1
  C  55  1  0.57512700  0.47517600  0.01755600  1
  C  56  1  0.56714400  0.44131300  0.02589800  1
  C  57  1  0.53317400  0.43034700  0.02742400  1
  C  58  1  0.50642900  0.45338800  0.02010500  1
  C  59  1  0.55566900  0.53375900  0.00573400  1
  C  60  1  0.47209300  0.44282600  0.01968700  1
  C  62  1  0.48738900  0.51173400  0.00635600  1
  C  63  1  0.49501800  0.54679200  0.00083600  1
  C  64  1  0.46819800  0.57045700  0.99586900  1
  C  65  1  0.43465000  0.55822700  0.99297600  1
  C  66  1  0.42661700  0.52387300  0.99850000  1
  C  67  1  0.45296100  0.50035100  0.00569300  1
  C  68  1  0.52934100  0.55722800  0.00065800  1
  C  70  1  0.44593200  0.46572000  0.01199000  1
  C  79  1  0.49315900  0.01118500  0.98430000  1
  C  80  1  0.49178400  0.04658400  0.99218300  1
  C  81  1  0.49197200  0.07096300  0.96552200  1
  C  82  1  0.49268100  0.05989000  0.93153100  1
  C  83  1  0.49448900  0.02515500  0.92334100  1
  C  84  1  0.49417400  0.00048400  0.94968200  1
  C  85  1  0.48935600  0.05645700  0.02660400  1
  C  86  1  0.49398500  0.96531100  0.94243200  1
  C  88  1  0.49294300  0.98645300  0.01093800  1
  C  89  1  0.49143600  0.99714000  0.04554000  1
  C  90  1  0.49135700  0.97247400  0.07189900  1
  C  91  1  0.49162400  0.93769800  0.06365100  1
  C  92  1  0.49338300  0.92666100  0.02968600  1
  C  93  1  0.49363700  0.95103900  0.00303100  1
  C  94  1  0.48925000  0.03226500  0.05271600  1
  C  96  1  0.49365200  0.94112000  0.96853700  1
  C  105  1  0.98419100  0.49403400  0.01333900  1
  C  106  1  0.99188100  0.49244200  0.04877700  1
  C  107  1  0.96510500  0.49259700  0.07302800  1
  C  108  1  0.93118000  0.49354100  0.06178300  1
  C  109  1  0.92317500  0.49563000  0.02701700  1
  C  110  1  0.94963600  0.49526400  0.00246600  1
  C  111  1  0.02623500  0.48984400  0.05882500  1
  C  112  1  0.94258200  0.49520300  0.96724800  1
  C  114  1  0.01095300  0.49377400  0.98873600  1
  C  115  1  0.04548500  0.49205300  0.99961100  1
  C  116  1  0.07196800  0.49188600  0.97508500  1
  C  117  1  0.06391000  0.49224200  0.94026800  1
  C  118  1  0.03002500  0.49423500  0.92902200  1
  C  119  1  0.00324600  0.49459600  0.95327100  1
  C  120  1  0.05247100  0.48973800  0.03476800  1
  C  122  1  0.96880600  0.49479600  0.94318200  1
  C  131  1  0.01089500  0.98646900  0.50473600  1
  C  132  1  0.04616500  0.99494900  0.50348500  1
  C  133  1  0.07102200  0.96877800  0.50461100  1
  C  134  1  0.06055300  0.93466300  0.50654900  1
  C  135  1  0.02594800  0.92583700  0.50772000  1
  C  136  1  0.00080200  0.95172600  0.50709300  1
  C  137  1  0.05548100  0.02950900  0.50110100  1
  C  138  1  0.96577600  0.94397200  0.50874000  1
  C  140  1  0.98570300  0.01264800  0.50348000  1
  C  141  1  0.99577800  0.04740400  0.50102700  1
  C  142  1  0.97054200  0.07318100  0.49943600  1
  C  143  1  0.93595700  0.06426700  0.50073000  1
  C  144  1  0.92554700  0.03020400  0.50342200  1
  C  145  1  0.95043900  0.00410100  0.50462900  1
  C  146  1  0.03084000  0.05518000  0.50043500  1
  C  148  1  0.94111800  0.96954600  0.50699100  1
  C  157  1  0.96724000  0.49005000  0.34296700  1
  C  158  1  0.95183000  0.46533300  0.32224400  1
  C  159  1  0.95485200  0.46652300  0.28636500  1
  C  160  1  0.97486400  0.49246300  0.27069800  1
  C  161  1  0.98912200  0.51823200  0.29194700  1
  C  162  1  0.98545900  0.51671200  0.32763800  1
  C  164  1  0.97824200  0.49638500  0.23426600  1
  C  165  1  0.97929000  0.46851400  0.21148500  1
  C  166  1  0.98120100  0.47332800  0.17613100  1
  C  167  1  0.98292000  0.50633500  0.16201800  1
  C  168  1  0.98495900  0.53414600  0.18468700  1
  C  169  1  0.98327800  0.52944300  0.22029400  1
  C  174  1  0.98743500  0.55903500  0.24353400  1
  C  175  1  0.00649100  0.54802000  0.27621400  1
  C  183  1  0.98264500  0.51191700  0.12707500  1
  C  184  1  0.96309600  0.48920900  0.37584700  1
  C  187  1  0.01942600  0.48548000  0.65905700  1
  C  188  1  0.04071500  0.46569400  0.67998300  1
  C  189  1  0.04081700  0.46944200  0.71573300  1
  C  190  1  0.01842400  0.49330700  0.73131600  1
  C  191  1  0.99953000  0.51569000  0.70988100  1
  C  192  1  0.99973300  0.51128200  0.67417700  1
  C  194  1  0.01619400  0.49802000  0.76764500  1
  C  195  1  0.01928800  0.47072500  0.79088700  1
  C  196  1  0.01788100  0.47602800  0.82614400  1
  C  197  1  0.01255300  0.50886400  0.83979200  1
  C  198  1  0.00625500  0.53570100  0.81664900  1
  C  199  1  0.00727200  0.53043400  0.78104900  1
  C  204  1  0.99856900  0.55844500  0.75710300  1
  C  205  1  0.97991500  0.54422500  0.72533400  1
  C  213  1  0.01324200  0.51489400  0.87473100  1
  C  214  1  0.01986700  0.47966100  0.62439500  1
  C  217  1  0.34013800  0.96965300  0.49360700  1
  C  218  1  0.31840000  0.95455500  0.46958100  1
  C  219  1  0.28263800  0.95833000  0.47177800  1
  C  220  1  0.26813800  0.97878400  0.49805000  1
  C  221  1  0.29041900  0.99273700  0.52310800  1
  C  222  1  0.32596800  0.98834200  0.52057600  1
  C  224  1  0.23191100  0.98270100  0.50317500  1
  C  225  1  0.20822400  0.98393700  0.47608400  1
  C  226  1  0.17307000  0.98609700  0.48209600  1
  C  227  1  0.16009800  0.98791500  0.51556500  1
  C  228  1  0.18369900  0.98990300  0.54258500  1
  C  229  1  0.21911200  0.98797300  0.53667200  1
  C  234  1  0.24336200  0.99199000  0.56546200  1
  C  235  1  0.27591400  0.01053300  0.55326200  1
  C  243  1  0.12537200  0.98752400  0.52233000  1
  C  244  1  0.37287500  0.96472900  0.49193100  1
  C  247  1  0.65646400  0.01340900  0.48603400  1
  C  248  1  0.67752500  0.03477900  0.46650300  1
  C  249  1  0.71310700  0.03583100  0.47147800  1
  C  250  1  0.72836400  0.01431500  0.49634500  1
  C  251  1  0.70663700  0.99529000  0.51832600  1
  C  252  1  0.67112600  0.99455000  0.51270500  1
  C  254  1  0.76452600  0.01312200  0.50242800  1
  C  255  1  0.78865500  0.01623500  0.47592600  1
  C  256  1  0.82370600  0.01584300  0.48254100  1
  C  257  1  0.83627100  0.01154000  0.51596400  1
  C  258  1  0.81233000  0.00522200  0.54207400  1
  C  259  1  0.77693900  0.00522000  0.53549300  1
  C  264  1  0.75221200  0.99642100  0.56278200  1
  C  265  1  0.72153400  0.97661000  0.54777100  1
  C  273  1  0.87093000  0.01326300  0.52326000  1
  C  274  1  0.62206100  0.01309000  0.47903300  1
  C  277  1  0.49412800  0.34053400  0.96535900  1
  C  278  1  0.46914200  0.32002500  0.95009900  1
  C  279  1  0.46950500  0.28420400  0.95390700  1
  C  280  1  0.49484500  0.26841800  0.97458200  1
  C  281  1  0.52083500  0.28942000  0.98880000  1
  C  282  1  0.52016700  0.32504000  0.98432000  1
  C  284  1  0.49808800  0.23198200  0.97855200  1
  C  285  1  0.46983300  0.20967700  0.97947300  1
  C  286  1  0.47405000  0.17426500  0.98166900  1
  C  287  1  0.50680800  0.15964200  0.98379900  1
  C  288  1  0.53495900  0.18186300  0.98606900  1
  C  289  1  0.53084800  0.21752500  0.98413200  1
  C  294  1  0.56077900  0.24029300  0.98848400  1
  C  295  1  0.55003600  0.27342300  0.00690500  1
  C  303  1  0.51184900  0.12462800  0.98361400  1
  C  304  1  0.49417100  0.37329700  0.96034300  1
  C  307  1  0.48619100  0.65714200  0.01924600  1
  C  308  1  0.46408500  0.67837400  0.03776600  1
  C  309  1  0.46725500  0.71416400  0.03702600  1
  C  310  1  0.49281100  0.72947000  0.01636600  1
  C  311  1  0.51704200  0.70785500  0.00013600  1
  C  312  1  0.51337900  0.67209200  0.00139100  1
  C  314  1  0.49753900  0.76577900  0.01395200  1
  C  315  1  0.47002400  0.78896000  0.01447000  1
  C  316  1  0.47538200  0.82421900  0.01354600  1
  C  317  1  0.50856400  0.83786800  0.01130200  1
  C  318  1  0.53589700  0.81480100  0.00737800  1
  C  319  1  0.53060900  0.77920400  0.00792200  1
  C  324  1  0.55937600  0.75533800  0.00184300  1
  C  325  1  0.54690700  0.72322700  0.98255900  1
  C  333  1  0.51444400  0.87277300  0.01258900  1
  C  334  1  0.48162800  0.62242700  0.02124600  1
  C  337  1  0.49074700  0.98738100  0.65853000  1
  C  338  1  0.47503200  0.96254200  0.67903200  1
  C  339  1  0.48007800  0.96140300  0.71465000  1
  C  340  1  0.50108600  0.98626500  0.73061700  1
  C  341  1  0.51947000  0.00933300  0.70947900  1
  C  342  1  0.51367700  0.01013600  0.67407000  1
  C  344  1  0.50618800  0.98847200  0.76692500  1
  C  345  1  0.47999600  0.98117300  0.79053900  1
  C  346  1  0.48462800  0.98582800  0.82562000  1
  C  347  1  0.51532600  0.99924800  0.83851800  1
  C  348  1  0.54126600  0.00775600  0.81517900  1
  C  349  1  0.53675900  0.00303100  0.77982700  1
  C  354  1  0.56296000  0.01525200  0.75543300  1
  C  355  1  0.54544800  0.03246000  0.72460700  1
  C  363  1  0.51963800  0.00460100  0.87309900  1
  C  364  1  0.48442000  0.98806200  0.62388700  1
  C  367  1  0.50644400  0.01432900  0.33890200  1
  C  368  1  0.48531200  0.03561200  0.31932600  1
  C  369  1  0.48404600  0.03320800  0.28339300  1
  C  370  1  0.50405200  0.00827200  0.26621100  1
  C  371  1  0.52647600  0.98772200  0.28601100  1
  C  372  1  0.52722800  0.99069900  0.32172300  1
  C  374  1  0.50598400  0.00521100  0.22961000  1
  C  375  1  0.47775700  0.01072100  0.20792800  1
  C  376  1  0.48047700  0.00722600  0.17247100  1
  C  377  1  0.51138100  0.99703300  0.15730200  1
  C  378  1  0.53923500  0.98977800  0.17875400  1
  C  379  1  0.53662400  0.99317500  0.21440800  1
  C  384  1  0.56539300  0.98243900  0.23652800  1
  C  385  1  0.55129700  0.96480700  0.26877900  1
  C  393  1  0.51460400  0.99410800  0.12231900  1
  C  394  1  0.50984100  0.01952500  0.37358400  1
  C  397  1  0.97243600  0.34018300  0.50530000  1
  C  398  1  0.95283400  0.31857100  0.52600100  1
  C  399  1  0.95457000  0.28283100  0.52257600  1
  C  400  1  0.97697400  0.26829600  0.49806800  1
  C  401  1  0.99418600  0.29031800  0.47497300  1
  C  402  1  0.99246300  0.32589400  0.47928200  1
  C  404  1  0.98130600  0.23223400  0.49373400  1
  C  405  1  0.98167900  0.20961600  0.52167400  1
  C  406  1  0.98627500  0.17458900  0.51701700  1
  C  407  1  0.99078500  0.16067700  0.48415500  1
  C  408  1  0.99372100  0.18351300  0.45652500  1
  C  409  1  0.98978300  0.21895000  0.46115200  1
  C  414  1  0.99583600  0.24298500  0.43253500  1
  C  415  1  0.01350500  0.27570300  0.44579000  1
  C  423  1  0.99371600  0.12573600  0.47935600  1
  C  424  1  0.97138600  0.37471300  0.51063400  1
  C  427  1  0.02805100  0.65766100  0.49844200  1
  C  428  1  0.04454600  0.67799300  0.52292000  1
  C  429  1  0.03972700  0.71364600  0.52440700  1
  C  430  1  0.01678900  0.72972700  0.50135800  1
  C  431  1  0.00088800  0.70933900  0.47593400  1
  C  432  1  0.00636500  0.67394300  0.47492200  1
  C  434  1  0.01227800  0.76609400  0.49929800  1
  C  435  1  0.01263700  0.78750900  0.52820700  1
  C  436  1  0.00929700  0.82291300  0.52511600  1
  C  437  1  0.00508600  0.83833800  0.49292000  1
  C  438  1  0.00161600  0.81690600  0.46430400  1
  C  439  1  0.00453200  0.78124800  0.46729900  1
  C  444  1  0.99820300  0.75917500  0.43720800  1
  C  445  1  0.98049200  0.72589100  0.44859100  1
  C  453  1  0.00300900  0.87340400  0.48929800  1
  C  454  1  0.03550800  0.62320000  0.49608000  1
  C  457  1  0.33904000  0.50557500  0.01636200  1
  C  458  1  0.31941700  0.48459000  0.03774900  1
  C  459  1  0.28348200  0.48337500  0.03536800  1
  C  460  1  0.26632300  0.50325600  0.01031600  1
  C  461  1  0.28616900  0.52546700  0.98957800  1
  C  462  1  0.32187800  0.52619600  0.99257000  1
  C  464  1  0.22972500  0.50539200  0.00741000  1
  C  465  1  0.20789000  0.47735000  0.01324400  1
  C  466  1  0.17243100  0.48030600  0.01000700  1
  C  467  1  0.15741400  0.51126400  0.99975700  1
  C  468  1  0.17899900  0.53891700  0.99215300  1
  C  469  1  0.21465800  0.53606200  0.99527200  1
  C  474  1  0.23689000  0.56460000  0.98415300  1
  C  475  1  0.26897200  0.55015600  0.96649800  1
  C  483  1  0.12244200  0.51468800  0.99706100  1
  C  484  1  0.37371100  0.50906300  0.02168500  1
  C  487  1  0.65900100  0.49162900  0.98626800  1
  C  488  1  0.67981800  0.47606400  0.96159900  1
  C  489  1  0.71543500  0.48117100  0.96092600  1
  C  490  1  0.73106700  0.50208200  0.98608500  1
  C  491  1  0.70961900  0.52029900  0.00900300  1
  C  492  1  0.67421500  0.51444900  0.00934000  1
  C  494  1  0.76733000  0.50727000  0.98874600  1
  C  495  1  0.79110100  0.48120100  0.98152200  1
  C  496  1  0.82612100  0.48594200  0.98649400  1
  C  497  1  0.83878000  0.51659200  0.00025100  1
  C  498  1  0.81527100  0.54238700  0.00872200  1
  C  499  1  0.77998700  0.53779900  0.00361000  1
  C  504  1  0.75538700  0.56386000  0.01571400  1
  C  505  1  0.72441900  0.54616500  0.03246700  1
  C  513  1  0.87331200  0.52102600  0.00580300  1
  C  514  1  0.62438000  0.48521500  0.98655000  1
  N  23  1  0.03905400  0.52060100  0.40043600  1
  N  24  1  0.01578800  0.60275700  0.47999400  1
  N  25  1  0.99893800  0.39047400  0.51825000  1
  N  26  1  0.99291800  0.47098700  0.60764000  1
  N  49  1  0.40122200  0.04012300  0.52687500  1
  N  50  1  0.48288900  0.01627600  0.60741400  1
  N  51  1  0.51630000  0.99457800  0.39366700  1
  N  52  1  0.60514600  0.98548500  0.47324400  1
  N  75  1  0.52784600  0.39979300  0.03512800  1
  N  76  1  0.60783300  0.48290200  0.01466000  1
  N  77  1  0.39379100  0.51640400  0.99698500  1
  N  78  1  0.47222300  0.60623900  0.99377500  1
  N  101  1  0.49479400  0.01744100  0.89051700  1
  N  102  1  0.49011100  0.10441500  0.96991400  1
  N  103  1  0.49219800  0.89323500  0.02506500  1
  N  104  1  0.49047000  0.98015900  0.10476100  1
  N  127  1  0.89038200  0.49621500  0.01919000  1
  N  128  1  0.96936000  0.49027900  0.10647700  1
  N  129  1  0.02572300  0.49297400  0.89554300  1
  N  130  1  0.10477900  0.49074900  0.98292700  1
  N  153  1  0.01935000  0.89286600  0.51021700  1
  N  154  1  0.10431500  0.97360000  0.50157600  1
  N  155  1  0.89225600  0.02501100  0.50145400  1
  N  156  1  0.97669900  0.10627400  0.49968500  1
  N  180  1  0.93548200  0.44349200  0.26655900  1
  N  210  1  0.06496300  0.45108200  0.73520000  1
  N  240  1  0.26178800  0.93928200  0.44941000  1
  N  270  1  0.73262200  0.06007900  0.45329900  1
  N  300  1  0.44630100  0.26450000  0.93463800  1
  N  330  1  0.44661600  0.73397700  0.05895300  1
  N  360  1  0.46603000  0.93411400  0.73353200  1
  N  390  1  0.46519600  0.05774900  0.26495300  1
  N  420  1  0.93230200  0.26215900  0.54195700  1
  N  450  1  0.06015900  0.73306500  0.54684600  1
  N  480  1  0.26502600  0.46473100  0.06005400  1
  N  510  1  0.73466900  0.46726800  0.93380600  1
  O  181  1  0.94297300  0.41304800  0.27281000  1
  O  182  1  0.90406400  0.44748300  0.27084800  1
  O  211  1  0.06172900  0.41946900  0.73166900  1
  O  212  1  0.09493700  0.45923000  0.72770100  1
  O  241  1  0.26729900  0.94654000  0.41876500  1
  O  242  1  0.26555000  0.90779800  0.45340100  1
  O  271  1  0.73028100  0.05611900  0.42165500  1
  O  272  1  0.72411900  0.09001800  0.46054400  1
  O  301  1  0.41590500  0.27153900  0.94160800  1
  O  302  1  0.45078000  0.26803900  0.90319500  1
  O  331  1  0.41545000  0.72982900  0.05315100  1
  O  332  1  0.45229500  0.72750000  0.08972700  1
  O  361  1  0.43417000  0.93295200  0.73106400  1
  O  362  1  0.47802400  0.90595000  0.72437300  1
  O  391  1  0.43415200  0.05714500  0.27255900  1
  O  392  1  0.47635900  0.08735100  0.26947800  1
  O  421  1  0.93646500  0.26622100  0.57339600  1
  O  422  1  0.90167400  0.26788100  0.53486700  1
  O  451  1  0.05568100  0.72470400  0.57737400  1
  O  452  1  0.09126200  0.73063900  0.53991400  1
  O  481  1  0.27255900  0.43366400  0.05964000  1
  O  482  1  0.26960500  0.47607400  0.08957800  1
  O  511  1  0.73227200  0.43540800  0.93248500  1
  O  512  1  0.72583000  0.47936100  0.90558200  1
