# generated using pymatgen
data_Cr3H13C31O19
_symmetry_space_group_name_H-M   'P 1'
_cell_length_a   10.97964000
_cell_length_b   10.98202564
_cell_length_c   18.88198000
_cell_angle_alpha   89.67447161
_cell_angle_beta   89.74562000
_cell_angle_gamma   60.18339180
_symmetry_Int_Tables_number   1
_chemical_formula_structural   Cr3H13C31O19
_chemical_formula_sum   'Cr6 H26 C62 O38'
_cell_volume   1975.33409999
_cell_formula_units_Z   2
loop_
 _symmetry_equiv_pos_site_id
 _symmetry_equiv_pos_as_xyz
  1  'x, y, z'
loop_
 _atom_site_type_symbol
 _atom_site_label
 _atom_site_symmetry_multiplicity
 _atom_site_fract_x
 _atom_site_fract_y
 _atom_site_fract_z
 _atom_site_occupancy
  C  C0  1  0.10741000  0.53890000  0.64600000  1
  C  C1  1  0.12890000  0.43073000  0.45801500  1
  C  C2  1  0.49936000  0.10696000  0.48276000  1
  C  C3  1  0.40685000  0.15064000  0.60817500  1
  C  C4  1  0.36614500  0.12273000  0.45586000  1
  C  C5  1  0.85652500  0.24058000  0.92658500  1
  C  C6  1  0.10208000  0.75880000  0.07264000  1
  C  C7  1  0.92772500  0.29172000  0.07456500  1
  C  C8  1  0.58807000  0.61994000  0.53521500  1
  C  C9  1  0.22215000  0.70673000  0.92390500  1
  C  C10  1  0.47835500  0.74876000  0.07554000  1
  C  C11  1  0.22247500  0.25186000  0.92514000  1
  C  C12  1  0.49649000  0.73454000  0.41922000  1
  C  C13  1  0.08861000  0.31474000  0.56017500  1
  C  C14  1  0.87158500  0.21869000  0.44708000  1
  C  C15  1  0.29255500  0.63629000  0.58745500  1
  C  C16  1  0.58329500  0.60769000  0.46210000  1
  C  C17  1  0.12514000  0.41877000  0.53157000  1
  C  C18  1  0.66727500  0.47584000  0.43043500  1
  C  C19  1  0.16732500  0.49681000  0.57502500  1
  C  C20  1  0.64597000  0.45473000  0.35602000  1
  C  C21  1  0.75442500  0.35584000  0.47388000  1
  C  C22  1  0.23533000  0.56419000  0.54426000  1
  C  C23  1  0.74168000  0.36943000  0.54686000  1
  C  C24  1  0.24781000  0.56430000  0.47129000  1
  C  C25  1  0.66869500  0.50101000  0.57732500  1
  C  C26  1  0.19365500  0.49894000  0.42808500  1
  C  C27  1  0.55579500  0.99395000  0.96390000  1
  C  C28  1  0.54725500  0.01075000  0.03578000  1
  C  C29  1  0.65253000  0.02006000  0.07287000  1
  C  C30  1  0.67223000  0.98102000  0.92682500  1
  C  C31  1  0.76838000  0.01014000  0.03625000  1
  C  C32  1  0.77972000  0.98756000  0.96339000  1
  C  C33  1  0.68772500  0.93685000  0.64726000  1
  C  C34  1  0.59010500  0.11934000  0.36137000  1
  C  C35  1  0.77659000  0.37584000  0.96526000  1
  C  C36  1  0.87016000  0.87373000  0.44141000  1
  C  C37  1  0.15531500  0.62346000  0.03426500  1
  C  C38  1  0.79267500  0.38654000  0.03821000  1
  C  C39  1  0.18109000  0.61250000  0.96109000  1
  C  C40  1  0.68087000  0.49672000  0.07667000  1
  C  C41  1  0.17730000  0.50292000  0.92312500  1
  C  C42  1  0.89700500  0.83792000  0.51938000  1
  C  C43  1  0.57929500  0.61654000  0.03979000  1
  C  C44  1  0.19402500  0.38363000  0.96046000  1
  C  C45  1  0.58130500  0.61612000  0.96589000  1
  C  C46  1  0.19657500  0.38406000  0.03438000  1
  C  C47  1  0.67913500  0.49740000  0.92815000  1
  C  C48  1  0.17771000  0.50242000  0.07178000  1
  C  C49  1  0.70956000  0.51770000  0.64793000  1
  C  C50  1  0.23139500  0.48224000  0.35368000  1
  C  C51  1  0.11202000  0.53898000  0.85189000  1
  C  C52  1  0.65120000  0.46092000  0.14808000  1
  C  C53  1  0.69049000  0.93234000  0.85417000  1
  C  C54  1  0.62276000  0.06788000  0.14573000  1
  C  C55  1  0.71201000  0.51676000  0.85468500  1
  C  C56  1  0.22916000  0.48312000  0.14525000  1
  C  C57  1  0.61274500  0.07621000  0.43575500  1
  C  C58  1  0.66158500  0.01390000  0.58119000  1
  C  C59  1  0.74784500  0.01170000  0.46290000  1
  C  C60  1  0.77208000  0.97785000  0.53392500  1
  C  C61  1  0.52361500  0.09389000  0.55649000  1
  Cr  Cr62  1  0.94143000  0.45610000  0.75010000  1
  Cr  Cr63  1  0.39403000  0.23318000  0.24939000  1
  Cr  Cr64  1  0.62721000  0.76682000  0.75061000  1
  Cr  Cr65  1  0.39753000  0.54390000  0.24990000  1
  Cr  Cr66  1  0.93827000  0.77014000  0.74917000  1
  Cr  Cr67  1  0.70841000  0.22986000  0.25083000  1
  H  H68  1  0.33103000  0.11534000  0.60783500  1
  H  H69  1  0.31294500  0.66072000  0.88911500  1
  H  H70  1  0.97284500  0.33716000  0.10932500  1
  H  H71  1  0.38835500  0.82794000  0.04658500  1
  H  H72  1  0.20980000  0.17373000  0.95455000  1
  H  H73  1  0.51022000  0.71166000  0.93773000  1
  H  H74  1  0.21977000  0.28887000  0.06279000  1
  H  H75  1  0.31682500  0.18204000  0.40891500  1
  H  H76  1  0.95455000  0.88550000  0.41515500  1
  H  H77  1  0.88159500  0.74896000  0.53559000  1
  H  H78  1  0.83804000  0.80624000  0.41250000  1
  H  H79  1  0.99502000  0.83246000  0.53853000  1
  H  H80  1  0.53482500  0.72364000  0.55863500  1
  H  H81  1  0.09140500  0.37770000  0.42362000  1
  H  H82  1  0.53817500  0.75341000  0.37075500  1
  H  H83  1  0.10122500  0.28165000  0.61469500  1
  H  H84  1  0.92493500  0.21040000  0.39757500  1
  H  H85  1  0.33757500  0.59495000  0.63913000  1
  H  H86  1  0.80469500  0.27925000  0.58042000  1
  H  H87  1  0.30450000  0.61215000  0.44831500  1
  H  H88  1  0.47266500  0.98521000  0.93807000  1
  H  H89  1  0.45405500  0.02187000  0.06162000  1
  H  H90  1  0.84822500  0.02171000  0.06363000  1
  H  H91  1  0.80329000  0.21529000  0.88583500  1
  H  H92  1  0.87263000  0.97302000  0.93600000  1
  H  H93  1  0.02424000  0.78477000  0.11409500  1
  O  O94  1  0.83012000  0.42498000  0.67041000  1
  O  O95  1  0.50532000  0.09150000  0.16944000  1
  O  O96  1  0.59682000  0.90850000  0.83056000  1
  O  O97  1  0.64036000  0.63758000  0.82532000  1
  O  O98  1  0.27794000  0.36242000  0.17468000  1
  O  O99  1  0.83563000  0.66436000  0.74996000  1
  O  O100  1  0.49999000  0.33564000  0.25004000  1
  O  O101  1  0.25510000  0.57502000  0.32959000  1
  O  O102  1  0.05776000  0.46866000  0.67509000  1
  O  O103  1  0.52642000  0.53134000  0.32491000  1
  O  O104  1  0.07924000  0.65956000  0.66856000  1
  O  O105  1  0.73880000  0.34044000  0.33144000  1
  O  O106  1  0.80817000  0.88684000  0.67498000  1
  O  O107  1  0.69501000  0.11316000  0.32502000  1
  O  O108  1  0.59556000  0.90822000  0.67003000  1
  O  O109  1  0.50378000  0.09178000  0.32997000  1
  O  O110  1  0.63920000  0.63732000  0.67650000  1
  O  O111  1  0.27652000  0.36268000  0.32350000  1
  O  O112  1  0.83139000  0.42524000  0.83094000  1
  O  O113  1  0.25663000  0.57476000  0.16906000  1
  O  O114  1  0.05893000  0.46892000  0.82391000  1
  O  O115  1  0.52785000  0.53108000  0.17609000  1
  O  O116  1  0.08050000  0.65982000  0.82909000  1
  O  O117  1  0.80934000  0.88710000  0.82379000  1
  O  O118  1  0.74032000  0.34018000  0.17091000  1
  O  O119  1  0.40181500  0.22930000  0.65495000  1
  O  O120  1  0.31337500  0.06053000  0.48454000  1
  O  O121  1  0.98184500  0.16211000  0.93541500  1
  O  O122  1  0.14960000  0.83685000  0.06259000  1
  O  O123  1  0.69644000  0.11290000  0.17621000  1
  O  O124  1  0.98290000  0.16428000  0.07111000  1
  O  O125  1  0.15028500  0.83421000  0.92676500  1
  O  O126  1  0.49872000  0.77496000  0.13564500  1
  O  O127  1  0.26885000  0.22468000  0.86487000  1
  O  O128  1  0.37492000  0.81466000  0.43566500  1
  O  O129  1  0.05583000  0.25027000  0.52044500  1
  O  O130  1  0.92536500  0.11472000  0.48495000  1
  O  O131  1  0.28404000  0.74585000  0.56699500  1
