# generated using pymatgen
data_EuH8C12(NO3)3
_symmetry_space_group_name_H-M   'P 1'
_cell_length_a   10.37051000
_cell_length_b   11.76575000
_cell_length_c   17.74827000
_cell_angle_alpha   90.03532000
_cell_angle_beta   90.01533000
_cell_angle_gamma   70.23269000
_symmetry_Int_Tables_number   1
_chemical_formula_structural   EuH8C12(NO3)3
_chemical_formula_sum   'Eu4 H32 C48 N12 O36'
_cell_volume   2037.97754646
_cell_formula_units_Z   4
loop_
 _symmetry_equiv_pos_site_id
 _symmetry_equiv_pos_as_xyz
  1  'x, y, z'
loop_
 _atom_site_type_symbol
 _atom_site_label
 _atom_site_symmetry_multiplicity
 _atom_site_fract_x
 _atom_site_fract_y
 _atom_site_fract_z
 _atom_site_occupancy
  Eu  Eu1  1  0.50960000  0.32339000  0.00868000  1.0
  Eu  Eu2  1  0.49027000  0.17662000  0.50861000  1.0
  Eu  Eu3  1  0.49039000  0.67661000  0.99132000  1.0
  Eu  Eu4  1  0.50972000  0.82338000  0.49139000  1.0
  H  H1  1  0.60167000  0.35555000  0.28640000  1.0
  H  H2  1  0.54422000  0.46251000  0.41134000  1.0
  H  H3  1  0.35175000  0.79247000  0.30770000  1.0
  H  H4  1  0.40428000  0.69940000  0.17769000  1.0
  H  H5  1  0.97340000  0.20660000  0.99458000  1.0
  H  H6  1  0.22881000  0.14666000  0.97735000  1.0
  H  H7  1  0.19252000  0.47233000  0.87456000  1.0
  H  H8  1  0.93285000  0.54851000  0.89132000  1.0
  H  H9  1  0.39768000  0.14512000  0.78593000  1.0
  H  H10  1  0.45487000  0.03925000  0.91122000  1.0
  H  H11  1  0.64801000  0.70846000  0.80834000  1.0
  H  H12  1  0.59569000  0.80046000  0.67809000  1.0
  H  H13  1  0.02536000  0.29433000  0.49448000  1.0
  H  H14  1  0.76997000  0.35280000  0.47718000  1.0
  H  H15  1  0.80909000  0.02622000  0.37457000  1.0
  H  H16  1  0.06868000  0.95143000  0.39144000  1.0
  H  H17  1  0.39832000  0.64445000  0.71360000  1.0
  H  H18  1  0.45577000  0.53749000  0.58866000  1.0
  H  H19  1  0.64824000  0.20752000  0.69230000  1.0
  H  H20  1  0.59571000  0.30060000  0.82231000  1.0
  H  H21  1  0.02659000  0.79340000  0.00542000  1.0
  H  H22  1  0.77118000  0.85334000  0.02265000  1.0
  H  H23  1  0.80747000  0.52767000  0.12543000  1.0
  H  H24  1  0.06715000  0.45149000  0.10868000  1.0
  H  H25  1  0.60231000  0.85488000  0.21407000  1.0
  H  H26  1  0.54512000  0.96075000  0.08878000  1.0
  H  H27  1  0.35198000  0.29154000  0.19166000  1.0
  H  H28  1  0.40431000  0.19953000  0.32191000  1.0
  H  H29  1  0.97464000  0.70566000  0.50552000  1.0
  H  H30  1  0.23002000  0.64720000  0.52282000  1.0
  H  H31  1  0.19090000  0.97378000  0.62543000  1.0
  H  H32  1  0.93131000  0.04857000  0.60856000  1.0
  C  C1  1  0.53465000  0.45847000  0.14673000  1.0
  C  C2  1  0.50918000  0.51992000  0.22192000  1.0
  C  C3  1  0.54884000  0.45260000  0.28832000  1.0
  C  C4  1  0.51887000  0.50861000  0.35762000  1.0
  C  C5  1  0.40741000  0.69751000  0.29803000  1.0
  C  C6  1  0.43820000  0.64432000  0.22790000  1.0
  C  C7  1  0.78190000  0.42597000  0.96091000  1.0
  C  C8  1  0.93341000  0.38284000  0.94420000  1.0
  C  C9  1  0.01754000  0.26810000  0.96772000  1.0
  C  C10  1  0.15794000  0.23263000  0.95846000  1.0
  C  C11  1  0.13574000  0.41983000  0.89991000  1.0
  C  C12  1  0.99532000  0.45829000  0.90943000  1.0
  C  C13  1  0.46534000  0.04175000  0.64666000  1.0
  C  C14  1  0.49066000  0.98045000  0.72188000  1.0
  C  C15  1  0.45074000  0.04812000  0.78817000  1.0
  C  C16  1  0.48067000  0.99266000  0.85762000  1.0
  C  C17  1  0.59246000  0.80338000  0.79836000  1.0
  C  C18  1  0.56169000  0.85608000  0.72811000  1.0
  C  C19  1  0.21823000  0.07569000  0.46098000  1.0
  C  C20  1  0.06673000  0.11781000  0.44425000  1.0
  C  C21  1  0.98178000  0.23236000  0.46766000  1.0
  C  C22  1  0.84142000  0.26697000  0.45840000  1.0
  C  C23  1  0.86532000  0.07918000  0.39998000  1.0
  C  C24  1  0.00571000  0.04157000  0.40951000  1.0
  C  C25  1  0.46534000  0.54152000  0.85327000  1.0
  C  C26  1  0.49081000  0.48008000  0.77807000  1.0
  C  C27  1  0.45115000  0.54740000  0.71168000  1.0
  C  C28  1  0.48112000  0.49139000  0.64238000  1.0
  C  C29  1  0.59258000  0.30249000  0.70197000  1.0
  C  C30  1  0.56180000  0.35568000  0.77210000  1.0
  C  C31  1  0.21810000  0.57403000  0.03908000  1.0
  C  C32  1  0.06658000  0.61715000  0.05580000  1.0
  C  C33  1  0.98245000  0.73190000  0.03228000  1.0
  C  C34  1  0.84205000  0.76736000  0.04154000  1.0
  C  C35  1  0.86425000  0.58017000  0.10009000  1.0
  C  C36  1  0.00467000  0.54170000  0.09057000  1.0
  C  C37  1  0.53465000  0.95824000  0.35334000  1.0
  C  C38  1  0.50933000  0.01955000  0.27812000  1.0
  C  C39  1  0.54926000  0.95188000  0.21182000  1.0
  C  C40  1  0.51933000  0.00734000  0.14238000  1.0
  C  C41  1  0.40753000  0.19662000  0.20164000  1.0
  C  C42  1  0.43830000  0.14392000  0.27188000  1.0
  C  C43  1  0.78176000  0.92431000  0.53902000  1.0
  C  C44  1  0.93326000  0.88219000  0.55575000  1.0
  C  C45  1  0.01821000  0.76763000  0.53234000  1.0
  C  C46  1  0.15857000  0.73303000  0.54160000  1.0
  C  C47  1  0.13467000  0.92081000  0.60002000  1.0
  C  C48  1  0.99428000  0.95843000  0.59049000  1.0
  N  N1  1  0.73015000  0.08971000  0.96633000  1.0
  N  N2  1  0.44759000  0.62968000  0.36202000  1.0
  N  N3  1  0.21609000  0.30819000  0.92500000  1.0
  N  N4  1  0.27014000  0.41190000  0.46645000  1.0
  N  N5  1  0.55223000  0.87163000  0.86224000  1.0
  N  N6  1  0.78415000  0.19061000  0.42505000  1.0
  N  N7  1  0.26985000  0.91029000  0.03367000  1.0
  N  N8  1  0.55240000  0.37032000  0.63798000  1.0
  N  N9  1  0.78390000  0.69181000  0.07500000  1.0
  N  N10  1  0.72985000  0.58809000  0.53354000  1.0
  N  N11  1  0.44776000  0.12837000  0.13776000  1.0
  N  N12  1  0.21584000  0.80939000  0.57494000  1.0
  O  O1  1  0.64957000  0.15429000  0.91618000  1.0
  O  O2  1  0.70123000  0.12014000  0.03515000  1.0
  O  O3  1  0.55961000  0.34523000  0.14449000  1.0
  O  O4  1  0.52643000  0.52247000  0.08763000  1.0
  O  O5  1  0.41485000  0.67998000  0.42850000  1.0
  O  O6  1  0.73415000  0.34761000  0.98603000  1.0
  O  O7  1  0.71670000  0.53795000  0.95064000  1.0
  O  O8  1  0.34966000  0.27355000  0.91660000  1.0
  O  O9  1  0.83128000  0.00069000  0.94966000  1.0
  O  O10  1  0.35123000  0.34819000  0.41623000  1.0
  O  O11  1  0.29898000  0.38141000  0.53523000  1.0
  O  O12  1  0.44023000  0.15498000  0.64457000  1.0
  O  O13  1  0.47380000  0.97775000  0.58749000  1.0
  O  O14  1  0.58510000  0.82175000  0.92877000  1.0
  O  O15  1  0.26538000  0.15484000  0.48561000  1.0
  O  O16  1  0.28393000  0.96376000  0.45097000  1.0
  O  O17  1  0.65069000  0.22426000  0.41659000  1.0
  O  O18  1  0.16820000  0.50029000  0.44988000  1.0
  O  O19  1  0.35042000  0.84571000  0.08382000  1.0
  O  O20  1  0.29876000  0.87986000  0.96485000  1.0
  O  O21  1  0.44038000  0.65477000  0.85550000  1.0
  O  O22  1  0.47356000  0.47753000  0.91237000  1.0
  O  O23  1  0.58515000  0.32002000  0.57150000  1.0
  O  O24  1  0.26584000  0.65239000  0.01397000  1.0
  O  O25  1  0.28329000  0.46205000  0.04936000  1.0
  O  O26  1  0.65033000  0.72645000  0.08340000  1.0
  O  O27  1  0.16871000  0.99931000  0.05034000  1.0
  O  O28  1  0.64876000  0.65181000  0.58376000  1.0
  O  O29  1  0.70102000  0.61859000  0.46477000  1.0
  O  O30  1  0.55976000  0.84501000  0.35543000  1.0
  O  O31  1  0.52620000  0.02224000  0.41251000  1.0
  O  O32  1  0.41490000  0.17824000  0.07123000  1.0
  O  O33  1  0.73461000  0.84516000  0.51439000  1.0
  O  O34  1  0.71606000  0.03624000  0.54903000  1.0
  O  O35  1  0.34930000  0.77573000  0.58341000  1.0
  O  O36  1  0.83179000  0.49971000  0.55012000  1.0
