# generated using pymatgen
data_H10C14N5O
_symmetry_space_group_name_H-M   'P 1'
_cell_length_a   11.99516667
_cell_length_b   35.98550000
_cell_length_c   35.98550000
_cell_angle_alpha   90.00000000
_cell_angle_beta   90.00000000
_cell_angle_gamma   90.00000000
_symmetry_Int_Tables_number   1
_chemical_formula_structural   H10C14N5O
_chemical_formula_sum   'H160 C224 N80 O16'
_cell_volume   15533.21556798
_cell_formula_units_Z   16
loop_
 _symmetry_equiv_pos_site_id
 _symmetry_equiv_pos_as_xyz
  1  'x, y, z'
loop_
 _atom_site_type_symbol
 _atom_site_label
 _atom_site_symmetry_multiplicity
 _atom_site_fract_x
 _atom_site_fract_y
 _atom_site_fract_z
 _atom_site_occupancy
  C  1  1  0.95167100  0.99786700  0.01048700  1
  C  2  1  0.93755000  0.02660000  0.03706400  1
  C  3  1  0.84846200  0.02670500  0.06267700  1
  C  4  1  0.77671700  0.99567800  0.06311300  1
  C  5  1  0.78918200  0.96599900  0.03778100  1
  C  6  1  0.87515000  0.96728000  0.01026400  1
  C  9  1  0.04861900  0.99993800  0.98694600  1
  C  10  1  0.07189900  0.03080600  0.96294500  1
  C  11  1  0.17779600  0.03288500  0.94457400  1
  C  12  1  0.25293400  0.00270200  0.94797500  1
  C  13  1  0.22739800  0.97109500  0.96933100  1
  C  14  1  0.12760900  0.97079800  0.98987000  1
  C  23  1  0.29803300  0.94071400  0.96935000  1
  C  24  1  0.71506100  0.93677300  0.04257900  1
  C  25  1  0.83457500  0.05601100  0.08751500  1
  C  26  1  0.21274300  0.06407500  0.92446600  1
  C  31  1  0.45154500  0.50666200  0.99406000  1
  C  32  1  0.43752300  0.47798600  0.96741600  1
  C  33  1  0.34833600  0.47788600  0.94184500  1
  C  34  1  0.27637530  0.50886000  0.94152500  1
  C  35  1  0.28876230  0.53850200  0.96691000  1
  C  36  1  0.37483800  0.53719900  0.99439900  1
  C  39  1  0.54851700  0.50456100  0.01759700  1
  C  40  1  0.57184200  0.47364600  0.04153400  1
  C  41  1  0.67771800  0.47155900  0.05992000  1
  C  42  1  0.75278100  0.50176800  0.05658500  1
  C  43  1  0.72718800  0.53341700  0.03529900  1
  C  44  1  0.62740500  0.53373700  0.01475400  1
  C  53  1  0.79776600  0.56381500  0.03535300  1
  C  54  1  0.21405630  0.56757800  0.96231400  1
  C  55  1  0.33443100  0.44860200  0.91698200  1
  C  56  1  0.71274000  0.44033200  0.07996000  1
  C  61  1  0.69122800  0.24633000  0.73443900  1
  C  62  1  0.67841800  0.22035600  0.76380400  1
  C  63  1  0.59271700  0.19350700  0.76380400  1
  C  64  1  0.52549900  0.19055400  0.73180200  1
  C  65  1  0.53765200  0.21493700  0.70134000  1
  C  66  1  0.61798900  0.24425300  0.70299100  1
  C  69  1  0.78375700  0.27180900  0.73657100  1
  C  70  1  0.80020000  0.29759700  0.76649900  1
  C  71  1  0.89925700  0.31983400  0.76714100  1
  C  72  1  0.97471000  0.31795300  0.73697600  1
  C  73  1  0.95745400  0.29357900  0.70698900  1
  C  74  1  0.86433400  0.26983700  0.70779000  1
  C  83  1  0.02830829  0.29421800  0.67674700  1
  C  84  1  0.46681900  0.20809900  0.67162000  1
  C  85  1  0.57636700  0.16999100  0.79401600  1
  C  86  1  0.92305600  0.34566900  0.79485000  1
  C  91  1  0.19164160  0.25817300  0.27008200  1
  C  92  1  0.17867860  0.28402500  0.24061500  1
  C  93  1  0.09303460  0.31090000  0.24057500  1
  C  94  1  0.02610765  0.31402100  0.27263000  1
  C  95  1  0.03840460  0.28973900  0.30315800  1
  C  96  1  0.11861860  0.26039500  0.30157100  1
  C  99  1  0.28421860  0.23271100  0.26804000  1
  C  100  1  0.30064400  0.20678400  0.23823500  1
  C  101  1  0.39979100  0.18459600  0.23766000  1
  C  102  1  0.47528900  0.18663000  0.26780100  1
  C  103  1  0.45809900  0.21115400  0.29768600  1
  C  104  1  0.36493700  0.23487700  0.29676600  1
  C  113  1  0.52923500  0.21085400  0.32795700  1
  C  114  1  0.96825900  0.29679100  0.33302000  1
  C  115  1  0.07659460  0.33432900  0.21030100  1
  C  116  1  0.42363500  0.15864700  0.21006400  1
  C  121  1  0.31441400  0.75843500  0.24919600  1
  C  122  1  0.32451200  0.78353700  0.21894800  1
  C  123  1  0.40902800  0.81070000  0.21754600  1
  C  124  1  0.47793200  0.81511900  0.24894300  1
  C  125  1  0.46805900  0.79182300  0.28034300  1
  C  126  1  0.38851100  0.76217500  0.28027100  1
  C  129  1  0.22605460  0.73129900  0.24728300  1
  C  130  1  0.21332560  0.70573300  0.21695900  1
  C  131  1  0.11497660  0.68330500  0.21495600  1
  C  132  1  0.03740260  0.68412700  0.24453800  1
  C  133  1  0.05176660  0.70780900  0.27528100  1
  C  134  1  0.14364760  0.73218300  0.27555200  1
  C  143  1  0.97692300  0.70693100  0.30457200  1
  C  144  1  0.54118100  0.79972900  0.30920200  1
  C  145  1  0.42596900  0.83190300  0.18578400  1
  C  146  1  0.09131560  0.65959800  0.18543800  1
  C  151  1  0.81487000  0.74608000  0.75547300  1
  C  152  1  0.82490800  0.72087800  0.78563800  1
  C  153  1  0.90966100  0.69379200  0.78703000  1
  C  154  1  0.97888000  0.68956300  0.75568100  1
  C  155  1  0.96903400  0.71293600  0.72433500  1
  C  156  1  0.88921900  0.74251200  0.72444400  1
  C  159  1  0.72641500  0.77317700  0.75744300  1
  C  160  1  0.71364100  0.79867100  0.78782500  1
  C  161  1  0.61525000  0.82107700  0.78987000  1
  C  162  1  0.53767900  0.82030200  0.76028900  1
  C  163  1  0.55215100  0.79671400  0.72948200  1
  C  164  1  0.64407400  0.77236000  0.72914800  1
  C  173  1  0.47725900  0.79765900  0.70025600  1
  C  174  1  0.04277130  0.70526900  0.69560100  1
  C  175  1  0.92647600  0.67248900  0.81873700  1
  C  176  1  0.59162500  0.84474700  0.81941800  1
  C  181  1  0.44514000  0.50425000  0.50966900  1
  C  182  1  0.43434600  0.53400300  0.53531500  1
  C  183  1  0.34953600  0.53472300  0.56245100  1
  C  184  1  0.28150230  0.50300500  0.56626100  1
  C  185  1  0.29200530  0.47210100  0.54233400  1
  C  186  1  0.37107900  0.47307600  0.51259500  1
  C  189  1  0.53559300  0.50604800  0.48330200  1
  C  190  1  0.55146000  0.53613700  0.45764800  1
  C  191  1  0.64986600  0.53690700  0.43510000  1
  C  192  1  0.72463800  0.50651200  0.43620000  1
  C  193  1  0.70732200  0.47616900  0.46016300  1
  C  194  1  0.61554300  0.47703600  0.48449700  1
  C  203  1  0.77854200  0.44597900  0.45952900  1
  C  204  1  0.21881730  0.44301100  0.54915700  1
  C  205  1  0.33240300  0.56591100  0.58456000  1
  C  206  1  0.67476000  0.56549600  0.41034000  1
  C  211  1  0.94646000  0.00043800  0.49485700  1
  C  212  1  0.93552200  0.97059800  0.46931300  1
  C  213  1  0.85085600  0.96986700  0.44212500  1
  C  214  1  0.78321200  0.00165200  0.43812900  1
  C  215  1  0.79388300  0.03263100  0.46194100  1
  C  216  1  0.87269900  0.03167500  0.49175600  1
  C  219  1  0.03680800  0.99867000  0.52127000  1
  C  220  1  0.05249500  0.96863300  0.54700000  1
  C  221  1  0.15091900  0.96784700  0.56954000  1
  C  222  1  0.22581400  0.99820400  0.56838900  1
  C  223  1  0.20866600  0.02852100  0.54437400  1
  C  224  1  0.11694700  0.02762100  0.52000900  1
  C  233  1  0.28018000  0.05869000  0.54483800  1
  C  234  1  0.72122000  0.06183300  0.45492200  1
  C  235  1  0.83345600  0.93860700  0.42014400  1
  C  236  1  0.17566900  0.93929400  0.59435800  1
  C  241  1  0.32929600  0.89754600  0.91929700  1
  C  243  1  0.50230000  0.88634800  0.88783400  1
  C  244  1  0.44951200  0.86101000  0.86363800  1
  C  246  1  0.27577000  0.87213900  0.89508200  1
  C  248  1  0.16236700  0.86489700  0.89677900  1
  C  249  1  0.08850100  0.88936300  0.87637100  1
  C  256  1  0.82900500  0.60687100  0.08550900  1
  C  258  1  0.00199665  0.61802900  0.11699100  1
  C  259  1  0.94922700  0.64336100  0.14119800  1
  C  261  1  0.77549100  0.63227100  0.10973400  1
  C  263  1  0.66211200  0.63955100  0.10801400  1
  C  264  1  0.58814100  0.61510300  0.12840000  1
  C  271  1  0.06087930  0.34191500  0.63119800  1
  C  273  1  0.23730930  0.37011000  0.61770900  1
  C  274  1  0.18687930  0.39414200  0.59186800  1
  C  276  1  0.00883229  0.36620500  0.60541000  1
  C  278  1  0.89496100  0.36627800  0.59832100  1
  C  279  1  0.81715600  0.37613400  0.62772700  1
  C  286  1  0.56155700  0.16277200  0.37302200  1
  C  288  1  0.73832000  0.13479400  0.38647500  1
  C  289  1  0.68810600  0.11055500  0.41216500  1
  C  291  1  0.50962700  0.13824500  0.39862700  1
  C  293  1  0.39568100  0.13805000  0.40574600  1
  C  294  1  0.31739900  0.12963800  0.37602000  1
  C  301  1  0.19019730  0.61181000  0.91438400  1
  C  303  1  0.01685429  0.62523400  0.88394700  1
  C  304  1  0.07189230  0.64896100  0.85871400  1
  C  306  1  0.24572130  0.63576900  0.88922400  1
  C  308  1  0.35995800  0.64133800  0.88997400  1
  C  309  1  0.42779400  0.61575300  0.86851800  1
  C  316  1  0.69041600  0.89239400  0.09024800  1
  C  318  1  0.51688100  0.87913100  0.12063600  1
  C  319  1  0.57162800  0.85527900  0.14582100  1
  C  321  1  0.74561300  0.86827900  0.11534000  1
  C  323  1  0.85979300  0.86256000  0.11459400  1
  C  324  1  0.92789600  0.88796200  0.13617200  1
  C  331  1  0.44056900  0.15996900  0.62755800  1
  C  333  1  0.26267500  0.13569900  0.60937200  1
  C  334  1  0.31440100  0.10946000  0.58604600  1
  C  336  1  0.49337500  0.13364300  0.60412900  1
  C  338  1  0.60810400  0.13081300  0.60128000  1
  C  339  1  0.66605800  0.10760700  0.62794900  1
  C  346  1  0.94080000  0.34472200  0.37717600  1
  C  348  1  0.76245300  0.36852300  0.39547800  1
  C  349  1  0.81371400  0.39496700  0.41868800  1
  C  351  1  0.99313500  0.37123800  0.40050500  1
  C  353  1  0.10796560  0.37440600  0.40321200  1
  C  354  1  0.16393660  0.39829600  0.37672300  1
  C  361  1  0.69204200  0.08945000  0.12267800  1
  C  363  1  0.51838100  0.10538400  0.15174700  1
  C  364  1  0.56944400  0.13516300  0.17067700  1
  C  366  1  0.74393900  0.11952700  0.14147300  1
  C  368  1  0.85515800  0.12859600  0.13749300  1
  C  369  1  0.88356200  0.15728700  0.11091600  1
  C  376  1  0.19179030  0.41503900  0.88199300  1
  C  378  1  0.01797929  0.39898000  0.85309500  1
  C  379  1  0.06907530  0.36924500  0.83410400  1
  C  381  1  0.24372630  0.38500700  0.86313800  1
  C  383  1  0.35503800  0.37601800  0.86700600  1
  C  384  1  0.38386800  0.34735600  0.89356200  1
  C  391  1  0.94365000  0.65951500  0.35038800  1
  C  393  1  0.76940400  0.62933900  0.36309900  1
  C  394  1  0.82022400  0.60717700  0.39066500  1
  C  396  1  0.99521100  0.63735600  0.37803200  1
  C  398  1  0.10790560  0.63974000  0.38613000  1
  C  399  1  0.18288760  0.61732300  0.36378500  1
  C  406  1  0.44399800  0.84510600  0.65434600  1
  C  408  1  0.26998300  0.87544300  0.64167400  1
  C  409  1  0.32087500  0.89750500  0.61404400  1
  C  411  1  0.49562800  0.86715400  0.62662900  1
  C  413  1  0.60826300  0.86463000  0.61847300  1
  C  414  1  0.68357500  0.88700600  0.64073500  1
  C  421  1  0.82521000  0.41638900  0.12838100  1
  C  423  1  0.99521100  0.39136500  0.15259200  1
  C  424  1  0.93471300  0.36743600  0.17619500  1
  C  426  1  0.76365300  0.39250500  0.15199400  1
  C  428  1  0.64876500  0.39368000  0.15418700  1
  C  429  1  0.58764000  0.36190600  0.14007500  1
  C  436  1  0.32514700  0.08792900  0.87597400  1
  C  438  1  0.49510600  0.11288100  0.85166100  1
  C  439  1  0.43456000  0.13692000  0.82818200  1
  C  441  1  0.26353900  0.11197000  0.85253100  1
  C  443  1  0.14861200  0.11092300  0.85048000  1
  C  444  1  0.08795200  0.14279300  0.86460000  1
  C  451  1  0.56630900  0.84783200  0.35348100  1
  C  453  1  0.74147000  0.87552400  0.37000700  1
  C  454  1  0.68684000  0.90062300  0.39398900  1
  C  456  1  0.51125300  0.87281200  0.37774100  1
  C  458  1  0.39664700  0.87331200  0.38201700  1
  C  459  1  0.33217100  0.89699900  0.35753500  1
  C  466  1  0.06673830  0.65705500  0.65133600  1
  C  468  1  0.24141930  0.62908300  0.63472100  1
  C  469  1  0.18631230  0.60402600  0.61082000  1
  C  471  1  0.01119329  0.63210400  0.62717400  1
  C  473  1  0.89639500  0.63177600  0.62300600  1
  C  474  1  0.83283100  0.60763800  0.64726300  1
  H  7  1  0.99308000  0.04829600  0.03755600  1
  H  8  1  0.71429300  0.99460500  0.08263800  1
  H  15  1  0.32802400  0.00332500  0.93431400  1
  H  16  1  0.11146900  0.94851100  0.00683100  1
  H  19  1  0.93452300  0.94178600  0.96328100  1
  H  20  1  0.83211500  0.91906100  0.98328900  1
  H  21  1  0.00160900  0.07668200  0.93835200  1
  H  22  1  0.91655600  0.05442800  0.96616800  1
  H  27  1  0.37892800  0.94612400  0.97196200  1
  H  28  1  0.67410200  0.92838900  0.02012100  1
  H  29  1  0.90105800  0.07028000  0.09556700  1
  H  30  1  0.18865000  0.08916900  0.93283300  1
  H  37  1  0.49315200  0.45631900  0.96686300  1
  H  38  1  0.21377430  0.50990500  0.92205900  1
  H  45  1  0.82787100  0.50113700  0.07025200  1
  H  46  1  0.61123200  0.55605100  0.99783700  1
  H  49  1  0.43429500  0.56257900  0.04143500  1
  H  50  1  0.33183900  0.58534300  0.02152300  1
  H  51  1  0.50159700  0.42770800  0.06603300  1
  H  52  1  0.41654700  0.44999200  0.03824300  1
  H  57  1  0.87866400  0.55843000  0.03271700  1
  H  58  1  0.17462430  0.57677000  0.98472000  1
  H  59  1  0.40097400  0.43443000  0.90880700  1
  H  60  1  0.68859600  0.41525000  0.07157700  1
  H  67  1  0.73122400  0.22155800  0.78620700  1
  H  68  1  0.46600300  0.17002700  0.73074100  1
  H  75  1  0.04260630  0.33535100  0.73623200  1
  H  76  1  0.85350400  0.25141400  0.68631700  1
  H  79  1  0.67004800  0.29203100  0.67721100  1
  H  80  1  0.57529600  0.26916200  0.65359300  1
  H  81  1  0.73079200  0.31849700  0.81436900  1
  H  82  1  0.64967800  0.28915200  0.79228500  1
  H  87  1  0.10920630  0.29148100  0.68233500  1
  H  88  1  0.42583300  0.22936400  0.66060100  1
  H  89  1  0.64144000  0.16188600  0.80909700  1
  H  90  1  0.86599300  0.36458800  0.80134900  1
  H  97  1  0.23134960  0.28272700  0.21818500  1
  H  98  1  0.96675000  0.33459000  0.27368500  1
  H  105  1  0.54323300  0.16925700  0.26861200  1
  H  106  1  0.35411600  0.25341100  0.31814400  1
  H  109  1  0.17079760  0.21274600  0.32758400  1
  H  110  1  0.07607860  0.23574000  0.35110200  1
  H  111  1  0.23125660  0.18568200  0.19045300  1
  H  112  1  0.15008260  0.21510300  0.21240900  1
  H  117  1  0.60965900  0.21330600  0.32163200  1
  H  118  1  0.92545800  0.27555900  0.34338200  1
  H  119  1  0.14159560  0.34234900  0.19514100  1
  H  120  1  0.36665300  0.13967200  0.20364900  1
  H  127  1  0.27173860  0.78104700  0.19663800  1
  H  128  1  0.53753900  0.83564100  0.24863000  1
  H  135  1  0.96933600  0.66679800  0.24401500  1
  H  136  1  0.15139960  0.75060700  0.29716100  1
  H  139  1  0.33920900  0.71535900  0.30834000  1
  H  140  1  0.43450400  0.73955500  0.33039100  1
  H  141  1  0.28835560  0.68528300  0.16982500  1
  H  142  1  0.36639500  0.71460600  0.19309100  1
  H  147  1  0.89704800  0.70835900  0.29735300  1
  H  148  1  0.58646600  0.77882700  0.31905600  1
  H  149  1  0.36093500  0.84133800  0.17148000  1
  H  150  1  0.14646460  0.64031800  0.17818900  1
  H  157  1  0.77199400  0.72326800  0.80792200  1
  H  158  1  0.03867030  0.66909900  0.75599000  1
  H  165  1  0.46957000  0.83761100  0.76085300  1
  H  166  1  0.65187700  0.75398600  0.70749800  1
  H  169  1  0.83960800  0.78937500  0.69650200  1
  H  170  1  0.93509500  0.76533500  0.67439600  1
  H  171  1  0.78858400  0.81901200  0.83502100  1
  H  172  1  0.86668300  0.78975000  0.81169800  1
  H  177  1  0.39704200  0.79629700  0.70706200  1
  H  178  1  0.08638830  0.72619200  0.68505800  1
  H  179  1  0.86138200  0.66309700  0.83304000  1
  H  180  1  0.64675600  0.86403600  0.82666200  1
  H  187  1  0.48713400  0.55635700  0.53338600  1
  H  188  1  0.22189230  0.50270500  0.58677400  1
  H  195  1  0.79239600  0.50602800  0.41874300  1
  H  196  1  0.60549600  0.45553800  0.50294100  1
  H  199  1  0.41954700  0.44651300  0.46480900  1
  H  200  1  0.32547600  0.42350600  0.48860200  1
  H  201  1  0.48130500  0.58404300  0.43712300  1
  H  202  1  0.40104000  0.56177300  0.46657100  1
  H  207  1  0.85922400  0.45196800  0.46223000  1
  H  208  1  0.17441730  0.43314900  0.52804300  1
  H  209  1  0.39730500  0.58054400  0.59357700  1
  H  210  1  0.61880400  0.57267200  0.39129900  1
  H  217  1  0.98808500  0.94819700  0.47135900  1
  H  218  1  0.72374600  0.00194700  0.41756800  1
  H  225  1  0.29356000  0.99868700  0.58585200  1
  H  226  1  0.10705000  0.04907500  0.50150700  1
  H  229  1  0.92109200  0.05842600  0.53945800  1
  H  230  1  0.82726400  0.08137400  0.51549600  1
  H  231  1  0.98217500  0.92078600  0.56758900  1
  H  232  1  0.90197600  0.94302600  0.53809900  1
  H  237  1  0.36070000  0.05238600  0.54259600  1
  H  238  1  0.67536800  0.07115400  0.47596300  1
  H  239  1  0.89822600  0.92394000  0.41107900  1
  H  240  1  0.11970100  0.93219400  0.61342400  1
  H  247  1  0.58541800  0.89211400  0.88574700  1
  H  250  1  0.10618600  0.91845800  0.88271500  1
  H  251  1  0.00191500  0.88389400  0.88406000  1
  H  252  1  0.09774100  0.88502800  0.84647900  1
  H  262  1  0.08511460  0.61225700  0.11907800  1
  H  265  1  0.60575700  0.58600500  0.12205400  1
  H  266  1  0.50158800  0.62060200  0.12069500  1
  H  267  1  0.59733600  0.61942900  0.15829500  1
  H  277  1  0.32097600  0.37130200  0.62302800  1
  H  280  1  0.79657000  0.35136900  0.64378600  1
  H  281  1  0.73940500  0.38740300  0.61654500  1
  H  282  1  0.85273000  0.39691500  0.64642600  1
  H  292  1  0.82203500  0.13377100  0.38120300  1
  H  295  1  0.29493160  0.15528800  0.36173400  1
  H  296  1  0.24066160  0.11715800  0.38668300  1
  H  297  1  0.35338100  0.11038000  0.35583500  1
  H  307  1  0.93308500  0.62046900  0.88223200  1
  H  310  1  0.40638300  0.58694700  0.87493200  1
  H  311  1  0.51590400  0.61966500  0.87517600  1
  H  312  1  0.41607900  0.62042100  0.83877000  1
  H  322  1  0.43320500  0.88404900  0.12239400  1
  H  325  1  0.90684500  0.91682400  0.12987200  1
  H  326  1  0.01596100  0.88395800  0.12951800  1
  H  327  1  0.91605800  0.88318800  0.16590000  1
  H  337  1  0.17786800  0.13671200  0.61208200  1
  H  340  1  0.64075300  0.11440800  0.65630200  1
  H  341  1  0.75599500  0.11201700  0.62592600  1
  H  342  1  0.64837900  0.07827400  0.62276400  1
  H  352  1  0.67766100  0.36729500  0.39281600  1
  H  355  1  0.13861960  0.39166300  0.34832900  1
  H  356  1  0.25411660  0.39444200  0.37858000  1
  H  357  1  0.14467060  0.42744400  0.38230900  1
  H  367  1  0.43589600  0.09925700  0.15513400  1
  H  370  1  0.84438500  0.15182100  0.08406000  1
  H  371  1  0.85640900  0.18449700  0.12089700  1
  H  372  1  0.97371200  0.15800300  0.10664300  1
  H  382  1  0.93542800  0.40505200  0.84978600  1
  H  385  1  0.34491000  0.35280300  0.92045600  1
  H  386  1  0.35679000  0.32012600  0.88361600  1
  H  387  1  0.47406000  0.34670300  0.89774400  1
  H  397  1  0.68667300  0.62687100  0.35690700  1
  H  400  1  0.16714060  0.62141100  0.33416500  1
  H  401  1  0.26931460  0.62524800  0.36920400  1
  H  402  1  0.17283460  0.58786100  0.37034600  1
  H  412  1  0.18730600  0.87801600  0.64791600  1
  H  415  1  0.66793600  0.88298800  0.67037200  1
  H  416  1  0.76989700  0.87897000  0.63528600  1
  H  417  1  0.67378300  0.91646200  0.63412400  1
  H  427  1  0.08029660  0.39227700  0.15301300  1
  H  430  1  0.61625100  0.35450100  0.11222100  1
  H  431  1  0.59817000  0.33791300  0.15835300  1
  H  432  1  0.49888800  0.36849800  0.13827900  1
  H  442  1  0.58016800  0.11187100  0.85111400  1
  H  445  1  0.11694100  0.15022400  0.89240300  1
  H  446  1  0.09850000  0.16673500  0.84625600  1
  H  447  1  0.99915800  0.13629900  0.86651700  1
  H  457  1  0.82576100  0.87645200  0.36614100  1
  H  460  1  0.35555600  0.89243300  0.32855400  1
  H  461  1  0.24337060  0.89077400  0.36024200  1
  H  462  1  0.34556000  0.92624100  0.36438500  1
  H  472  1  0.32573400  0.62806000  0.63851200  1
  H  475  1  0.85636300  0.61190100  0.67628000  1
  H  476  1  0.74391400  0.61369900  0.64469200  1
  H  477  1  0.84670900  0.57851800  0.64001500  1
  N  17  1  0.88326800  0.93993800  0.98405600  1
  N  18  1  0.99177800  0.05707800  0.95657300  1
  N  47  1  0.38293200  0.56445700  0.02069200  1
  N  48  1  0.49176000  0.44734100  0.04784500  1
  N  77  1  0.62376700  0.27002200  0.67516000  1
  N  78  1  0.72154000  0.30143200  0.79371600  1
  N  107  1  0.12441460  0.23473900  0.32950500  1
  N  108  1  0.22190260  0.20278500  0.21107200  1
  N  137  1  0.38501900  0.73755200  0.30914900  1
  N  138  1  0.29466460  0.70241000  0.19055100  1
  N  167  1  0.88564900  0.76723900  0.69565400  1
  N  168  1  0.79494400  0.80194100  0.81425200  1
  N  197  1  0.37444500  0.44492000  0.48712600  1
  N  198  1  0.47285100  0.56343700  0.45428800  1
  N  227  1  0.87601700  0.05991200  0.51713000  1
  N  228  1  0.97370600  0.94140900  0.55044000  1
  N  242  1  0.44051200  0.90354600  0.91437500  1
  N  245  1  0.33868900  0.85522900  0.86850100  1
  N  254  1  0.27079300  0.91597900  0.94475700  1
  N  255  1  0.49699300  0.84247700  0.83606100  1
  N  257  1  0.94021500  0.60085800  0.09043100  1
  N  260  1  0.83841600  0.64916100  0.13632600  1
  N  269  1  0.77050500  0.58848300  0.06001200  1
  N  270  1  0.99671400  0.66188200  0.16878100  1
  N  272  1  0.17299830  0.34524100  0.63622800  1
  N  275  1  0.07466730  0.39112900  0.58715800  1
  N  284  1  0.00138929  0.31770000  0.65091700  1
  N  285  1  0.24802830  0.41965500  0.57475300  1
  N  287  1  0.67376000  0.15965600  0.36805600  1
  N  290  1  0.57581900  0.11335700  0.41680900  1
  N  299  1  0.50201600  0.18706900  0.35342500  1
  N  300  1  0.74962400  0.08508400  0.42918600  1
  N  302  1  0.07783530  0.60755200  0.91039900  1
  N  305  1  0.18377130  0.65288200  0.86255200  1
  N  314  1  0.24788730  0.59303300  0.93969700  1
  N  315  1  0.02632229  0.66678700  0.83038900  1
  N  317  1  0.57810500  0.89680700  0.09424200  1
  N  320  1  0.68344700  0.85120600  0.14197900  1
  N  329  1  0.74840600  0.91119600  0.06503900  1
  N  330  1  0.52587500  0.83752000  0.17415100  1
  N  332  1  0.32704900  0.15956500  0.62918300  1
  N  335  1  0.42776200  0.10960300  0.58468800  1
  N  344  1  0.50042500  0.18282300  0.64866300  1
  N  345  1  0.25243900  0.08502900  0.56763300  1
  N  347  1  0.82727100  0.34481300  0.37563700  1
  N  350  1  0.92707800  0.39515000  0.41993800  1
  N  359  1  0.00111465  0.32214300  0.35593700  1
  N  360  1  0.75131400  0.41933500  0.43701400  1
  N  362  1  0.58143200  0.08403700  0.12887000  1
  N  365  1  0.67983800  0.14069200  0.16450200  1
  N  374  1  0.73734200  0.06475200  0.09979900  1
  N  375  1  0.52121600  0.15739400  0.19525900  1
  N  377  1  0.08108730  0.42036900  0.87591600  1
  N  380  1  0.17955930  0.36380200  0.84016200  1
  N  389  1  0.23712630  0.43976300  0.90483800  1
  N  390  1  0.02080529  0.34701200  0.80953300  1
  N  392  1  0.83265600  0.65428500  0.34416600  1
  N  395  1  0.93084600  0.61234600  0.39667000  1
  N  404  1  0.00358965  0.68336900  0.33032400  1
  N  405  1  0.77141400  0.58099200  0.41086500  1
  N  407  1  0.33308800  0.85046400  0.66061800  1
  N  410  1  0.43141300  0.89220300  0.60798300  1
  N  419  1  0.50379100  0.82121300  0.67442900  1
  N  420  1  0.27219400  0.92370700  0.59382200  1
  N  422  1  0.93832200  0.41508100  0.13021500  1
  N  425  1  0.82170900  0.36950900  0.17500100  1
  N  434  1  0.78126900  0.44279400  0.10736500  1
  N  435  1  0.97774800  0.34531400  0.20182000  1
  N  437  1  0.43824700  0.08914800  0.87402900  1
  N  440  1  0.32155000  0.13496400  0.82951400  1
  N  449  1  0.28120900  0.06156700  0.89704900  1
  N  450  1  0.47751700  0.15907300  0.80256900  1
  N  452  1  0.67943000  0.85055300  0.35062400  1
  N  455  1  0.57425300  0.89808600  0.39647000  1
  N  464  1  0.50761700  0.82438100  0.33268900  1
  N  465  1  0.73334900  0.92802300  0.41298500  1
  N  467  1  0.17983530  0.65417700  0.65410700  1
  N  470  1  0.07373430  0.60671000  0.60842800  1
  N  479  1  0.00850829  0.68065700  0.67210600  1
  N  480  1  0.23241330  0.57658100  0.59176800  1
  O  253  1  0.13758100  0.83189200  0.89643800  1
  O  268  1  0.63741900  0.67256400  0.10835700  1
  O  283  1  0.86511700  0.37216100  0.56630800  1
  O  298  1  0.36579500  0.13077000  0.43747300  1
  O  313  1  0.39043500  0.67378400  0.88904000  1
  O  328  1  0.88985600  0.83006700  0.11540600  1
  O  343  1  0.64464700  0.12924800  0.56953400  1
  O  358  1  0.14387860  0.37533400  0.43504700  1
  O  373  1  0.90833600  0.12866500  0.16653200  1
  O  388  1  0.40795200  0.37597900  0.83791400  1
  O  403  1  0.13171660  0.64153000  0.41915700  1
  O  418  1  0.63188200  0.86275200  0.58543800  1
  O  433  1  0.61207500  0.40719100  0.18288600  1
  O  448  1  0.11148400  0.09739000  0.82185500  1
  O  463  1  0.36366800  0.87229200  0.41421400  1
  O  478  1  0.86425900  0.63358800  0.59076800  1
