# generated using pymatgen
data_H12C16N
_symmetry_space_group_name_H-M   'P 1'
_cell_length_a   9.90240000
_cell_length_b   44.76999372
_cell_length_c   44.77760000
_cell_angle_alpha   119.95684435
_cell_angle_beta   90.00000000
_cell_angle_gamma   90.00000000
_symmetry_Int_Tables_number   1
_chemical_formula_structural   H12C16N
_chemical_formula_sum   'H72 C96 N6'
_cell_volume   17199.17590097
_cell_formula_units_Z   6
loop_
 _symmetry_equiv_pos_site_id
 _symmetry_equiv_pos_as_xyz
  1  'x, y, z'
loop_
 _atom_site_type_symbol
 _atom_site_label
 _atom_site_symmetry_multiplicity
 _atom_site_fract_x
 _atom_site_fract_y
 _atom_site_fract_z
 _atom_site_occupancy
  C  1  1  0.00646300  0.90120200  0.44680700  1
  C  2  1  0.93181500  0.92188800  0.43710400  1
  C  4  1  0.00609000  0.97472900  0.48644200  1
  C  5  1  0.08618000  0.95552800  0.49748100  1
  C  6  1  0.08406800  0.91900900  0.47732100  1
  C  9  1  0.16659600  0.97213200  0.52989500  1
  C  37  1  0.99900800  0.84645500  0.39054900  1
  C  38  1  0.00163900  0.86421800  0.42707300  1
  C  39  1  0.99630400  0.84401500  0.44335200  1
  C  52  1  0.98635600  0.79026400  0.38761200  1
  C  53  1  0.98842600  0.80776500  0.42405700  1
  C  54  1  0.99094100  0.81022800  0.37118900  1
  C  67  1  0.00220000  0.56282400  0.43940300  1
  C  68  1  0.98746700  0.54697300  0.40314800  1
  C  69  1  0.98018200  0.56666900  0.38658600  1
  C  70  1  0.98816400  0.60305500  0.40571800  1
  C  71  1  0.00239200  0.61906200  0.44189100  1
  C  72  1  0.00981400  0.59930000  0.45836400  1
  C  73  1  0.97579400  0.62319700  0.39015900  1
  C  74  1  0.05023900  0.61879100  0.36308200  1
  C  75  1  0.04025200  0.63917400  0.34766100  1
  C  76  1  0.04170600  0.67564800  0.36734000  1
  C  77  1  0.04061600  0.69618700  0.35146900  1
  C  78  1  0.04101100  0.67943700  0.31500600  1
  C  79  1  0.03975800  0.64305300  0.29449100  1
  C  80  1  0.04066700  0.62334300  0.31127400  1
  C  81  1  0.04956100  0.62757900  0.25871100  1
  C  82  1  0.97319200  0.60089900  0.23616100  1
  C  83  1  0.98576000  0.58504000  0.20045300  1
  C  84  1  0.99376700  0.54871700  0.18048100  1
  C  85  1  0.98436700  0.60404100  0.18298200  1
  C  86  1  0.99227500  0.58721200  0.14674400  1
  C  87  1  0.00092800  0.55080000  0.12653700  1
  C  88  1  0.00171500  0.53197100  0.14426200  1
  C  89  1  0.05097800  0.73195700  0.37171800  1
  C  90  1  0.97355000  0.75454200  0.36787500  1
  C  108  1  0.99670700  0.42798300  0.56178400  1
  C  109  1  0.91785300  0.43760800  0.59164600  1
  C  110  1  0.91406100  0.41706200  0.60732300  1
  C  111  1  0.98890100  0.38612400  0.59345500  1
  C  112  1  0.06821500  0.37635600  0.56376800  1
  C  113  1  0.07292000  0.39716000  0.54838200  1
  C  114  1  0.97717600  0.36440900  0.60706500  1
  C  115  1  0.04524000  0.36915400  0.63512100  1
  C  116  1  0.03629200  0.34765800  0.64938200  1
  C  117  1  0.03681900  0.31125000  0.62868600  1
  C  118  1  0.03559600  0.28957000  0.64330000  1
  C  119  1  0.03648400  0.30527000  0.67971100  1
  C  120  1  0.03589000  0.34155000  0.70137000  1
  C  121  1  0.03725400  0.36226700  0.68565200  1
  C  122  1  0.04447400  0.35570200  0.73711300  1
  C  123  1  0.97873300  0.38415800  0.76052600  1
  C  124  1  0.99031500  0.39759400  0.79582900  1
  C  125  1  0.06280100  0.42844700  0.81611900  1
  C  126  1  0.92225000  0.38226800  0.81252000  1
  C  127  1  0.92598700  0.39762300  0.84869400  1
  C  128  1  0.99844500  0.42855700  0.86924300  1
  C  129  1  0.06788200  0.44347900  0.85224600  1
  C  130  1  0.04409000  0.25382800  0.62172500  1
  C  131  1  0.97797300  0.23039100  0.62668600  1
  C  132  1  0.98959800  0.19508000  0.60482200  1
  C  133  1  0.92579400  0.17856400  0.57224800  1
  C  134  1  0.05809600  0.17461700  0.61585500  1
  C  135  1  0.06352900  0.13850600  0.59468700  1
  C  136  1  0.99848300  0.12170100  0.56218300  1
  C  137  1  0.92984500  0.14239900  0.55133100  1
  C  159  1  0.00568300  0.53366400  0.08957200  1
  C  160  1  0.93279400  0.50298400  0.06887200  1
  C  162  1  0.00519100  0.49996000  0.01613300  1
  C  163  1  0.08338200  0.53050500  0.03531300  1
  C  164  1  0.08134200  0.54679000  0.07181900  1
  C  166  1  0.99354500  0.48109100  0.97938800  1
  C  167  1  0.86952700  0.46892200  0.96097100  1
  C  168  1  0.87397800  0.45103600  0.92443000  1
  C  169  1  0.99638500  0.44515800  0.90604200  1
  C  170  1  0.11533900  0.45767100  0.92582400  1
  C  175  1  0.73606200  0.47572900  0.97849400  1
  C  179  1  0.16146400  0.54662900  0.01863300  1
  C  183  1  0.00605800  0.54276000  0.45630900  1
  C  184  1  0.93646800  0.55324100  0.48754500  1
  C  186  1  0.00401000  0.50279300  0.48969800  1
  C  187  1  0.07847600  0.49081000  0.45854200  1
  C  188  1  0.07725700  0.51116700  0.44238600  1
  C  190  1  0.99239300  0.48486200  0.50845700  1
  C  191  1  0.86777700  0.47770900  0.51956700  1
  C  192  1  0.87189000  0.45921600  0.53763300  1
  C  193  1  0.99465700  0.44781700  0.54474300  1
  C  194  1  0.11418900  0.45594800  0.53313900  1
  C  199  1  0.73463000  0.48739500  0.51145400  1
  C  203  1  0.15147700  0.45727700  0.44181400  1
  C  207  1  0.99413200  0.01152400  0.50427000  1
  C  208  1  0.87049600  0.02999000  0.50982500  1
  C  209  1  0.87485800  0.06654100  0.52855200  1
  C  210  1  0.99674800  0.08492300  0.54183900  1
  C  211  1  0.11537400  0.06515600  0.53522500  1
  C  215  1  0.73710500  0.01256800  0.49833600  1
  H  7  1  0.14184500  0.90499300  0.48487500  1
  H  8  1  0.87108200  0.91117300  0.41581800  1
  H  10  1  0.25026200  0.98658800  0.52741400  1
  H  11  1  0.20954300  0.95347100  0.53617300  1
  H  12  1  0.10271100  0.98963400  0.55147000  1
  H  40  1  0.99404300  0.85557900  0.46965300  1
  H  41  1  0.00433000  0.85975700  0.37749600  1
  H  55  1  0.98176000  0.79428600  0.43692800  1
  H  56  1  0.98894500  0.79852700  0.34484400  1
  H  91  1  0.97779700  0.52078500  0.38838000  1
  H  92  1  0.96643200  0.55418900  0.36044000  1
  H  93  1  0.02207500  0.61197800  0.48454600  1
  H  94  1  0.00784400  0.64536700  0.45664300  1
  H  95  1  0.04481700  0.59697800  0.29672500  1
  H  96  1  0.04657300  0.68747000  0.39369500  1
  H  97  1  0.04533200  0.69399300  0.30318100  1
  H  98  1  0.99435400  0.53404100  0.19217300  1
  H  99  1  0.00954200  0.50567200  0.13093800  1
  H  100  1  0.98743400  0.60195200  0.13518900  1
  H  101  1  0.97521700  0.63032700  0.19647800  1
  H  102  1  0.90559300  0.59102300  0.24528300  1
  H  103  1  0.11762800  0.63726600  0.24949800  1
  H  104  1  0.90974900  0.64252000  0.40049800  1
  H  105  1  0.11653800  0.59949800  0.35295100  1
  H  106  1  0.90481900  0.74542000  0.34915200  1
  H  107  1  0.12021300  0.74111400  0.39032300  1
  H  138  1  0.86168000  0.45974900  0.60226100  1
  H  139  1  0.85399300  0.42452000  0.62850600  1
  H  140  1  0.12855500  0.38878200  0.52635600  1
  H  141  1  0.12153100  0.35373400  0.55276300  1
  H  142  1  0.04192800  0.38855000  0.70091000  1
  H  143  1  0.04113000  0.30026900  0.60240300  1
  H  144  1  0.04066600  0.28997100  0.69071600  1
  H  145  1  0.87357600  0.19266700  0.56378600  1
  H  146  1  0.11112400  0.44048900  0.80480800  1
  H  147  1  0.11855800  0.46629000  0.86616800  1
  H  148  1  0.87469600  0.38596800  0.85995800  1
  H  149  1  0.86704200  0.36020800  0.79854400  1
  H  150  1  0.88172500  0.13125700  0.52799300  1
  H  151  1  0.11137700  0.12445000  0.60386500  1
  H  152  1  0.10328700  0.18579300  0.63959100  1
  H  153  1  0.91942400  0.39681300  0.75267600  1
  H  154  1  0.10237900  0.34341800  0.74574400  1
  H  155  1  0.91552400  0.34432700  0.59492200  1
  H  156  1  0.10510500  0.38971400  0.64699600  1
  H  157  1  0.91848400  0.23822400  0.64714600  1
  H  158  1  0.10228800  0.24521600  0.60087800  1
  H  165  1  0.13768400  0.56861100  0.08584900  1
  H  172  1  0.78549700  0.44297300  0.91085000  1
  H  173  1  0.20763600  0.45416500  0.91431900  1
  H  174  1  0.87352400  0.49212700  0.07958500  1
  H  176  1  0.72494500  0.50324400  0.99671200  1
  H  177  1  0.72798500  0.46149700  0.99231400  1
  H  178  1  0.65151900  0.46787800  0.96047200  1
  H  180  1  0.24553400  0.52998100  0.00402800  1
  H  181  1  0.20353700  0.57166800  0.03726400  1
  H  182  1  0.09614700  0.55054100  0.00124300  1
  H  189  1  0.13087600  0.50294700  0.42008400  1
  H  196  1  0.78304100  0.45303300  0.54494100  1
  H  197  1  0.20671800  0.44881100  0.53757400  1
  H  198  1  0.88043100  0.57535200  0.49895100  1
  H  200  1  0.72674100  0.47766200  0.48378900  1
  H  201  1  0.72396600  0.51537600  0.52519900  1
  H  202  1  0.64984200  0.47692500  0.51890900  1
  H  204  1  0.08301900  0.43660900  0.43817100  1
  H  205  1  0.23596100  0.45832800  0.45793500  1
  H  206  1  0.19217400  0.45067200  0.41658800  1
  H  213  1  0.78659700  0.08014400  0.53356200  1
  H  214  1  0.20733300  0.07666200  0.54381100  1
  H  216  1  0.72373400  0.99419000  0.50738400  1
  H  217  1  0.73126100  0.99895800  0.47027100  1
  H  218  1  0.65258800  0.03062600  0.50816300  1
  N  3  1  0.93444900  0.95668700  0.45677900  1
  N  161  1  0.93517600  0.48793500  0.03407700  1
  N  171  1  0.10917400  0.47451700  0.96070800  1
  N  185  1  0.93779100  0.53335100  0.50247000  1
  N  195  1  0.10842800  0.47377500  0.51603800  1
  N  212  1  0.10923600  0.03027200  0.51708500  1
