# generated using pymatgen
data_CuH2(C3O2)2
_symmetry_space_group_name_H-M   'P 1'
_cell_length_a   18.69883985
_cell_length_b   18.69816307
_cell_length_c   18.69848091
_cell_angle_alpha   60.00139600
_cell_angle_beta   60.01261710
_cell_angle_gamma   60.00576754
_symmetry_Int_Tables_number   1
_chemical_formula_structural   CuH2(C3O2)2
_chemical_formula_sum   'Cu12 H24 C72 O48'
_cell_volume   4623.48911969
_cell_formula_units_Z   12
loop_
 _symmetry_equiv_pos_site_id
 _symmetry_equiv_pos_as_xyz
  1  'x, y, z'
loop_
 _atom_site_type_symbol
 _atom_site_label
 _atom_site_symmetry_multiplicity
 _atom_site_fract_x
 _atom_site_fract_y
 _atom_site_fract_z
 _atom_site_occupancy
  Cu  Cu1  1  0.00000185  0.99999781  0.43417085  1.0
  Cu  Cu2  1  0.99999667  0.00000182  0.56582089  1.0
  Cu  Cu3  1  0.56580020  0.43420030  0.99999940  1.0
  Cu  Cu4  1  0.43419121  0.56580463  0.00000233  1.0
  Cu  Cu5  1  0.56619307  0.00000155  0.43381156  1.0
  Cu  Cu6  1  0.43393109  0.99999743  0.56606425  1.0
  Cu  Cu7  1  0.00000014  0.56579629  0.99999497  1.0
  Cu  Cu8  1  0.99999753  0.43420379  0.00000711  1.0
  Cu  Cu9  1  0.00000316  0.56580329  0.43420154  1.0
  Cu  Cu10  1  0.99999534  0.43419402  0.56580195  1.0
  Cu  Cu11  1  0.43425844  0.99999934  0.00000902  1.0
  Cu  Cu12  1  0.56586500  0.00000020  0.99999207  1.0
  H  H1  1  0.73416214  0.02792244  0.73414826  1.0
  H  H2  1  0.02792277  0.73416092  0.50375679  1.0
  H  H3  1  0.50375409  0.73415780  0.02791911  1.0
  H  H4  1  0.73415758  0.50376378  0.73416058  1.0
  H  H5  1  0.50375280  0.73414765  0.73417911  1.0
  H  H6  1  0.73416485  0.02792509  0.50376080  1.0
  H  H7  1  0.73416005  0.50375630  0.02791842  1.0
  H  H8  1  0.02792180  0.73417367  0.73414925  1.0
  H  H9  1  0.02791573  0.50376469  0.73415785  1.0
  H  H10  1  0.73416708  0.73415355  0.50375848  1.0
  H  H11  1  0.73415643  0.73416800  0.02791860  1.0
  H  H12  1  0.50375491  0.02791848  0.73417283  1.0
  H  H13  1  0.26581298  0.97207532  0.49624991  1.0
  H  H14  1  0.97207685  0.26583670  0.26584278  1.0
  H  H15  1  0.49623683  0.26584915  0.26583460  1.0
  H  H16  1  0.26584017  0.49624334  0.97208238  1.0
  H  H17  1  0.49623510  0.26583871  0.97208133  1.0
  H  H18  1  0.26583405  0.97207733  0.26584529  1.0
  H  H19  1  0.26584182  0.49623564  0.26584015  1.0
  H  H20  1  0.97207656  0.26583162  0.49623970  1.0
  H  H21  1  0.97208322  0.49623522  0.26584322  1.0
  H  H22  1  0.26582939  0.26583456  0.97208230  1.0
  H  H23  1  0.26581996  0.26584767  0.49625222  1.0
  H  H24  1  0.49622429  0.97208013  0.26583757  1.0
  C  C1  1  0.70019433  0.02903812  0.70020282  1.0
  C  C2  1  0.02903658  0.70019728  0.57054519  1.0
  C  C3  1  0.57054698  0.70020257  0.02902473  1.0
  C  C4  1  0.70020138  0.57056505  0.70020977  1.0
  C  C5  1  0.57054363  0.70022992  0.70019850  1.0
  C  C6  1  0.70016428  0.02904142  0.57054319  1.0
  C  C7  1  0.70020218  0.57055680  0.02902414  1.0
  C  C8  1  0.02903724  0.70020853  0.70020258  1.0
  C  C9  1  0.02901797  0.57056418  0.70020421  1.0
  C  C10  1  0.70018008  0.70024148  0.57055123  1.0
  C  C11  1  0.70020166  0.70021400  0.02902337  1.0
  C  C12  1  0.57054482  0.02902327  0.70018753  1.0
  C  C13  1  0.29980665  0.97095726  0.42946333  1.0
  C  C14  1  0.97096232  0.29979991  0.29978737  1.0
  C  C15  1  0.42944795  0.29976131  0.29981805  1.0
  C  C16  1  0.29979556  0.42944218  0.97097685  1.0
  C  C17  1  0.42944167  0.29979063  0.97097622  1.0
  C  C18  1  0.29979630  0.97096223  0.29979246  1.0
  C  C19  1  0.29979724  0.42943251  0.29979352  1.0
  C  C20  1  0.97096141  0.29979255  0.42945127  1.0
  C  C21  1  0.97098081  0.42943371  0.29979543  1.0
  C  C22  1  0.29978112  0.29979080  0.97097760  1.0
  C  C23  1  0.29980284  0.29976444  0.42945937  1.0
  C  C24  1  0.42943537  0.97097605  0.29981999  1.0
  C  C25  1  0.74326243  0.02889095  0.61391032  1.0
  C  C26  1  0.83720347  0.02355851  0.56963862  1.0
  C  C27  1  0.02889396  0.74328745  0.61389889  1.0
  C  C28  1  0.02355983  0.83720860  0.56964347  1.0
  C  C29  1  0.61389083  0.61388996  0.02888596  1.0
  C  C30  1  0.56958249  0.56958660  0.02358222  1.0
  C  C31  1  0.61389920  0.61390241  0.74331651  1.0
  C  C32  1  0.56957880  0.56959508  0.83724544  1.0
  C  C33  1  0.61385355  0.74336525  0.61386972  1.0
  C  C34  1  0.56951492  0.83738753  0.56949227  1.0
  C  C35  1  0.61385212  0.02891244  0.61386769  1.0
  C  C36  1  0.56952021  0.02360207  0.56949707  1.0
  C  C37  1  0.74332147  0.61389815  0.02888464  1.0
  C  C38  1  0.83724235  0.56958662  0.02358825  1.0
  C  C39  1  0.02888470  0.61390101  0.74331305  1.0
  C  C40  1  0.02358515  0.56959573  0.83722885  1.0
  C  C41  1  0.02888490  0.61389558  0.61389448  1.0
  C  C42  1  0.02358387  0.56959150  0.56959371  1.0
  C  C43  1  0.74330558  0.61391278  0.61389991  1.0
  C  C44  1  0.83723749  0.56959639  0.56958035  1.0
  C  C45  1  0.61388779  0.74332108  0.02888584  1.0
  C  C46  1  0.56958959  0.83724736  0.02358677  1.0
  C  C47  1  0.61390038  0.02888236  0.74329891  1.0
  C  C48  1  0.56959481  0.02358278  0.83723332  1.0
  C  C49  1  0.25672009  0.97110897  0.38607966  1.0
  C  C50  1  0.16278885  0.97644072  0.43042193  1.0
  C  C51  1  0.97110555  0.25671093  0.38608442  1.0
  C  C52  1  0.97643897  0.16279269  0.43041181  1.0
  C  C53  1  0.38609770  0.38609177  0.25669180  1.0
  C  C54  1  0.43041802  0.43040349  0.16275846  1.0
  C  C55  1  0.38610611  0.38610422  0.97111521  1.0
  C  C56  1  0.43041414  0.43041140  0.97641900  1.0
  C  C57  1  0.38609295  0.25667851  0.97111517  1.0
  C  C58  1  0.43042500  0.16275246  0.97641347  1.0
  C  C59  1  0.38608597  0.97111728  0.25670018  1.0
  C  C60  1  0.43042383  0.97641700  0.16276718  1.0
  C  C61  1  0.25668612  0.38609522  0.38609980  1.0
  C  C62  1  0.16275888  0.43040423  0.43042232  1.0
  C  C63  1  0.97111369  0.38609726  0.38610430  1.0
  C  C64  1  0.97641520  0.43040199  0.43041082  1.0
  C  C65  1  0.97111447  0.38610207  0.25667879  1.0
  C  C66  1  0.97641383  0.43040895  0.16276823  1.0
  C  C67  1  0.25667020  0.38610613  0.97111625  1.0
  C  C68  1  0.16275289  0.43041704  0.97641226  1.0
  C  C69  1  0.38612607  0.25663451  0.38615071  1.0
  C  C70  1  0.43050597  0.16261182  0.43048658  1.0
  C  C71  1  0.38611969  0.97108715  0.38614226  1.0
  C  C72  1  0.43049575  0.97639751  0.43047983  1.0
  O  O1  1  0.87357253  0.02053702  0.49192447  1.0
  O  O2  1  0.02052795  0.87362584  0.61395437  1.0
  O  O3  1  0.61393625  0.49187587  0.02052770  1.0
  O  O4  1  0.49188398  0.61394694  0.87363623  1.0
  O  O5  1  0.61409077  0.87355498  0.49185897  1.0
  O  O6  1  0.49187396  0.02048283  0.61407144  1.0
  O  O7  1  0.87364741  0.61395081  0.02053823  1.0
  O  O8  1  0.02053627  0.49188053  0.87362928  1.0
  O  O9  1  0.02053865  0.61394984  0.49187741  1.0
  O  O10  1  0.87363240  0.49188578  0.61394306  1.0
  O  O11  1  0.49187235  0.87366002  0.02053627  1.0
  O  O12  1  0.61397735  0.02053974  0.87360438  1.0
  O  O13  1  0.12641964  0.97946072  0.38603935  1.0
  O  O14  1  0.97946673  0.12637871  0.50810706  1.0
  O  O15  1  0.38605071  0.50811464  0.12636083  1.0
  O  O16  1  0.50812186  0.38606252  0.97946970  1.0
  O  O17  1  0.38606608  0.12632916  0.97947085  1.0
  O  O18  1  0.50812101  0.97945372  0.12639546  1.0
  O  O19  1  0.12636251  0.38605534  0.50812045  1.0
  O  O20  1  0.97946653  0.50812128  0.38605489  1.0
  O  O21  1  0.97946291  0.38604185  0.12637302  1.0
  O  O22  1  0.12635571  0.50813134  0.97946042  1.0
  O  O23  1  0.50813369  0.12645137  0.38591065  1.0
  O  O24  1  0.38592130  0.97951388  0.50812602  1.0
  O  O25  1  0.12639422  0.97946679  0.50810185  1.0
  O  O26  1  0.97946347  0.12639963  0.38604728  1.0
  O  O27  1  0.38605855  0.50812354  0.97947362  1.0
  O  O28  1  0.50811217  0.38605520  0.12636550  1.0
  O  O29  1  0.38593204  0.12641130  0.50813882  1.0
  O  O30  1  0.50812319  0.97950556  0.38590249  1.0
  O  O31  1  0.12634620  0.38605227  0.97946291  1.0
  O  O32  1  0.97946177  0.50812297  0.12637007  1.0
  O  O33  1  0.97945958  0.38605384  0.50811768  1.0
  O  O34  1  0.12636023  0.50812342  0.38605345  1.0
  O  O35  1  0.50813609  0.12636496  0.97945327  1.0
  O  O36  1  0.38604819  0.97946984  0.12637299  1.0
  O  O37  1  0.87360362  0.02053040  0.61396387  1.0
  O  O38  1  0.02053721  0.87359280  0.49191376  1.0
  O  O39  1  0.61394388  0.49188492  0.87364353  1.0
  O  O40  1  0.49187431  0.61393867  0.02053118  1.0
  O  O41  1  0.61395840  0.87364514  0.02053819  1.0
  O  O42  1  0.49189151  0.02053699  0.87362618  1.0
  O  O43  1  0.87363907  0.61394993  0.49187296  1.0
  O  O44  1  0.02053349  0.49188215  0.61394027  1.0
  O  O45  1  0.02053717  0.61396075  0.87362392  1.0
  O  O46  1  0.87364412  0.49187081  0.02053708  1.0
  O  O47  1  0.49186717  0.87358053  0.61406501  1.0
  O  O48  1  0.61410055  0.02049689  0.49187065  1.0
