# generated using pymatgen
data_H10C14N3O
_symmetry_space_group_name_H-M   'P 1'
_cell_length_a   28.52035000
_cell_length_b   28.52960000
_cell_length_c   30.57530000
_cell_angle_alpha   91.45800000
_cell_angle_beta   90.00000000
_cell_angle_gamma   119.98900000
_symmetry_Int_Tables_number   1
_chemical_formula_structural   H10C14N3O
_chemical_formula_sum   'H120 C168 N36 O12'
_cell_volume   21538.35534654
_cell_formula_units_Z   12
loop_
 _symmetry_equiv_pos_site_id
 _symmetry_equiv_pos_as_xyz
  1  'x, y, z'
loop_
 _atom_site_type_symbol
 _atom_site_label
 _atom_site_symmetry_multiplicity
 _atom_site_fract_x
 _atom_site_fract_y
 _atom_site_fract_z
 _atom_site_occupancy
  C  1  1  0.55574950  0.99197400  0.98563300  1
  C  2  1  0.58675000  0.04984200  0.99083500  1
  C  3  1  0.61517650  0.08423000  0.95622700  1
  C  4  1  0.60896800  0.06166900  0.91405000  1
  C  5  1  0.57719550  0.00582000  0.90648600  1
  C  6  1  0.55407600  0.97104200  0.94194500  1
  C  9  1  0.52559800  0.95739600  0.02110000  1
  C  10  1  0.53315600  0.97334500  0.06673600  1
  C  11  1  0.49772900  0.93952700  0.09933600  1
  C  12  1  0.46044150  0.88502200  0.08785000  1
  C  13  1  0.45301350  0.86636500  0.04432200  1
  C  14  1  0.48182350  0.90385700  0.01197400  1
  C  25  1  0.99974500  0.55916600  0.32249700  1
  C  26  1  0.94218250  0.53349800  0.32709800  1
  C  27  1  0.90682550  0.52720400  0.29220900  1
  C  28  1  0.92815000  0.54254400  0.25043700  1
  C  29  1  0.98371800  0.56555400  0.24348400  1
  C  30  1  0.01951200  0.57703400  0.27929300  1
  C  33  1  0.03530950  0.56394000  0.35811400  1
  C  34  1  0.02206000  0.55992600  0.40368000  1
  C  35  1  0.05842700  0.56253600  0.43677600  1
  C  36  1  0.11113050  0.57479200  0.42503300  1
  C  37  1  0.12608350  0.57912000  0.38112900  1
  C  38  1  0.08684450  0.56937500  0.34894500  1
  C  49  1  0.43160750  0.43408900  0.65896700  1
  C  50  1  0.45785450  0.40260200  0.66250000  1
  C  51  1  0.46391700  0.37398500  0.62660000  1
  C  52  1  0.44780050  0.38013200  0.58496300  1
  C  53  1  0.42418950  0.41230600  0.57909300  1
  C  54  1  0.41288450  0.43603600  0.61571400  1
  C  57  1  0.42713600  0.46447100  0.69570200  1
  C  58  1  0.43283050  0.45554000  0.74093400  1
  C  59  1  0.43108050  0.48928600  0.77521200  1
  C  60  1  0.41742750  0.52898200  0.76496400  1
  C  61  1  0.41102250  0.53907300  0.72150500  1
  C  62  1  0.42035750  0.50995000  0.68824100  1
  C  73  1  0.43759400  0.00045600  0.48552000  1
  C  74  1  0.40642350  0.94271400  0.48824500  1
  C  75  1  0.37694300  0.90819900  0.45237100  1
  C  76  1  0.38183050  0.93072200  0.41136200  1
  C  77  1  0.41395400  0.98654900  0.40610400  1
  C  78  1  0.43861900  0.02134600  0.44297700  1
  C  81  1  0.46847100  0.03513900  0.52227400  1
  C  82  1  0.46037450  0.02027200  0.56734000  1
  C  83  1  0.49461950  0.05568000  0.60150000  1
  C  84  1  0.53375350  0.10923400  0.59152700  1
  C  85  1  0.54295050  0.12596000  0.54825800  1
  C  86  1  0.51358550  0.08755900  0.51482100  1
  C  97  1  0.99356650  0.43176000  0.82105600  1
  C  98  1  0.05116750  0.45849200  0.82753200  1
  C  99  1  0.08757000  0.46761400  0.79312600  1
  C  100  1  0.06739450  0.45477500  0.75020700  1
  C  101  1  0.01190300  0.43087400  0.74153300  1
  C  102  1  0.97510900  0.41604400  0.77642300  1
  C  105  1  0.95696700  0.42419800  0.85646000  1
  C  106  1  0.97052750  0.42885700  0.90225200  1
  C  107  1  0.93509750  0.42800500  0.93526600  1
  C  108  1  0.88135700  0.41256100  0.92342800  1
  C  109  1  0.86482350  0.40466200  0.87951400  1
  C  110  1  0.90392850  0.41527400  0.84741900  1
  C  121  1  0.55896050  0.55301600  0.16146300  1
  C  122  1  0.53168750  0.58357700  0.16628300  1
  C  123  1  0.52608100  0.61255600  0.13179500  1
  C  124  1  0.54140800  0.60532900  0.08973400  1
  C  125  1  0.56599400  0.57406600  0.08260600  1
  C  126  1  0.57832100  0.55149700  0.11829900  1
  C  129  1  0.56357750  0.52271200  0.19670500  1
  C  130  1  0.55725500  0.53128400  0.24231300  1
  C  131  1  0.55690250  0.49641600  0.27484000  1
  C  132  1  0.57165550  0.45742200  0.26293500  1
  C  133  1  0.58004600  0.44849000  0.21919700  1
  C  134  1  0.57129950  0.47780800  0.18715400  1
  C  145  1  0.56946100  0.03428200  0.78370900  1
  C  146  1  0.56406700  0.06007000  0.74745200  1
  C  147  1  0.52540800  0.03047800  0.71430600  1
  C  148  1  0.49346200  0.97378600  0.71827200  1
  C  149  1  0.49789050  0.94671200  0.75515100  1
  C  150  1  0.53561250  0.97782100  0.78957900  1
  C  157  1  0.52309550  0.05886700  0.67815000  1
  C  159  1  0.53820650  0.95636500  0.83032900  1
  C  161  1  0.95507050  0.52829200  0.11848400  1
  C  162  1  0.92978250  0.49674700  0.08091500  1
  C  163  1  0.95969700  0.48679700  0.04911000  1
  C  164  1  0.01624300  0.51119000  0.05570400  1
  C  165  1  0.04281050  0.54305200  0.09395100  1
  C  166  1  0.01130150  0.55038400  0.12703200  1
  C  173  1  0.93174550  0.45545800  0.01166600  1
  C  175  1  0.03207800  0.57443400  0.16897700  1
  C  177  1  0.45845200  0.41941500  0.45495900  1
  C  178  1  0.48910350  0.42476300  0.41789300  1
  C  179  1  0.49877250  0.46421400  0.38694000  1
  C  180  1  0.47498350  0.49689700  0.39382800  1
  C  181  1  0.44402150  0.49251800  0.43160700  1
  C  182  1  0.43699450  0.45408000  0.46388200  1
  C  189  1  0.52933900  0.46669500  0.35002500  1
  C  191  1  0.41374850  0.45151300  0.50544300  1
  C  193  1  0.41531550  0.96381300  0.27905800  1
  C  194  1  0.41918000  0.93883500  0.24048100  1
  C  195  1  0.46110800  0.96750600  0.21077600  1
  C  196  1  0.49739400  0.02295000  0.22013900  1
  C  197  1  0.49434350  0.04922800  0.25935000  1
  C  198  1  0.45373100  0.01840400  0.29059900  1
  C  205  1  0.46307700  0.93936700  0.17298400  1
  C  207  1  0.45244450  0.03767600  0.33358600  1
  C  209  1  0.04344050  0.47671400  0.62023600  1
  C  210  1  0.06826850  0.50836000  0.58408600  1
  C  211  1  0.03726300  0.51378400  0.55089200  1
  C  212  1  0.98035050  0.48567100  0.55503400  1
  C  213  1  0.95419650  0.45360600  0.59176600  1
  C  214  1  0.98645650  0.44983900  0.62589000  1
  C  221  1  0.06456200  0.54387100  0.51420900  1
  C  223  1  0.96519850  0.42402800  0.66603100  1
  C  225  1  0.52538350  0.56304400  0.96000300  1
  C  226  1  0.49318900  0.55662800  0.92343500  1
  C  227  1  0.48519000  0.51870500  0.88973300  1
  C  228  1  0.51170900  0.48832900  0.89363600  1
  C  229  1  0.54416850  0.49371900  0.93086500  1
  C  230  1  0.55004800  0.53089300  0.96568300  1
  C  237  1  0.45402450  0.51586900  0.85300800  1
  C  239  1  0.57546450  0.53450300  0.00654800  1
  C  241  1  0.75988600  0.28258900  0.90342600  1
  C  242  1  0.73447800  0.23581200  0.92840500  1
  C  243  1  0.69741450  0.23017800  0.96144900  1
  C  244  1  0.68920400  0.27437600  0.97033900  1
  C  245  1  0.71448500  0.32207400  0.94555000  1
  C  246  1  0.74980300  0.32581800  0.91104000  1
  C  253  1  0.66624800  0.18104600  0.98182700  1
  C  255  1  0.76789850  0.36644000  0.88039400  1
  C  257  1  0.70365350  0.46830100  0.24124000  1
  C  258  1  0.75242300  0.49178900  0.26543300  1
  C  259  1  0.76108450  0.46287700  0.29837800  1
  C  260  1  0.71794450  0.41095000  0.30807300  1
  C  261  1  0.66826500  0.38643600  0.28409900  1
  C  262  1  0.66142150  0.41537000  0.24960600  1
  C  269  1  0.81191350  0.48258800  0.31786400  1
  C  271  1  0.61854800  0.39034000  0.21953900  1
  C  273  1  0.52332250  0.23025200  0.57191400  1
  C  274  1  0.50002850  0.25564900  0.59626800  1
  C  275  1  0.52909350  0.29314600  0.63079400  1
  C  276  1  0.58103500  0.30183200  0.64173600  1
  C  277  1  0.60537750  0.27659200  0.61760800  1
  C  278  1  0.57623550  0.24079300  0.58164500  1
  C  285  1  0.50939650  0.32409000  0.65092100  1
  C  287  1  0.60102100  0.22268800  0.55172900  1
  C  289  1  0.23249450  0.70271500  0.39990700  1
  C  290  1  0.25902300  0.75254200  0.42320100  1
  C  291  1  0.29709300  0.76211900  0.45686300  1
  C  292  1  0.30535350  0.71897400  0.46798200  1
  C  293  1  0.27897500  0.66825000  0.44492000  1
  C  294  1  0.24243450  0.66031700  0.40988400  1
  C  301  1  0.32853100  0.81341900  0.47627300  1
  C  303  1  0.22245950  0.61557300  0.38111600  1
  C  305  1  0.28871850  0.52205400  0.74405200  1
  C  306  1  0.24050000  0.49967300  0.76784700  1
  C  307  1  0.23305200  0.52972200  0.80191500  1
  C  308  1  0.27677700  0.58171800  0.81302000  1
  C  309  1  0.32591700  0.60513100  0.78946200  1
  C  310  1  0.33159900  0.57499600  0.75392100  1
  C  317  1  0.18273300  0.51091100  0.82116400  1
  C  319  1  0.37407800  0.59873000  0.72452200  1
  C  321  1  0.48784950  0.77589000  0.06306300  1
  C  322  1  0.51819300  0.75698700  0.08487900  1
  C  323  1  0.49454950  0.71692200  0.11681900  1
  C  324  1  0.44001000  0.69856500  0.12773500  1
  C  325  1  0.40870950  0.71766500  0.10647900  1
  C  326  1  0.43286750  0.75638700  0.07299100  1
  C  333  1  0.52346600  0.69257300  0.13123200  1
  C  335  1  0.40246250  0.76947800  0.04523700  1
  H  7  1  0.58742350  0.06905800  0.01941100  1
  H  8  1  0.62579050  0.08660800  0.88804400  1
  H  15  1  0.43572100  0.85860800  0.11046700  1
  H  16  1  0.46750200  0.89117800  0.98099300  1
  H  19  1  0.50680150  0.90200200  0.91445300  1
  H  20  1  0.60692300  0.01685000  0.08280600  1
  H  31  1  0.92395150  0.51576200  0.35530600  1
  H  32  1  0.90239450  0.53420200  0.22417200  1
  H  39  1  0.13790950  0.57597500  0.44773800  1
  H  40  1  0.09625150  0.56342800  0.31799200  1
  H  43  1  0.08760800  0.59584800  0.25353800  1
  H  44  1  0.95219400  0.52314800  0.42926400  1
  H  55  1  0.47615550  0.40204200  0.69076400  1
  H  56  1  0.45592600  0.36308600  0.55811600  1
  H  63  1  0.41645600  0.55436000  0.78855200  1
  H  64  1  0.42500050  0.52521400  0.65785700  1
  H  67  1  0.39274250  0.48463000  0.59120900  1
  H  68  1  0.47130750  0.42340700  0.76523500  1
  H  79  1  0.40667450  0.92376300  0.51578900  1
  H  80  1  0.36411550  0.90567000  0.38436500  1
  H  87  1  0.55920900  0.13571800  0.61503300  1
  H  88  1  0.52832250  0.09839500  0.48420800  1
  H  91  1  0.48634750  0.09072400  0.41963700  1
  H  92  1  0.42909550  0.94952700  0.59035900  1
  H  103  1  0.06873650  0.47462600  0.85711700  1
  H  104  1  0.09382750  0.46500600  0.72463000  1
  H  111  1  0.85454100  0.41107600  0.94613600  1
  H  112  1  0.89312150  0.41967800  0.81683500  1
  H  115  1  0.90734650  0.39652600  0.74881600  1
  H  116  1  0.01276000  0.39678400  0.91535300  1
  H  127  1  0.51284750  0.58359400  0.19449000  1
  H  128  1  0.53222500  0.62126900  0.06352800  1
  H  135  1  0.57228150  0.43178200  0.28521700  1
  H  136  1  0.56761150  0.46296800  0.15598600  1
  H  139  1  0.60039150  0.50445400  0.09115600  1
  H  140  1  0.58924850  0.60552100  0.25821600  1
  H  151  1  0.59836450  0.05851400  0.80643400  1
  H  152  1  0.58919700  0.10108900  0.74562900  1
  H  153  1  0.46603250  0.95171700  0.69386900  1
  H  155  1  0.44002850  0.87208700  0.73157600  1
  H  156  1  0.46727900  0.87025500  0.77855300  1
  H  158  1  0.54952150  0.09958000  0.67830800  1
  H  160  1  0.51196150  0.91721500  0.83763200  1
  H  167  1  0.93060200  0.53343600  0.14020100  1
  H  168  1  0.88886150  0.48112000  0.07719200  1
  H  169  1  0.03854800  0.50519800  0.03229100  1
  H  171  1  0.11761750  0.55894800  0.07377800  1
  H  172  1  0.11889450  0.58884800  0.12093200  1
  H  174  1  0.89110200  0.44141600  0.01009100  1
  H  176  1  0.07089200  0.58663800  0.17805600  1
  H  183  1  0.45342000  0.39000000  0.47602100  1
  H  184  1  0.50430150  0.39910700  0.41391500  1
  H  185  1  0.48078900  0.52491200  0.37101800  1
  H  187  1  0.42849250  0.55165600  0.41240300  1
  H  188  1  0.39953500  0.52402900  0.45871500  1
  H  190  1  0.54309500  0.43986000  0.34837600  1
  H  192  1  0.40164150  0.47820700  0.51486700  1
  H  199  1  0.38422500  0.94021600  0.29931800  1
  H  200  1  0.39101650  0.89884800  0.23475300  1
  H  201  1  0.52727350  0.04445400  0.19824800  1
  H  203  1  0.55852450  0.12243000  0.24328600  1
  H  204  1  0.53068850  0.12410700  0.29008700  1
  H  206  1  0.43361100  0.89970200  0.16974300  1
  H  208  1  0.48098850  0.07530600  0.34440400  1
  H  215  1  0.06868750  0.47471200  0.64292550  1
  H  216  1  0.10960450  0.52694300  0.58218200  1
  H  217  1  0.95733450  0.48846500  0.53064100  1
  H  219  1  0.87846250  0.43125400  0.56829200  1
  H  220  1  0.87805400  0.40352800  0.61499100  1
  H  222  1  0.10562350  0.56029500  0.51375400  1
  H  224  1  0.92547950  0.40854300  0.67339900  1
  H  231  1  0.52931750  0.59144900  0.98304100  1
  H  232  1  0.47600200  0.58066200  0.92168700  1
  H  233  1  0.50709150  0.46145100  0.86885700  1
  H  235  1  0.56315050  0.43774400  0.90688100  1
  H  236  1  0.59246600  0.46540800  0.95439100  1
  H  238  1  0.43853900  0.54130900  0.85315800  1
  H  240  1  0.58960900  0.50915200  0.01380200  1
  H  247  1  0.78371800  0.28343000  0.87803200  1
  H  248  1  0.74114800  0.20453200  0.92055900  1
  H  249  1  0.66211750  0.27073400  0.99391100  1
  H  251  1  0.67941600  0.35919500  0.97917700  1
  H  252  1  0.72070700  0.39638300  0.94028200  1
  H  254  1  0.65735550  0.17968200  0.01333800  1
  H  256  1  0.73976400  0.37088600  0.86504500  1
  H  263  1  0.70055750  0.48935200  0.21580600  1
  H  264  1  0.78282750  0.52928200  0.25702100  1
  H  265  1  0.72376000  0.38931400  0.33159400  1
  H  267  1  0.63441900  0.31663900  0.31841200  1
  H  268  1  0.59389400  0.31762900  0.28011800  1
  H  270  1  0.81583250  0.47685300  0.34925300  1
  H  272  1  0.61330500  0.35683700  0.20439200  1
  H  279  1  0.50211600  0.20606900  0.54547000  1
  H  280  1  0.46249550  0.24858200  0.58695600  1
  H  281  1  0.60278250  0.32920900  0.66643700  1
  H  283  1  0.67534250  0.31247600  0.65421900  1
  H  284  1  0.67410900  0.27090800  0.61485600  1
  H  286  1  0.51540350  0.33362800  0.68268500  1
  H  288  1  0.63441500  0.25083200  0.53783900  1
  H  295  1  0.20770850  0.69873500  0.37410700  1
  H  296  1  0.25210850  0.78280100  0.41383600  1
  H  297  1  0.33308050  0.72537700  0.49209000  1
  H  299  1  0.31495950  0.63520000  0.48104400  1
  H  300  1  0.27213850  0.59327300  0.44303900  1
  H  302  1  0.33915100  0.81792200  0.50770700  1
  H  304  1  0.24955300  0.60860000  0.36652300  1
  H  311  1  0.29095750  0.50013400  0.71787900  1
  H  312  1  0.20960700  0.46209600  0.75840000  1
  H  313  1  0.27179850  0.60416800  0.83735400  1
  H  315  1  0.36117600  0.67588200  0.82588600  1
  H  316  1  0.40059500  0.67338300  0.78723300  1
  H  318  1  0.17946200  0.51622900  0.85300400  1
  H  320  1  0.37981550  0.63222500  0.71061600  1
  H  327  1  0.50579650  0.80196800  0.03802700  1
  H  328  1  0.55695750  0.77015800  0.07473500  1
  H  329  1  0.42208250  0.66910100  0.15042800  1
  H  331  1  0.34054650  0.67138800  0.14159200  1
  H  332  1  0.33355250  0.71037000  0.10604200  1
  H  334  1  0.56369550  0.71350600  0.12839600  1
  H  336  1  0.36958950  0.73880300  0.03139300  1
  N  21  1  0.41351250  0.81683400  0.03316500  1
  N  22  1  0.49714550  0.96192100  0.13913100  1
  N  23  1  0.56401900  0.99134300  0.86407400  1
  N  24  1  0.64583800  0.13755600  0.95800400  1
  N  45  1  0.17286300  0.58331800  0.36940200  1
  N  46  1  0.03921000  0.54636900  0.47766000  1
  N  47  1  0.99648850  0.56588000  0.20106400  1
  N  48  1  0.85351300  0.50457500  0.29336900  1
  N  69  1  0.40545200  0.58106000  0.71131200  1
  N  70  1  0.44933000  0.48699100  0.81580500  1
  N  71  1  0.42293150  0.42501600  0.53717800  1
  N  72  1  0.48685950  0.34353200  0.62679300  1
  N  93  1  0.58446550  0.17374700  0.53808800  1
  N  94  1  0.49307900  0.03497600  0.64146400  1
  N  95  1  0.42528100  0.00056600  0.36405900  1
  N  96  1  0.34672600  0.85475100  0.45200400  1
  N  117  1  0.81674400  0.39751400  0.86777100  1
  N  118  1  0.95588400  0.44836400  0.97596100  1
  N  119  1  0.99984000  0.43225800  0.69919000  1
  N  120  1  0.14077150  0.48980000  0.79603800  1
  N  141  1  0.58622200  0.40684400  0.20717300  1
  N  142  1  0.53669300  0.49766300  0.31497500  1
  N  143  1  0.56663150  0.56021600  0.04032000  1
  N  144  1  0.50017300  0.64061100  0.13367300  1
  N  154  1  0.46488550  0.89196800  0.75577900  1
  N  170  1  0.09745750  0.56439000  0.09714200  1
  N  186  1  0.42326500  0.52631400  0.43519900  1
  N  202  1  0.53172600  0.10268800  0.26542400  1
  N  218  1  0.89907850  0.42815400  0.59232200  1
  N  234  1  0.56766900  0.46225000  0.93135600  1
  N  250  1  0.70324300  0.36224900  0.95526200  1
  N  266  1  0.62922550  0.33558000  0.29451400  1
  N  282  1  0.65625250  0.28831600  0.62934800  1
  N  298  1  0.29025550  0.62921200  0.45680800  1
  N  314  1  0.36558650  0.65610900  0.80131300  1
  N  330  1  0.35620300  0.69737600  0.11839400  1
  O  17  1  0.53953350  0.91828500  0.93316200  1
  O  18  1  0.57485200  0.02126900  0.08230500  1
  O  41  1  0.07251150  0.61381800  0.27179100  1
  O  42  1  0.97655000  0.55944400  0.41807700  1
  O  65  1  0.37551700  0.45169400  0.60846300  1
  O  66  1  0.43450550  0.41096000  0.75381000  1
  O  89  1  0.45341050  0.07426800  0.43725700  1
  O  90  1  0.41622400  0.97376100  0.58035300  1
  O  113  1  0.92285450  0.37846800  0.76563800  1
  O  114  1  0.01747300  0.43336900  0.91754800  1
  O  137  1  0.61655150  0.53689800  0.11057100  1
  O  138  1  0.55247200  0.57387500  0.25770500  1
