# generated using pymatgen
data_HC4(NO)2
_symmetry_space_group_name_H-M   'P 1'
_cell_length_a   9.87213333
_cell_length_b   33.79340000
_cell_length_c   33.95340000
_cell_angle_alpha   89.72210000
_cell_angle_beta   90.00000000
_cell_angle_gamma   90.00000000
_symmetry_Int_Tables_number   1
_chemical_formula_structural   HC4(NO)2
_chemical_formula_sum   'H36 C144 N72 O72'
_cell_volume   11327.16071874
_cell_formula_units_Z   36
loop_
 _symmetry_equiv_pos_site_id
 _symmetry_equiv_pos_as_xyz
  1  'x, y, z'
loop_
 _atom_site_type_symbol
 _atom_site_label
 _atom_site_symmetry_multiplicity
 _atom_site_fract_x
 _atom_site_fract_y
 _atom_site_fract_z
 _atom_site_occupancy
  C  1  1  0.01802000  0.57249400  0.13106100  1
  C  3  1  0.01810500  0.55418900  0.06366200  1
  C  5  1  0.01767300  0.62199600  0.08142600  1
  C  7  1  0.02026000  0.41779700  0.87674700  1
  C  9  1  0.01917800  0.43574700  0.94424500  1
  C  11  1  0.01932100  0.36802300  0.92615200  1
  C  13  1  0.01764700  0.86954500  0.58217400  1
  C  15  1  0.01813600  0.93740600  0.56398100  1
  C  17  1  0.01712500  0.91893900  0.63148300  1
  C  19  1  0.02046800  0.12410300  0.42543500  1
  C  21  1  0.01910800  0.05637600  0.44409900  1
  C  23  1  0.01935700  0.07435600  0.37646100  1
  C  25  1  0.02117700  0.83953300  0.99962400  1
  C  27  1  0.02009400  0.78670200  0.04556300  1
  C  29  1  0.02068000  0.85292800  0.06787800  1
  C  31  1  0.02028100  0.15065900  0.00894000  1
  C  33  1  0.01967800  0.20343300  0.96290500  1
  C  35  1  0.02045800  0.13716500  0.94072600  1
  C  37  1  0.02151700  0.00002700  0.84789200  1
  C  39  1  0.02002300  0.95426700  0.79536400  1
  C  41  1  0.02090900  0.93136500  0.86134500  1
  C  43  1  0.02042800  0.98994800  0.16096500  1
  C  45  1  0.01992200  0.03612600  0.21317700  1
  C  47  1  0.02046300  0.05852400  0.14702900  1
  C  49  1  0.01827400  0.34046100  0.50911300  1
  C  51  1  0.01865500  0.28820200  0.46296000  1
  C  53  1  0.01816300  0.35471300  0.44091600  1
  C  55  1  0.01828300  0.65294600  0.49920800  1
  C  57  1  0.01806100  0.70531600  0.54523300  1
  C  59  1  0.01819300  0.63883400  0.56745800  1
  C  61  1  0.01802000  0.50066600  0.66018000  1
  C  63  1  0.01857100  0.45439300  0.71273400  1
  C  65  1  0.01840900  0.43211300  0.64673900  1
  C  67  1  0.01784200  0.49293400  0.34842200  1
  C  69  1  0.01813600  0.53882500  0.29560200  1
  C  71  1  0.01834200  0.56155400  0.36145300  1
  C  73  1  0.01704700  0.46529200  0.97392800  1
  C  74  1  0.89392500  0.48022400  0.98941900  1
  C  75  1  0.89691400  0.50960000  0.01917800  1
  C  76  1  0.02020600  0.52452900  0.03408700  1
  C  77  1  0.14332900  0.50957600  0.01861500  1
  C  79  1  0.14034000  0.48022100  0.98883500  1
  C  87  1  0.01699000  0.02678100  0.47398000  1
  C  88  1  0.89384500  0.01165400  0.48939500  1
  C  89  1  0.89687500  0.98210600  0.51926000  1
  C  90  1  0.02022600  0.96718300  0.53427300  1
  C  91  1  0.14336500  0.98234100  0.51887900  1
  C  93  1  0.14033600  0.01189300  0.48902200  1
  C  101  1  0.02141200  0.74552600  0.05374500  1
  C  102  1  0.14424000  0.72439000  0.05885000  1
  C  103  1  0.14034100  0.68329000  0.06750900  1
  C  104  1  0.01647400  0.66269400  0.07104900  1
  C  105  1  0.89365700  0.68386100  0.06600800  1
  C  107  1  0.89755200  0.72494900  0.05730200  1
  C  115  1  0.02149700  0.24458600  0.95454800  1
  C  116  1  0.14453000  0.26544900  0.94877800  1
  C  117  1  0.14116300  0.30648100  0.93976200  1
  C  118  1  0.01762900  0.32729600  0.93649500  1
  C  119  1  0.89460400  0.30641300  0.94225400  1
  C  121  1  0.89796600  0.26538400  0.95128400  1
  C  129  1  0.02117300  0.94629100  0.75437900  1
  C  130  1  0.14391200  0.94183100  0.73318600  1
  C  131  1  0.13989000  0.93322500  0.69233300  1
  C  132  1  0.01596700  0.92908200  0.67199900  1
  C  133  1  0.89324800  0.93359000  0.69319700  1
  C  135  1  0.89726300  0.94219200  0.73405000  1
  C  143  1  0.02175500  0.04462500  0.25407000  1
  C  144  1  0.14462000  0.05129500  0.27461100  1
  C  145  1  0.14119200  0.06079400  0.31526900  1
  C  146  1  0.01774600  0.06374400  0.33605700  1
  C  147  1  0.89488300  0.05711300  0.31549900  1
  C  149  1  0.89831100  0.04759300  0.27484200  1
  C  157  1  0.01715500  0.24716400  0.45440000  1
  C  158  1  0.89434100  0.22631300  0.44838900  1
  C  159  1  0.89809900  0.18543200  0.43908800  1
  C  160  1  0.02183500  0.16478000  0.43562100  1
  C  161  1  0.14464500  0.18567800  0.44151700  1
  C  163  1  0.14088200  0.22654100  0.45087900  1
  C  171  1  0.01601800  0.74639800  0.55360800  1
  C  172  1  0.89291200  0.76714200  0.55949000  1
  C  173  1  0.89608300  0.80807300  0.56858400  1
  C  174  1  0.01950600  0.82891100  0.57185300  1
  C  175  1  0.14260900  0.80815500  0.56599200  1
  C  177  1  0.13944100  0.76722700  0.55688000  1
  C  185  1  0.01706200  0.44602400  0.75373400  1
  C  186  1  0.89421900  0.44058500  0.77469800  1
  C  187  1  0.89792800  0.43171100  0.81558500  1
  C  188  1  0.02163400  0.42820400  0.83618600  1
  C  189  1  0.14447500  0.43350400  0.81517800  1
  C  191  1  0.14076700  0.44246200  0.77430900  1
  C  199  1  0.01623100  0.54667200  0.25452000  1
  C  200  1  0.89310400  0.55134200  0.23352200  1
  C  201  1  0.89634700  0.55933500  0.19246200  1
  C  202  1  0.01983900  0.56251300  0.17170600  1
  C  203  1  0.14295400  0.55787300  0.19272600  1
  C  205  1  0.13972800  0.54986500  0.23378400  1
  C  213  1  0.02289400  0.95125600  0.14534900  1
  C  214  1  0.14602200  0.93405600  0.13245400  1
  C  215  1  0.14272200  0.89943600  0.10908600  1
  C  216  1  0.01900000  0.88197600  0.09768700  1
  C  217  1  0.89581900  0.89945300  0.11011900  1
  C  219  1  0.89920200  0.93370200  0.13402600  1
  C  227  1  0.02366500  0.03862700  0.86367800  1
  C  228  1  0.14673400  0.05584000  0.87656800  1
  C  229  1  0.14313200  0.09056900  0.89976200  1
  C  230  1  0.01925900  0.10803700  0.91102300  1
  C  231  1  0.89616900  0.09047200  0.89860800  1
  C  233  1  0.89978600  0.05618300  0.87477000  1
  C  241  1  0.02332500  0.85513600  0.96095700  1
  C  242  1  0.14650000  0.86728700  0.94320400  1
  C  243  1  0.14306500  0.89008900  0.90808700  1
  C  244  1  0.01931000  0.90145800  0.89055800  1
  C  245  1  0.89613300  0.88961400  0.90853400  1
  C  247  1  0.89954700  0.86629600  0.94331800  1
  C  255  1  0.02251900  0.13498400  0.04758600  1
  C  256  1  0.14579600  0.12272400  0.06520900  1
  C  257  1  0.14249400  0.09976300  0.10022600  1
  C  258  1  0.01874700  0.08830500  0.11768500  1
  C  259  1  0.89545000  0.10016300  0.09979500  1
  C  261  1  0.89875800  0.12364700  0.06512300  1
  C  269  1  0.01583200  0.45423900  0.36429500  1
  C  270  1  0.89260900  0.43667000  0.37675000  1
  C  271  1  0.89604300  0.40165100  0.39984200  1
  C  272  1  0.01988200  0.38416800  0.41127100  1
  C  273  1  0.14308500  0.40200600  0.39921000  1
  C  275  1  0.13964100  0.43666200  0.37558100  1
  C  283  1  0.01595500  0.53945200  0.64442800  1
  C  284  1  0.89273600  0.55703900  0.63199000  1
  C  285  1  0.89610400  0.59201600  0.60881900  1
  C  286  1  0.01985100  0.60942200  0.59718400  1
  C  287  1  0.14305700  0.59158100  0.60927500  1
  C  289  1  0.13970800  0.55699700  0.63302700  1
  C  297  1  0.01620100  0.35582200  0.54774800  1
  C  298  1  0.89305600  0.36802900  0.56538400  1
  C  299  1  0.89645300  0.39087700  0.60026000  1
  C  300  1  0.02017400  0.40239400  0.61759900  1
  C  301  1  0.14333400  0.39068200  0.59963900  1
  C  303  1  0.13993600  0.36724800  0.56514900  1
  C  311  1  0.01623700  0.63758800  0.46055500  1
  C  312  1  0.89302300  0.62558800  0.44282700  1
  C  313  1  0.89639700  0.60286500  0.40786500  1
  C  314  1  0.02013900  0.59137400  0.39051400  1
  C  315  1  0.14335000  0.60298000  0.40851800  1
  C  317  1  0.13999500  0.62622700  0.44313300  1
  H  78  1  0.80732800  0.52015500  0.03000100  1
  H  80  1  0.22992600  0.46968900  0.97798600  1
  H  92  1  0.80730800  0.97142000  0.53007400  1
  H  94  1  0.22990500  0.02256700  0.47819400  1
  H  106  1  0.22953200  0.66839900  0.07146700  1
  H  108  1  0.80833300  0.73995000  0.05384000  1
  H  120  1  0.23051900  0.32117900  0.93542000  1
  H  122  1  0.80857500  0.25057900  0.95518500  1
  H  134  1  0.22907600  0.92974500  0.67742400  1
  H  136  1  0.80807800  0.94524000  0.74905600  1
  H  148  1  0.23046300  0.06570000  0.32972400  1
  H  150  1  0.80896900  0.04315400  0.26027000  1
  H  162  1  0.80887800  0.17072500  0.43469400  1
  H  164  1  0.23013900  0.24134900  0.45488100  1
  H  176  1  0.80666500  0.82268000  0.57297900  1
  H  178  1  0.22890500  0.75251600  0.55292200  1
  H  190  1  0.80866600  0.42758300  0.83032800  1
  H  192  1  0.23005900  0.44608700  0.75945600  1
  H  204  1  0.80690300  0.56304000  0.17770100  1
  H  206  1  0.22918700  0.54662800  0.24864000  1
  H  218  1  0.23191700  0.88823800  0.09860500  1
  H  220  1  0.80982500  0.94712200  0.14131000  1
  H  232  1  0.23217300  0.10180800  0.91030500  1
  H  234  1  0.81051900  0.04269800  0.86749600  1
  H  246  1  0.23229200  0.90020200  0.89648700  1
  H  248  1  0.81024600  0.85940300  0.95700800  1
  H  260  1  0.23174500  0.08962800  0.11179000  1
  H  262  1  0.80943700  0.13061300  0.05147900  1
  H  274  1  0.80684200  0.39013700  0.41008800  1
  H  276  1  0.22892400  0.45028900  0.36845500  1
  H  288  1  0.80688400  0.60350100  0.59856200  1
  H  290  1  0.22901900  0.54333700  0.64006200  1
  H  302  1  0.80719600  0.40093500  0.61178900  1
  H  304  1  0.22922200  0.36048300  0.55145400  1
  H  316  1  0.80713100  0.59286800  0.39629100  1
  H  318  1  0.22926700  0.63298300  0.45684000  1
  N  2  1  0.01885000  0.54420500  0.10260700  1
  N  4  1  0.01775000  0.59323500  0.05347800  1
  N  6  1  0.01768600  0.61121500  0.12004100  1
  N  8  1  0.01998300  0.44592400  0.90535700  1
  N  10  1  0.01822900  0.39665600  0.95422900  1
  N  12  1  0.02010300  0.37900200  0.88757300  1
  N  14  1  0.01884100  0.89840300  0.55405300  1
  N  16  1  0.01757200  0.94729100  0.60283700  1
  N  18  1  0.01699300  0.88022200  0.62073800  1
  N  20  1  0.02006300  0.09544300  0.45375400  1
  N  22  1  0.01813300  0.04622600  0.40531900  1
  N  24  1  0.02030800  0.11316300  0.38692900  1
  N  26  1  0.02113200  0.80005200  0.00762400  1
  N  28  1  0.01999300  0.81337600  0.07555800  1
  N  30  1  0.02112200  0.86550200  0.02991700  1
  N  32  1  0.02036600  0.19014000  0.00087700  1
  N  34  1  0.01997700  0.17669700  0.93296600  1
  N  36  1  0.02054400  0.12465300  0.97869400  1
  N  38  1  0.02122800  0.99230100  0.80859600  1
  N  40  1  0.01998200  0.92392400  0.82199400  1
  N  42  1  0.02150200  0.96938900  0.87375500  1
  N  44  1  0.02055500  0.99797600  0.20022200  1
  N  46  1  0.02013400  0.06624800  0.18631200  1
  N  48  1  0.02054900  0.02041300  0.13489200  1
  N  50  1  0.01804400  0.30106300  0.50096800  1
  N  52  1  0.01855000  0.31528100  0.43307700  1
  N  54  1  0.01817500  0.36679500  0.47889500  1
  N  56  1  0.01762600  0.69235900  0.50726400  1
  N  58  1  0.01809700  0.67829700  0.57518400  1
  N  60  1  0.01837900  0.62667700  0.52948800  1
  N  62  1  0.01777000  0.49255200  0.69948200  1
  N  64  1  0.01870600  0.42431300  0.68609900  1
  N  66  1  0.01820200  0.47026600  0.63432100  1
  N  68  1  0.01736200  0.50077000  0.30909200  1
  N  70  1  0.01839800  0.56910300  0.32203100  1
  N  72  1  0.01817900  0.52347500  0.37410100  1
  N  81  1  0.26732000  0.52439300  0.03335100  1
  N  82  1  0.76995500  0.46541000  0.97466400  1
  N  95  1  0.26736000  0.96754800  0.53378000  1
  N  96  1  0.76986900  0.02650000  0.47453500  1
  N  109  1  0.76921600  0.66346900  0.07005000  1
  N  110  1  0.26859000  0.74492500  0.05530600  1
  N  123  1  0.77046100  0.32701200  0.93850200  1
  N  124  1  0.26858100  0.24473100  0.95216200  1
  N  137  1  0.76874000  0.92926300  0.67303800  1
  N  138  1  0.26835800  0.94593000  0.75343500  1
  N  151  1  0.77076100  0.06061300  0.33602500  1
  N  152  1  0.26865100  0.04823200  0.25396400  1
  N  165  1  0.26900400  0.16525900  0.43760700  1
  N  166  1  0.77011300  0.24689700  0.45181200  1
  N  179  1  0.26664000  0.82878200  0.56973000  1
  N  180  1  0.76894900  0.74641400  0.55612300  1
  N  193  1  0.26882900  0.42941700  0.83551100  1
  N  194  1  0.76997100  0.44404500  0.75419400  1
  N  207  1  0.26706000  0.56160800  0.17219500  1
  N  208  1  0.76906800  0.54800700  0.25415500  1
  N  221  1  0.77167200  0.88332900  0.09687400  1
  N  222  1  0.26998300  0.95284000  0.14184100  1
  N  235  1  0.77185600  0.10651900  0.91182800  1
  N  236  1  0.27076800  0.03699000  0.86739400  1
  N  249  1  0.77195000  0.90282400  0.89229200  1
  N  250  1  0.27055600  0.85778200  0.96189600  1
  N  263  1  0.77135800  0.08680500  0.11598000  1
  N  264  1  0.26977600  0.13223200  0.04647700  1
  N  277  1  0.26725800  0.38578400  0.41247700  1
  N  278  1  0.76857300  0.45544100  0.36723800  1
  N  291  1  0.26719700  0.60774700  0.59590800  1
  N  292  1  0.76870000  0.53831900  0.64159700  1
  N  305  1  0.26745700  0.40415200  0.61557800  1
  N  306  1  0.76898800  0.35859200  0.54675400  1
  N  319  1  0.26746500  0.58960100  0.39249600  1
  N  320  1  0.76898400  0.63506700  0.46144800  1
  O  83  1  0.33564600  0.54047300  0.00649300  1
  O  84  1  0.70055500  0.49252200  0.95928300  1
  O  85  1  0.70170300  0.44926200  0.00149300  1
  O  86  1  0.33663100  0.49729200  0.04878600  1
  O  97  1  0.33628500  0.99462900  0.54913500  1
  O  98  1  0.70130800  0.04239700  0.50129800  1
  O  99  1  0.70077100  0.99946800  0.45915900  1
  O  100  1  0.33606800  0.95165100  0.50705200  1
  O  111  1  0.70153600  0.66515300  0.03877300  1
  O  112  1  0.33523800  0.74318000  0.08676800  1
  O  113  1  0.33928600  0.73101800  0.02791800  1
  O  114  1  0.69960200  0.67759300  0.09756500  1
  O  125  1  0.70417000  0.32575100  0.97004600  1
  O  126  1  0.33429600  0.24609000  0.92052000  1
  O  127  1  0.34038400  0.25874000  0.97925500  1
  O  128  1  0.69929200  0.31277200  0.91138400  1
  O  139  1  0.70016800  0.96051800  0.67456500  1
  O  140  1  0.33721300  0.97384800  0.73933400  1
  O  141  1  0.33682300  0.91466300  0.75179500  1
  O  142  1  0.70007200  0.90140400  0.68733300  1
  O  153  1  0.70594700  0.02865100  0.33549000  1
  O  154  1  0.33265100  0.08033300  0.25460300  1
  O  155  1  0.34204400  0.02151100  0.26842300  1
  O  156  1  0.69819800  0.08741500  0.32134900  1
  O  167  1  0.33540400  0.16609100  0.46913700  1
  O  168  1  0.70484700  0.24606600  0.42008400  1
  O  169  1  0.69802100  0.23236500  0.47870400  1
  O  170  1  0.33990300  0.18001100  0.41056000  1
  O  181  1  0.33280200  0.82792900  0.53815900  1
  O  182  1  0.70339900  0.74739000  0.58779700  1
  O  183  1  0.69693800  0.76071700  0.52909100  1
  O  184  1  0.33802800  0.81428000  0.59680200  1
  O  195  1  0.33632800  0.46088300  0.83401300  1
  O  196  1  0.70394800  0.41231300  0.75572300  1
  O  197  1  0.69859900  0.47136700  0.76812500  1
  O  198  1  0.33867700  0.40187300  0.82134800  1
  O  209  1  0.33483200  0.53022200  0.17430500  1
  O  210  1  0.70194000  0.57950200  0.25193000  1
  O  211  1  0.69859900  0.52015200  0.24088500  1
  O  212  1  0.33683900  0.58950700  0.18567900  1
  O  223  1  0.69915100  0.87262100  0.12537200  1
  O  224  1  0.34557400  0.93015000  0.16130000  1
  O  225  1  0.33164800  0.96377800  0.11131100  1
  O  226  1  0.70672200  0.90789500  0.07639800  1
  O  237  1  0.69910600  0.11706300  0.88331800  1
  O  238  1  0.34668400  0.05957800  0.84792600  1
  O  239  1  0.33198100  0.02616500  0.89803800  1
  O  240  1  0.70725900  0.08195200  0.93239600  1
  O  251  1  0.69865000  0.87411500  0.88259100  1
  O  252  1  0.34461300  0.83748100  0.93973100  1
  O  253  1  0.33387700  0.88843300  0.97170000  1
  O  254  1  0.70786200  0.92399600  0.91622300  1
  O  265  1  0.69781900  0.11541800  0.12580100  1
  O  266  1  0.34423900  0.15234800  0.06869200  1
  O  267  1  0.33270000  0.10157500  0.03646800  1
  O  268  1  0.70746100  0.06569100  0.09195300  1
  O  279  1  0.34034700  0.37567900  0.38398300  1
  O  280  1  0.69388800  0.43299200  0.34742800  1
  O  281  1  0.70593000  0.46574500  0.39771200  1
  O  282  1  0.33157500  0.41005500  0.43323200  1
  O  293  1  0.34040800  0.61794800  0.62434200  1
  O  294  1  0.69419600  0.56082900  0.66139200  1
  O  295  1  0.70585600  0.52797600  0.61116700  1
  O  296  1  0.33140900  0.58340800  0.57520900  1
  O  307  1  0.34155900  0.37560500  0.62551800  1
  O  308  1  0.69454600  0.33841900  0.56911700  1
  O  309  1  0.70609300  0.38928800  0.53654800  1
  O  310  1  0.33070000  0.42540500  0.59132200  1
  O  321  1  0.34145100  0.61821100  0.38266800  1
  O  322  1  0.69491700  0.65541700  0.43913700  1
  O  323  1  0.70565800  0.60439700  0.47149200  1
  O  324  1  0.33083200  0.56826600  0.41664700  1
