# generated using pymatgen
data_SrH8C14SO6
_symmetry_space_group_name_H-M   'P 1'
_cell_length_a   4.71098000
_cell_length_b   13.15205000
_cell_length_c   23.32113000
_cell_angle_alpha   100.01234000
_cell_angle_beta   89.91673000
_cell_angle_gamma   89.92742000
_symmetry_Int_Tables_number   1
_chemical_formula_structural   SrH8C14SO6
_chemical_formula_sum   'Sr4 H32 C56 S4 O24'
_cell_volume   1422.94554971
_cell_formula_units_Z   4
loop_
 _symmetry_equiv_pos_site_id
 _symmetry_equiv_pos_as_xyz
  1  'x, y, z'
loop_
 _atom_site_type_symbol
 _atom_site_label
 _atom_site_symmetry_multiplicity
 _atom_site_fract_x
 _atom_site_fract_y
 _atom_site_fract_z
 _atom_site_occupancy
  Sr  Sr0  1  0.24546000  0.61269000  0.23135000  1
  Sr  Sr1  1  0.73944000  0.88767000  0.26907000  1
  Sr  Sr2  1  0.75455000  0.38732000  0.76865000  1
  Sr  Sr3  1  0.26057000  0.11234000  0.73093000  1
  H  H4  1  0.57048000  0.39814000  0.92873000  1
  H  H5  1  0.44404000  0.44424000  0.03360000  1
  H  H6  1  0.70210000  0.25221000  0.00572000  1
  H  H7  1  0.81875000  0.21030000  0.89996000  1
  H  H8  1  0.44256000  0.36060000  0.17403000  1
  H  H9  1  0.56891000  0.21532000  0.22476000  1
  H  H10  1  0.83191000  0.04927000  0.15424000  1
  H  H11  1  0.70712000  0.19241000  0.10067000  1
  H  H12  1  0.07202000  0.10248000  0.57092000  1
  H  H13  1  0.94619000  0.05572000  0.46618000  1
  H  H14  1  0.20298000  0.24812000  0.49390000  1
  H  H15  1  0.31796000  0.29049000  0.59964000  1
  H  H16  1  0.94687000  0.13969000  0.32569000  1
  H  H17  1  0.07180000  0.28615000  0.27587000  1
  H  H18  1  0.33269000  0.45119000  0.34672000  1
  H  H19  1  0.20743000  0.30744000  0.39963000  1
  H  H20  1  0.42953000  0.60187000  0.07127000  1
  H  H21  1  0.55598000  0.55577000  0.96641000  1
  H  H22  1  0.29791000  0.74780000  0.99429000  1
  H  H23  1  0.18126000  0.78971000  0.10004000  1
  H  H24  1  0.55745000  0.63941000  0.82597000  1
  H  H25  1  0.43110000  0.78469000  0.77524000  1
  H  H26  1  0.16811000  0.95074000  0.84577000  1
  H  H27  1  0.29289000  0.80760000  0.89933000  1
  H  H28  1  0.92799000  0.89753000  0.42908000  1
  H  H29  1  0.05383000  0.94429000  0.53382000  1
  H  H30  1  0.79703000  0.75189000  0.50610000  1
  H  H31  1  0.68205000  0.70952000  0.40036000  1
  H  H32  1  0.05314000  0.86032000  0.67431000  1
  H  H33  1  0.92821000  0.71386000  0.72414000  1
  H  H34  1  0.66732000  0.54882000  0.65328000  1
  H  H35  1  0.79258000  0.69257000  0.60038000  1
  C  C36  1  0.28434000  0.26141000  0.84588000  1
  C  C37  1  0.21282000  0.29397000  0.90901000  1
  C  C38  1  0.38816000  0.36283000  0.94587000  1
  C  C39  1  0.30691000  0.39435000  0.00395000  1
  C  C40  1  0.06417000  0.35519000  0.02529000  1
  C  C41  1  0.88665000  0.28612000  0.98867000  1
  C  C42  1  0.96495000  0.25677000  0.93013000  1
  C  C43  1  0.06846000  0.28610000  0.13540000  1
  C  C44  1  0.31030000  0.29252000  0.16933000  1
  C  C45  1  0.39125000  0.20895000  0.19503000  1
  C  C46  1  0.22037000  0.11966000  0.18826000  1
  C  C47  1  0.97201000  0.11533000  0.15578000  1
  C  C48  1  0.89185000  0.19832000  0.12865000  1
  C  C49  1  0.30426000  0.03684000  0.22157000  1
  C  C50  1  0.78430000  0.23985000  0.65393000  1
  C  C51  1  0.71311000  0.20676000  0.59080000  1
  C  C52  1  0.88896000  0.13760000  0.55391000  1
  C  C53  1  0.80810000  0.10558000  0.49587000  1
  C  C54  1  0.56445000  0.14429000  0.47461000  1
  C  C55  1  0.38692000  0.21400000  0.51110000  1
  C  C56  1  0.46490000  0.24371000  0.56961000  1
  C  C57  1  0.57053000  0.21367000  0.36457000  1
  C  C58  1  0.81341000  0.20773000  0.33075000  1
  C  C59  1  0.89394000  0.29200000  0.30561000  1
  C  C60  1  0.72236000  0.38123000  0.31275000  1
  C  C61  1  0.47329000  0.38510000  0.34509000  1
  C  C62  1  0.39307000  0.30157000  0.37174000  1
  C  C63  1  0.80419000  0.46432000  0.27957000  1
  C  C64  1  0.71567000  0.73860000  0.15412000  1
  C  C65  1  0.78719000  0.70604000  0.09100000  1
  C  C66  1  0.61185000  0.63718000  0.05414000  1
  C  C67  1  0.69310000  0.60566000  0.99605000  1
  C  C68  1  0.93584000  0.64482000  0.97471000  1
  C  C69  1  0.11336000  0.71389000  0.01133000  1
  C  C70  1  0.03506000  0.74324000  0.06987000  1
  C  C71  1  0.93155000  0.71391000  0.86460000  1
  C  C72  1  0.68972000  0.70749000  0.83067000  1
  C  C73  1  0.60876000  0.79106000  0.80498000  1
  C  C74  1  0.77964000  0.88035000  0.81175000  1
  C  C75  1  0.02800000  0.88468000  0.84422000  1
  C  C76  1  0.10817000  0.80169000  0.87136000  1
  C  C77  1  0.69575000  0.96317000  0.77844000  1
  C  C78  1  0.21571000  0.76016000  0.34608000  1
  C  C79  1  0.28691000  0.79325000  0.40921000  1
  C  C80  1  0.11105000  0.86241000  0.44609000  1
  C  C81  1  0.19192000  0.89443000  0.50413000  1
  C  C82  1  0.43557000  0.85572000  0.52540000  1
  C  C83  1  0.61310000  0.78602000  0.48890000  1
  C  C84  1  0.53511000  0.75630000  0.43039000  1
  C  C85  1  0.42949000  0.78634000  0.63544000  1
  C  C86  1  0.18660000  0.79228000  0.66925000  1
  C  C87  1  0.10608000  0.70801000  0.69439000  1
  C  C88  1  0.27765000  0.61878000  0.68725000  1
  C  C89  1  0.52673000  0.61491000  0.65491000  1
  C  C90  1  0.60695000  0.69844000  0.62826000  1
  C  C91  1  0.19583000  0.53569000  0.72043000  1
  S  S92  1  0.96938000  0.39087000  0.10021000  1
  S  S93  1  0.47038000  0.10870000  0.39967000  1
  S  S94  1  0.03064000  0.60914000  0.89980000  1
  S  S95  1  0.52964000  0.89131000  0.60033000  1
  O  O96  1  0.53883000  0.05107000  0.24874000  1
  O  O97  1  0.14155000  0.95931000  0.22276000  1
  O  O98  1  0.50251000  0.20713000  0.83144000  1
  O  O99  1  0.11370000  0.28770000  0.80795000  1
  O  O100  1  0.11489000  0.48711000  0.12581000  1
  O  O101  1  0.65915000  0.38831000  0.09980000  1
  O  O102  1  0.03615000  0.44993000  0.25127000  1
  O  O103  1  0.64082000  0.54211000  0.27969000  1
  O  O104  1  0.00265000  0.29352000  0.66850000  1
  O  O105  1  0.61230000  0.21417000  0.69189000  1
  O  O106  1  0.61505000  0.01186000  0.37422000  1
  O  O107  1  0.16011000  0.11164000  0.40000000  1
  O  O108  1  0.46119000  0.94894000  0.75127000  1
  O  O109  1  0.85847000  0.04070000  0.77725000  1
  O  O110  1  0.49751000  0.79288000  0.16856000  1
  O  O111  1  0.88631000  0.71231000  0.19205000  1
  O  O112  1  0.88513000  0.51291000  0.87420000  1
  O  O113  1  0.34086000  0.61170000  0.90020000  1
  O  O114  1  0.96387000  0.55008000  0.74873000  1
  O  O115  1  0.35919000  0.45790000  0.72032000  1
  O  O116  1  0.99736000  0.70649000  0.33151000  1
  O  O117  1  0.38771000  0.78584000  0.30812000  1
  O  O118  1  0.38497000  0.98815000  0.62579000  1
  O  O119  1  0.83990000  0.88837000  0.60000000  1
