# generated using pymatgen
data_Cd3H8(C6O7)2
_symmetry_space_group_name_H-M   'P 1'
_cell_length_a   11.23525000
_cell_length_b   11.80545000
_cell_length_c   13.05244000
_cell_angle_alpha   85.27824000
_cell_angle_beta   68.24930000
_cell_angle_gamma   67.35185000
_symmetry_Int_Tables_number   1
_chemical_formula_structural   Cd3H8(C6O7)2
_chemical_formula_sum   'Cd6 H16 C24 O28'
_cell_volume   1480.30083572
_cell_formula_units_Z   2
loop_
 _symmetry_equiv_pos_site_id
 _symmetry_equiv_pos_as_xyz
  1  'x, y, z'
loop_
 _atom_site_type_symbol
 _atom_site_label
 _atom_site_symmetry_multiplicity
 _atom_site_fract_x
 _atom_site_fract_y
 _atom_site_fract_z
 _atom_site_occupancy
  Cd  Cd0  1  0.87582000  0.05294000  0.16278000  1
  Cd  Cd1  1  0.24417000  0.94684000  0.11512000  1
  Cd  Cd2  1  0.60353000  0.85111000  0.02528000  1
  Cd  Cd3  1  0.12417000  0.94704000  0.83722000  1
  Cd  Cd4  1  0.75582000  0.05317000  0.88487000  1
  Cd  Cd5  1  0.39647000  0.14890000  0.97470000  1
  H  H6  1  0.84160000  0.04330000  0.52805000  1
  H  H7  1  0.84538000  0.30820000  0.90397000  1
  H  H8  1  0.38568000  0.51452000  0.11520000  1
  H  H9  1  0.83344000  0.32936000  0.11560000  1
  H  H10  1  0.93169000  0.39536000  0.00775000  1
  H  H11  1  0.28968000  0.07529000  0.28339000  1
  H  H12  1  0.43054000  0.16717000  0.31103000  1
  H  H13  1  0.39465000  0.22892000  0.19277000  1
  H  H14  1  0.15840000  0.95670000  0.47195000  1
  H  H15  1  0.15460000  0.69180000  0.09603000  1
  H  H16  1  0.61433000  0.48548000  0.88479000  1
  H  H17  1  0.16656000  0.67062000  0.88440000  1
  H  H18  1  0.06830000  0.60463000  0.99226000  1
  H  H19  1  0.71032000  0.92470000  0.71661000  1
  H  H20  1  0.56944000  0.83285000  0.68898000  1
  H  H21  1  0.60531000  0.77111000  0.80725000  1
  C  C22  1  0.95172000  0.01259000  0.47750000  1
  C  C23  1  0.05510000  0.22427000  0.06008000  1
  C  C24  1  0.89602000  0.24788000  0.95728000  1
  C  C25  1  0.47800000  0.92544000  0.26838000  1
  C  C26  1  0.44741000  0.66917000  0.04711000  1
  C  C27  1  0.45729000  0.54002000  0.04402000  1
  C  C28  1  0.98954000  0.00086000  0.35582000  1
  C  C29  1  0.60519000  0.11254000  0.16147000  1
  C  C30  1  0.92519000  0.30736000  0.03743000  1
  C  C31  1  0.39670000  0.04385000  0.22268000  1
  C  C32  1  0.45125000  0.14433000  0.22459000  1
  C  C33  1  0.20927000  0.24422000  0.75005000  1
  C  C34  1  0.04828000  0.98741000  0.52250000  1
  C  C35  1  0.94489000  0.77571000  0.93993000  1
  C  C36  1  0.10398000  0.75212000  0.04271000  1
  C  C37  1  0.52205000  0.07458000  0.73159000  1
  C  C38  1  0.55260000  0.33083000  0.95288000  1
  C  C39  1  0.54271000  0.45999000  0.95597000  1
  C  C40  1  0.01046000  0.99915000  0.64418000  1
  C  C41  1  0.39478000  0.88749000  0.83852000  1
  C  C42  1  0.07481000  0.69263000  0.96257000  1
  C  C43  1  0.60329000  0.95617000  0.77731000  1
  C  C44  1  0.54872000  0.85570000  0.77542000  1
  C  C45  1  0.79070000  0.75561000  0.24999000  1
  O  O46  1  0.05440000  0.12110000  0.10173000  1
  O  O47  1  0.67780000  0.02972000  0.08130000  1
  O  O48  1  0.56223000  0.82806000  0.20078000  1
  O  O49  1  0.32850000  0.74340000  0.11137000  1
  O  O50  1  0.45912000  0.93247000  0.36753000  1
  O  O51  1  0.11664000  0.96615000  0.29392000  1
  O  O52  1  0.88573000  0.02790000  0.32566000  1
  O  O53  1  0.15283000  0.25997000  0.03433000  1
  O  O54  1  0.19474000  0.34820000  0.74699000  1
  O  O55  1  0.92224000  0.13593000  0.94969000  1
  O  O56  1  0.39596000  0.02334000  0.11535000  1
  O  O57  1  0.21149000  0.14324000  0.75429000  1
  O  O58  1  0.54984000  0.69572000  0.98631000  1
  O  O59  1  0.65988000  0.17108000  0.19668000  1
  O  O60  1  0.94558000  0.87889000  0.89828000  1
  O  O61  1  0.32215000  0.97033000  0.91869000  1
  O  O62  1  0.43780000  0.17197000  0.79918000  1
  O  O63  1  0.67150000  0.25661000  0.88862000  1
  O  O64  1  0.54100000  0.06756000  0.63243000  1
  O  O65  1  0.88336000  0.03385000  0.70608000  1
  O  O66  1  0.11427000  0.97212000  0.67434000  1
  O  O67  1  0.84717000  0.74000000  0.96567000  1
  O  O68  1  0.80485000  0.65172000  0.25291000  1
  O  O69  1  0.07779000  0.86407000  0.05028000  1
  O  O70  1  0.60401000  0.97668000  0.88465000  1
  O  O71  1  0.78906000  0.85639000  0.24583000  1
  O  O72  1  0.45017000  0.30428000  0.01368000  1
  O  O73  1  0.34011000  0.82892000  0.80333000  1
