# generated using pymatgen
data_LaH5C14(NO4)2
_symmetry_space_group_name_H-M   'P 1'
_cell_length_a   12.22697000
_cell_length_b   12.70017000
_cell_length_c   12.79458000
_cell_angle_alpha   89.89711000
_cell_angle_beta   89.92655000
_cell_angle_gamma   65.69675000
_symmetry_Int_Tables_number   1
_chemical_formula_structural   LaH5C14(NO4)2
_chemical_formula_sum   'La4 H20 C56 N8 O32'
_cell_volume   1810.72750921
_cell_formula_units_Z   4
loop_
 _symmetry_equiv_pos_site_id
 _symmetry_equiv_pos_as_xyz
  1  'x, y, z'
loop_
 _atom_site_type_symbol
 _atom_site_label
 _atom_site_symmetry_multiplicity
 _atom_site_fract_x
 _atom_site_fract_y
 _atom_site_fract_z
 _atom_site_occupancy
  La  La0  1  0.44223000  0.86261000  0.54851000  1
  La  La1  1  0.55838000  0.63638000  0.04803000  1
  La  La2  1  0.55777000  0.13739000  0.45150000  1
  La  La3  1  0.44163000  0.36362000  0.95197000  1
  H  H4  1  0.37901000  0.67669000  0.71425000  1
  H  H5  1  0.79001000  0.57170000  0.84212000  1
  H  H6  1  0.93583000  0.75518000  0.63542000  1
  H  H7  1  0.96568000  0.45140000  0.87333000  1
  H  H8  1  0.09160000  0.67873000  0.70291000  1
  H  H9  1  0.62172000  0.82188000  0.21732000  1
  H  H10  1  0.21037000  0.92840000  0.34237000  1
  H  H11  1  0.06446000  0.74537000  0.13654000  1
  H  H12  1  0.03442000  0.04846000  0.37385000  1
  H  H13  1  0.90872000  0.82166000  0.20353000  1
  H  H14  1  0.62099000  0.32331000  0.28575000  1
  H  H15  1  0.20999000  0.42830000  0.15788000  1
  H  H16  1  0.06417000  0.24482000  0.36458000  1
  H  H17  1  0.03432000  0.54861000  0.12668000  1
  H  H18  1  0.90840000  0.32127000  0.29709000  1
  H  H19  1  0.37828000  0.17812000  0.78268000  1
  H  H20  1  0.78963000  0.07160000  0.65763000  1
  H  H21  1  0.93555000  0.25463000  0.86347000  1
  H  H22  1  0.96558000  0.95155000  0.62615000  1
  H  H23  1  0.09128000  0.17834000  0.79647000  1
  C  C24  1  0.56088000  0.67956000  0.76324000  1
  C  C25  1  0.72065000  0.89177000  0.55179000  1
  C  C26  1  0.19132000  0.31174000  0.95309000  1
  C  C27  1  0.32551000  0.56039000  0.76540000  1
  C  C28  1  0.67371000  0.69040000  0.73016000  1
  C  C29  1  0.78433000  0.63063000  0.77849000  1
  C  C30  1  0.88511000  0.64672000  0.74221000  1
  C  C31  1  0.86505000  0.73254000  0.66593000  1
  C  C32  1  0.75035000  0.79066000  0.62435000  1
  C  C33  1  0.15261000  0.41521000  0.87895000  1
  C  C34  1  0.03432000  0.47907000  0.84628000  1
  C  C35  1  0.00786000  0.57651000  0.78166000  1
  C  C36  1  0.10327000  0.60522000  0.75245000  1
  C  C37  1  0.21802000  0.53642000  0.78763000  1
  C  C38  1  0.44005000  0.81870000  0.26430000  1
  C  C39  1  0.27987000  0.60833000  0.05334000  1
  C  C40  1  0.80865000  0.18846000  0.45287000  1
  C  C41  1  0.67474000  0.93970000  0.26639000  1
  C  C42  1  0.32683000  0.80928000  0.23071000  1
  C  C43  1  0.21610000  0.86949000  0.27889000  1
  C  C44  1  0.11513000  0.85385000  0.24269000  1
  C  C45  1  0.13523000  0.76800000  0.16673000  1
  C  C46  1  0.24986000  0.70970000  0.12519000  1
  C  C47  1  0.84727000  0.08532000  0.37866000  1
  C  C48  1  0.96571000  0.02118000  0.34652000  1
  C  C49  1  0.99226000  0.92398000  0.28192000  1
  C  C50  1  0.89696000  0.89519000  0.25286000  1
  C  C51  1  0.78214000  0.96396000  0.28790000  1
  C  C52  1  0.43912000  0.32045000  0.23676000  1
  C  C53  1  0.27936000  0.10823000  0.44821000  1
  C  C54  1  0.80868000  0.68826000  0.04691000  1
  C  C55  1  0.67449000  0.43962000  0.23460000  1
  C  C56  1  0.32629000  0.30960000  0.26984000  1
  C  C57  1  0.21568000  0.36937000  0.22152000  1
  C  C58  1  0.11489000  0.35328000  0.25779000  1
  C  C59  1  0.13495000  0.26746000  0.33407000  1
  C  C60  1  0.24965000  0.20934000  0.37565000  1
  C  C61  1  0.84739000  0.58479000  0.12105000  1
  C  C62  1  0.96569000  0.52093000  0.15373000  1
  C  C63  1  0.99215000  0.42349000  0.21834000  1
  C  C64  1  0.89673000  0.39479000  0.24755000  1
  C  C65  1  0.78198000  0.46358000  0.21237000  1
  C  C66  1  0.55996000  0.18130000  0.73570000  1
  C  C67  1  0.72013000  0.39167000  0.94666000  1
  C  C68  1  0.19135000  0.81154000  0.54713000  1
  C  C69  1  0.32527000  0.06030000  0.73361000  1
  C  C70  1  0.67318000  0.19072000  0.76929000  1
  C  C71  1  0.78390000  0.13051000  0.72111000  1
  C  C72  1  0.88487000  0.14615000  0.75731000  1
  C  C73  1  0.86478000  0.23200000  0.83327000  1
  C  C74  1  0.75014000  0.29030000  0.87481000  1
  C  C75  1  0.15274000  0.91468000  0.62134000  1
  C  C76  1  0.03430000  0.97882000  0.65349000  1
  C  C77  1  0.00774000  0.07602000  0.71808000  1
  C  C78  1  0.10304000  0.10481000  0.74715000  1
  C  C79  1  0.21787000  0.03604000  0.71211000  1
  N  N80  1  0.65752000  0.76536000  0.65093000  1
  N  N81  1  0.24194000  0.44383000  0.84895000  1
  N  N82  1  0.34292000  0.73464000  0.15151000  1
  N  N83  1  0.75794000  0.05691000  0.34856000  1
  N  N84  1  0.34249000  0.23464000  0.34907000  1
  N  N85  1  0.75806000  0.55617000  0.15105000  1
  N  N86  1  0.65709000  0.26536000  0.84849000  1
  N  N87  1  0.24206000  0.94310000  0.65144000  1
  O  O88  1  0.47784000  0.70948000  0.69303000  1
  O  O89  1  0.55031000  0.64626000  0.85364000  1
  O  O90  1  0.61855000  0.92521000  0.50305000  1
  O  O91  1  0.78880000  0.94240000  0.54559000  1
  O  O92  1  0.29977000  0.28136000  0.98925000  1
  O  O93  1  0.12066000  0.26703000  0.97298000  1
  O  O94  1  0.42802000  0.48734000  0.78842000  1
  O  O95  1  0.30118000  0.66167000  0.72452000  1
  O  O96  1  0.52383000  0.78812000  0.19474000  1
  O  O97  1  0.45013000  0.85141000  0.35490000  1
  O  O98  1  0.38185000  0.57577000  0.00449000  1
  O  O99  1  0.21272000  0.55655000  0.04783000  1
  O  O100  1  0.69905000  0.22096000  0.48682000  1
  O  O101  1  0.88066000  0.23090000  0.47512000  1
  O  O102  1  0.57229000  0.01318000  0.28888000  1
  O  O103  1  0.69912000  0.83772000  0.22715000  1
  O  O104  1  0.52216000  0.29052000  0.30697000  1
  O  O105  1  0.44969000  0.35374000  0.14636000  1
  O  O106  1  0.38145000  0.07479000  0.49695000  1
  O  O107  1  0.21120000  0.05760000  0.45441000  1
  O  O108  1  0.70023000  0.71864000  0.01075000  1
  O  O109  1  0.87934000  0.73297000  0.02702000  1
  O  O110  1  0.57198000  0.51266000  0.21158000  1
  O  O111  1  0.69883000  0.33833000  0.27549000  1
  O  O112  1  0.47618000  0.21188000  0.80526000  1
  O  O113  1  0.54988000  0.14859000  0.64510000  1
  O  O114  1  0.61815000  0.42424000  0.99552000  1
  O  O115  1  0.78728000  0.44345000  0.95217000  1
  O  O116  1  0.30095000  0.77904000  0.51318000  1
  O  O117  1  0.11934000  0.76910000  0.52488000  1
  O  O118  1  0.42771000  0.98682000  0.71112000  1
  O  O119  1  0.30088000  0.16228000  0.77286000  1
