# generated using pymatgen
data_H11C17N
_symmetry_space_group_name_H-M   'P 1'
_cell_length_a   53.16900000
_cell_length_b   53.16900000
_cell_length_c   57.41780000
_cell_angle_alpha   90.00000000
_cell_angle_beta   90.00000000
_cell_angle_gamma   90.00000000
_symmetry_Int_Tables_number   1
_chemical_formula_structural   H11C17N
_chemical_formula_sum   'H264 C408 N24'
_cell_volume   162316.82257899
_cell_formula_units_Z   24
loop_
 _symmetry_equiv_pos_site_id
 _symmetry_equiv_pos_as_xyz
  1  'x, y, z'
loop_
 _atom_site_type_symbol
 _atom_site_label
 _atom_site_symmetry_multiplicity
 _atom_site_fract_x
 _atom_site_fract_y
 _atom_site_fract_z
 _atom_site_occupancy
  H  25  1  0.40150100  0.24879100  0.14500600  1
  H  26  1  0.37225200  0.27300100  0.12301800  1
  H  27  1  0.37571300  0.28312300  0.20684200  1
  H  28  1  0.34686000  0.30749500  0.18507500  1
  H  29  1  0.30627600  0.34925800  0.18438000  1
  H  30  1  0.27957300  0.37696800  0.20521500  1
  H  31  1  0.27042800  0.36989400  0.12147800  1
  H  32  1  0.24396200  0.39793100  0.14243900  1
  H  33  1  0.30414900  0.35747100  0.07274500  1
  H  34  1  0.30441200  0.35716800  0.03153600  1
  H  35  1  0.33984400  0.28607400  0.03213700  1
  H  36  1  0.34060200  0.28687900  0.07342000  1
  H  61  1  0.60876000  0.76177600  0.14497500  1
  H  62  1  0.63800700  0.73755100  0.12299400  1
  H  63  1  0.63449300  0.72741200  0.20681600  1
  H  64  1  0.66334300  0.70302600  0.18505600  1
  H  65  1  0.70394000  0.66126300  0.18436800  1
  H  66  1  0.73063600  0.63354700  0.20520500  1
  H  67  1  0.73977600  0.64061200  0.12146400  1
  H  68  1  0.76623500  0.61256900  0.14242500  1
  H  69  1  0.70599400  0.65300400  0.07273700  1
  H  70  1  0.70573600  0.65331300  0.03152300  1
  H  71  1  0.67045200  0.72448000  0.03212700  1
  H  72  1  0.66970400  0.72368300  0.07341500  1
  H  97  1  0.76160500  0.40163200  0.64495700  1
  H  98  1  0.73738400  0.37238400  0.62297800  1
  H  99  1  0.72728600  0.37585600  0.70680500  1
  H  100  1  0.70290400  0.34700300  0.68504500  1
  H  101  1  0.66109000  0.30645300  0.68434900  1
  H  102  1  0.63337200  0.27975300  0.70518200  1
  H  103  1  0.64043300  0.27062900  0.62144000  1
  H  104  1  0.61239000  0.24416700  0.64239800  1
  H  105  1  0.65279900  0.30448700  0.57272500  1
  H  106  1  0.65311900  0.30473600  0.53150600  1
  H  107  1  0.72436000  0.33987300  0.53211900  1
  H  108  1  0.72356200  0.34061400  0.57341300  1
  H  133  1  0.24860300  0.60890000  0.64500700  1
  H  134  1  0.27282800  0.63814000  0.62301900  1
  H  135  1  0.28297300  0.63464900  0.70684000  1
  H  136  1  0.30735900  0.66349100  0.68507300  1
  H  137  1  0.34909400  0.70410700  0.68438200  1
  H  138  1  0.37680400  0.73081100  0.70521700  1
  H  139  1  0.36973800  0.73994600  0.62147600  1
  H  140  1  0.39777300  0.76641400  0.64243700  1
  H  141  1  0.35732500  0.70621600  0.57274600  1
  H  142  1  0.35702500  0.70595000  0.53153700  1
  H  143  1  0.28592400  0.67053100  0.53213600  1
  H  144  1  0.28672700  0.66977500  0.57342000  1
  H  169  1  0.61301800  0.24358200  0.38723500  1
  H  170  1  0.64121000  0.26994100  0.40814000  1
  H  171  1  0.63373000  0.27933200  0.32445700  1
  H  172  1  0.66158100  0.30592100  0.34523100  1
  H  173  1  0.70221500  0.34760300  0.34450600  1
  H  174  1  0.72670100  0.37633400  0.32269300  1
  H  175  1  0.73672200  0.37307100  0.40653400  1
  H  176  1  0.76102800  0.40219800  0.38450600  1
  H  177  1  0.70576200  0.35823900  0.45651200  1
  H  178  1  0.70564600  0.35824600  0.49777900  1
  H  179  1  0.67236300  0.28612000  0.49771200  1
  H  180  1  0.67148500  0.28655400  0.45647300  1
  H  205  1  0.39722900  0.76693100  0.38718700  1
  H  206  1  0.36903800  0.74057800  0.40810000  1
  H  207  1  0.37651100  0.73116600  0.32441700  1
  H  208  1  0.34866200  0.70458500  0.34519800  1
  H  209  1  0.30797200  0.66296300  0.34447300  1
  H  210  1  0.28348300  0.63423800  0.32265600  1
  H  211  1  0.27344700  0.63751200  0.40649600  1
  H  212  1  0.24913200  0.60839200  0.38446600  1
  H  213  1  0.30429700  0.65238500  0.45649400  1
  H  214  1  0.30443100  0.65236500  0.49775200  1
  H  215  1  0.33799600  0.72436000  0.49768700  1
  H  216  1  0.33888700  0.72391400  0.45645800  1
  H  241  1  0.24344200  0.39738500  0.88718800  1
  H  242  1  0.26979600  0.36919200  0.90810000  1
  H  243  1  0.27920000  0.37666500  0.82441500  1
  H  244  1  0.30578100  0.34881200  0.84519600  1
  H  245  1  0.34739800  0.30812100  0.84446800  1
  H  246  1  0.37611900  0.28363100  0.82264700  1
  H  247  1  0.37287300  0.27360900  0.90648900  1
  H  248  1  0.40199200  0.24929700  0.88445600  1
  H  249  1  0.35798300  0.30444000  0.95649100  1
  H  250  1  0.35800200  0.30457000  0.99774800  1
  H  251  1  0.28601200  0.33815000  0.99768400  1
  H  252  1  0.28646200  0.33904700  0.95645400  1
  H  277  1  0.76678500  0.61315000  0.88720200  1
  H  278  1  0.74043700  0.64134700  0.90811400  1
  H  279  1  0.73101600  0.63386000  0.82443200  1
  H  280  1  0.70443600  0.66171400  0.84521200  1
  H  281  1  0.66280100  0.70239900  0.84449100  1
  H  282  1  0.63406600  0.72688700  0.82268000  1
  H  283  1  0.63735000  0.73691200  0.90652000  1
  H  284  1  0.60822200  0.76122100  0.88449700  1
  H  285  1  0.65220300  0.70600500  0.95650300  1
  H  286  1  0.65218800  0.70587700  0.99776500  1
  H  287  1  0.72424100  0.67243800  0.99769800  1
  H  288  1  0.72380100  0.67155600  0.95646300  1
  H  319  1  0.21414500  0.60816400  0.35308000  1
  H  320  1  0.19062400  0.57959500  0.32948100  1
  H  321  1  0.28070500  0.58699200  0.31802300  1
  H  322  1  0.25727600  0.55861100  0.29443000  1
  H  323  1  0.14204100  0.52651500  0.29605100  1
  H  324  1  0.21304100  0.49967800  0.27521300  1
  H  325  1  0.14728400  0.46530800  0.24970700  1
  H  326  1  0.24641200  0.45277700  0.22942200  1
  H  327  1  0.06578800  0.54539100  0.28174200  1
  H  328  1  0.02102300  0.54262400  0.28217400  1
  H  329  1  0.02514200  0.47012100  0.25238700  1
  H  330  1  0.06987800  0.47287500  0.25189400  1
  H  331  1  0.27249100  0.42420400  0.20848800  1
  H  332  1  0.20879300  0.39648300  0.17279800  1
  H  333  1  0.18265800  0.42516700  0.19371500  1
  H  334  1  0.10540300  0.52840700  0.26215900  1
  H  335  1  0.10818600  0.47657400  0.27709000  1
  H  336  1  0.21365600  0.54980300  0.27832800  1
  H  337  1  0.18561800  0.53314500  0.31859600  1
  H  338  1  0.18375200  0.46778700  0.21597300  1
  H  339  1  0.20990000  0.45384700  0.25819700  1
  H  370  1  0.79602000  0.40240500  0.35312400  1
  H  371  1  0.81955400  0.43095800  0.32951800  1
  H  372  1  0.72947300  0.42358100  0.31804900  1
  H  373  1  0.75291600  0.45194500  0.29444900  1
  H  374  1  0.86815000  0.48401100  0.29606300  1
  H  375  1  0.79714800  0.51084400  0.27522300  1
  H  376  1  0.86290300  0.54519000  0.24968600  1
  H  377  1  0.76377900  0.55773400  0.22940800  1
  H  378  1  0.94440100  0.46512800  0.28173800  1
  H  379  1  0.98916600  0.46789600  0.28217700  1
  H  380  1  0.98504700  0.54039700  0.25238300  1
  H  381  1  0.94031200  0.53764200  0.25188400  1
  H  382  1  0.73770600  0.58631100  0.20847400  1
  H  383  1  0.80141400  0.61402300  0.17278700  1
  H  384  1  0.82754000  0.58533300  0.19370500  1
  H  385  1  0.90479000  0.48210200  0.26215900  1
  H  386  1  0.90200100  0.53394200  0.27707100  1
  H  387  1  0.79655600  0.46070800  0.27834600  1
  H  388  1  0.82454600  0.47742500  0.31862400  1
  H  389  1  0.82643400  0.54271100  0.21595900  1
  H  390  1  0.80029100  0.55666200  0.25818300  1
  H  421  1  0.40223000  0.21431300  0.85308000  1
  H  422  1  0.43081300  0.19079700  0.82948800  1
  H  423  1  0.42336500  0.28086800  0.81800100  1
  H  424  1  0.45175700  0.25744500  0.79441400  1
  H  425  1  0.48388300  0.14221700  0.79604800  1
  H  426  1  0.51070100  0.21322600  0.77520700  1
  H  427  1  0.54506700  0.14747600  0.74967700  1
  H  428  1  0.55756300  0.24660000  0.72938500  1
  H  429  1  0.46499600  0.06598400  0.78172100  1
  H  430  1  0.46776100  0.02121900  0.78217200  1
  H  431  1  0.54025800  0.02532300  0.75237100  1
  H  432  1  0.53750800  0.07005900  0.75186100  1
  H  433  1  0.58613100  0.27268300  0.70844900  1
  H  434  1  0.61385500  0.20898600  0.67275700  1
  H  435  1  0.58517300  0.18284900  0.69367500  1
  H  436  1  0.48197600  0.10559400  0.76213800  1
  H  437  1  0.53381300  0.10836700  0.77705700  1
  H  438  1  0.46058000  0.21381600  0.77832100  1
  H  439  1  0.47725700  0.18580600  0.81859800  1
  H  440  1  0.54255500  0.18394100  0.71594500  1
  H  441  1  0.55652900  0.21008700  0.75816000  1
  H  472  1  0.60800200  0.79621500  0.85309800  1
  H  473  1  0.57942800  0.81973300  0.82950200  1
  H  474  1  0.58682100  0.72965200  0.81805600  1
  H  475  1  0.55843400  0.75307700  0.79446600  1
  H  476  1  0.52636500  0.86832700  0.79605600  1
  H  477  1  0.49953100  0.79733100  0.77520700  1
  H  478  1  0.46518400  0.86308900  0.74968600  1
  H  479  1  0.45262100  0.76396300  0.72941300  1
  H  480  1  0.54525300  0.94459300  0.78173700  1
  H  481  1  0.54248500  0.98935800  0.78216300  1
  H  482  1  0.46997800  0.98523300  0.75238900  1
  H  483  1  0.47273200  0.94049700  0.75190100  1
  H  484  1  0.42403800  0.73789000  0.70848600  1
  H  485  1  0.39632700  0.80159100  0.67279300  1
  H  486  1  0.42502200  0.82772100  0.69370300  1
  H  487  1  0.52827200  0.90498000  0.76216100  1
  H  488  1  0.47643500  0.90218100  0.77707600  1
  H  489  1  0.54964900  0.79670100  0.77835400  1
  H  490  1  0.53297600  0.82475500  0.81860700  1
  H  491  1  0.46765000  0.82661300  0.71595000  1
  H  492  1  0.45370400  0.80048700  0.75818300  1
  H  523  1  0.79652600  0.40222500  0.67644900  1
  H  524  1  0.81980600  0.43098800  0.70004200  1
  H  525  1  0.72973500  0.42313200  0.71125900  1
  H  526  1  0.75292700  0.45171400  0.73484900  1
  H  527  1  0.86813500  0.48405200  0.73348500  1
  H  528  1  0.79712000  0.51081200  0.75436900  1
  H  529  1  0.86286500  0.54514600  0.77994600  1
  H  530  1  0.76381100  0.55791700  0.80034800  1
  H  531  1  0.94439000  0.46512400  0.74782400  1
  H  532  1  0.98915300  0.46788500  0.74738500  1
  H  533  1  0.98504500  0.54039900  0.77714600  1
  H  534  1  0.94031200  0.53765300  0.77764600  1
  H  535  1  0.73791400  0.58665400  0.82128400  1
  H  536  1  0.80183300  0.61418100  0.85676600  1
  H  537  1  0.82777500  0.58532800  0.83585400  1
  H  538  1  0.90478000  0.48209600  0.76736800  1
  H  539  1  0.90196700  0.53395700  0.75254000  1
  H  540  1  0.79646400  0.46072300  0.75109300  1
  H  541  1  0.82464900  0.47740400  0.71092800  1
  H  542  1  0.82651300  0.54273700  0.81365500  1
  H  543  1  0.80022300  0.55658500  0.77148500  1
  H  574  1  0.21370300  0.60831100  0.67648200  1
  H  575  1  0.19040200  0.57955900  0.70007000  1
  H  576  1  0.28047300  0.58737900  0.71131400  1
  H  577  1  0.25726100  0.55880800  0.73489800  1
  H  578  1  0.14205300  0.52647800  0.73350100  1
  H  579  1  0.21307100  0.49970600  0.75436900  1
  H  580  1  0.14732700  0.46535700  0.77993400  1
  H  581  1  0.24638600  0.45260000  0.80032500  1
  H  582  1  0.06579100  0.54538500  0.74781900  1
  H  583  1  0.02102800  0.54261800  0.74738100  1
  H  584  1  0.02514300  0.47010800  0.77714900  1
  H  585  1  0.06987800  0.47286000  0.77764900  1
  H  586  1  0.27229000  0.42386500  0.82125800  1
  H  587  1  0.20838400  0.39634500  0.85676200  1
  H  588  1  0.18243300  0.42519500  0.83585400  1
  H  589  1  0.10540500  0.52841800  0.76737000  1
  H  590  1  0.10822300  0.47655600  0.75254400  1
  H  591  1  0.21373200  0.54978400  0.75112100  1
  H  592  1  0.18553400  0.53315400  0.71094700  1
  H  593  1  0.18369600  0.46779300  0.81364800  1
  H  594  1  0.20995300  0.45390300  0.77147300  1
  H  625  1  0.60817200  0.79667800  0.17647000  1
  H  626  1  0.57941200  0.81997200  0.20005600  1
  H  627  1  0.58722200  0.72989500  0.21126700  1
  H  628  1  0.55864100  0.75310000  0.23484900  1
  H  629  1  0.52633300  0.86831600  0.23349700  1
  H  630  1  0.49956300  0.79729900  0.25436400  1
  H  631  1  0.46523300  0.86304000  0.27994800  1
  H  632  1  0.45244800  0.76398200  0.30032300  1
  H  633  1  0.54524400  0.94458400  0.24782600  1
  H  634  1  0.54247700  0.98934700  0.24739500  1
  H  635  1  0.46996900  0.98522600  0.27716300  1
  H  636  1  0.47272100  0.94049100  0.27765600  1
  H  637  1  0.42371500  0.73807800  0.32125800  1
  H  638  1  0.39619300  0.80198200  0.35676200  1
  H  639  1  0.42504300  0.82793500  0.33585400  1
  H  640  1  0.52828700  0.90497200  0.26736300  1
  H  641  1  0.47641500  0.90214000  0.25256500  1
  H  642  1  0.54964900  0.79662900  0.25109300  1
  H  643  1  0.53298300  0.82483400  0.21093100  1
  H  644  1  0.46764100  0.82666700  0.31365500  1
  H  645  1  0.45377200  0.80041900  0.27147200  1
  H  676  1  0.40210100  0.21388000  0.17648000  1
  H  677  1  0.43086200  0.19059200  0.20007200  1
  H  678  1  0.42298100  0.28065600  0.21132500  1
  H  679  1  0.45156200  0.25745800  0.23491100  1
  H  680  1  0.48391500  0.14224300  0.23351600  1
  H  681  1  0.51067300  0.21325400  0.25441400  1
  H  682  1  0.54500900  0.14750400  0.27997800  1
  H  683  1  0.55777600  0.24655000  0.30039300  1
  H  684  1  0.46499100  0.06598500  0.24784300  1
  H  685  1  0.46775000  0.02122200  0.24739900  1
  H  686  1  0.54026200  0.02532200  0.27716700  1
  H  687  1  0.53751600  0.07005800  0.27767200  1
  H  688  1  0.58652000  0.27244100  0.32132400  1
  H  689  1  0.61404500  0.20852200  0.35680400  1
  H  690  1  0.58518600  0.18258000  0.33589600  1
  H  691  1  0.48195900  0.10559100  0.26739400  1
  H  692  1  0.53382200  0.10840600  0.25256600  1
  H  693  1  0.46059100  0.21392000  0.25113300  1
  H  694  1  0.47726300  0.18573400  0.21096800  1
  H  695  1  0.54258700  0.18385300  0.31369700  1
  H  696  1  0.55645900  0.21013400  0.27152900  1
  C  1  1  0.33938000  0.30817600  0.13857100  1
  C  3  1  0.32265200  0.32269900  0.10235200  1
  C  5  1  0.30734100  0.33982800  0.13813900  1
  C  7  1  0.32235500  0.32220100  0.07751000  1
  C  8  1  0.33289900  0.30190700  0.06488300  1
  C  9  1  0.33257100  0.30150600  0.04035600  1
  C  10  1  0.32204300  0.32152900  0.02729400  1
  C  11  1  0.31168000  0.34189100  0.04000400  1
  C  12  1  0.31164200  0.34213900  0.06451600  1
  C  13  1  0.35643300  0.29293000  0.15163200  1
  C  14  1  0.37261500  0.27534600  0.14069300  1
  C  15  1  0.38981500  0.26085700  0.15369800  1
  C  16  1  0.39170400  0.26356300  0.17815200  1
  C  17  1  0.37534800  0.28085700  0.18914700  1
  C  18  1  0.35807900  0.29516600  0.17618800  1
  C  19  1  0.29124500  0.35656700  0.15064200  1
  C  20  1  0.29323300  0.35926900  0.17513600  1
  C  21  1  0.27754900  0.37585400  0.18752400  1
  C  22  1  0.25903400  0.39032700  0.17597700  1
  C  23  1  0.25683400  0.38755300  0.15154900  1
  C  24  1  0.27269100  0.37110300  0.13913100  1
  C  37  1  0.67084700  0.70235200  0.13855600  1
  C  39  1  0.68756900  0.68782000  0.10234100  1
  C  41  1  0.70287300  0.67068900  0.13812700  1
  C  43  1  0.68786300  0.68831400  0.07750100  1
  C  44  1  0.67736000  0.70863100  0.06487700  1
  C  45  1  0.67769100  0.70903500  0.04035000  1
  C  46  1  0.68817900  0.68898800  0.02729300  1
  C  47  1  0.69850100  0.66860200  0.03999700  1
  C  48  1  0.69852900  0.66835000  0.06450800  1
  C  49  1  0.65379600  0.71760600  0.15161100  1
  C  50  1  0.63762500  0.73519500  0.14066800  1
  C  51  1  0.62042100  0.74968600  0.15366700  1
  C  52  1  0.61852900  0.74698600  0.17812200  1
  C  53  1  0.63487000  0.72968000  0.18912100  1
  C  54  1  0.65214100  0.71536800  0.17616700  1
  C  55  1  0.71896700  0.65395000  0.15063000  1
  C  56  1  0.71698100  0.65124900  0.17512500  1
  C  57  1  0.73266500  0.63466500  0.18751200  1
  C  58  1  0.75117200  0.62018600  0.17596500  1
  C  59  1  0.75337700  0.62296400  0.15153800  1
  C  60  1  0.73751800  0.63940800  0.13911800  1
  C  73  1  0.70220200  0.33952800  0.63854400  1
  C  75  1  0.68765800  0.32282100  0.60232900  1
  C  77  1  0.67052000  0.30751900  0.63811000  1
  C  79  1  0.68815400  0.32252800  0.57749000  1
  C  80  1  0.70850100  0.33298100  0.56487200  1
  C  81  1  0.70890100  0.33266200  0.54034500  1
  C  82  1  0.68883100  0.32221800  0.52729100  1
  C  83  1  0.66841900  0.31194100  0.53998800  1
  C  84  1  0.66816500  0.31190900  0.56449700  1
  C  85  1  0.71746300  0.35657200  0.65159900  1
  C  86  1  0.73504600  0.37274700  0.64065300  1
  C  87  1  0.74954200  0.38994700  0.65365300  1
  C  88  1  0.74683900  0.39183900  0.67810700  1
  C  89  1  0.72954900  0.37548500  0.68910900  1
  C  90  1  0.71523400  0.35821600  0.67615400  1
  C  91  1  0.65377000  0.29143500  0.65060800  1
  C  92  1  0.65106900  0.29341700  0.67510200  1
  C  93  1  0.63448200  0.27773500  0.68748900  1
  C  94  1  0.62000600  0.25922800  0.67593800  1
  C  95  1  0.62277200  0.25703500  0.65150900  1
  C  96  1  0.63922500  0.27288800  0.63909300  1
  C  109  1  0.30802300  0.67099000  0.63857000  1
  C  111  1  0.32254900  0.68771600  0.60235300  1
  C  113  1  0.33967100  0.70303300  0.63814000  1
  C  115  1  0.32205400  0.68801000  0.57751100  1
  C  116  1  0.30176200  0.67746400  0.56488400  1
  C  117  1  0.30135800  0.67779900  0.54035700  1
  C  118  1  0.32138300  0.68832500  0.52729600  1
  C  119  1  0.34174600  0.69868700  0.54000500  1
  C  120  1  0.34199400  0.69871900  0.56451700  1
  C  121  1  0.29277800  0.65393500  0.65163100  1
  C  122  1  0.27518600  0.63776200  0.64069200  1
  C  123  1  0.26069500  0.62056200  0.65369600  1
  C  124  1  0.26339600  0.61867600  0.67815200  1
  C  125  1  0.28070500  0.63501800  0.68914500  1
  C  126  1  0.29501800  0.65228600  0.67618600  1
  C  127  1  0.35640300  0.71913500  0.65064300  1
  C  128  1  0.35910200  0.71715400  0.67513900  1
  C  129  1  0.37568500  0.73284200  0.68752500  1
  C  130  1  0.39015900  0.75135100  0.67597700  1
  C  131  1  0.38738200  0.75355300  0.65155100  1
  C  132  1  0.37094000  0.73768900  0.63913100  1
  C  145  1  0.67105200  0.30704700  0.39146400  1
  C  147  1  0.68791400  0.32273700  0.42722300  1
  C  149  1  0.70173200  0.34001600  0.39099200  1
  C  151  1  0.68858500  0.32242100  0.45206200  1
  C  152  1  0.67878200  0.30187900  0.46486100  1
  C  153  1  0.67917000  0.30169300  0.48937400  1
  C  154  1  0.68902300  0.32217200  0.50226800  1
  C  155  1  0.69883200  0.34269900  0.48940900  1
  C  156  1  0.69878800  0.34275200  0.46488400  1
  C  157  1  0.65445000  0.29079500  0.37896800  1
  C  158  1  0.63995900  0.27221300  0.39049000  1
  C  159  1  0.62340200  0.25643300  0.37810600  1
  C  160  1  0.62047200  0.25873500  0.35369900  1
  C  161  1  0.63494900  0.27723100  0.34213400  1
  C  162  1  0.65162700  0.29284500  0.35448800  1
  C  163  1  0.71675600  0.35725700  0.37793500  1
  C  164  1  0.71452900  0.35885200  0.35338000  1
  C  165  1  0.72891100  0.37604000  0.34039400  1
  C  166  1  0.74627100  0.39234300  0.35136800  1
  C  167  1  0.74890600  0.39055600  0.37583500  1
  C  168  1  0.73434300  0.37344300  0.38886200  1
  C  181  1  0.33918100  0.70347900  0.39143300  1
  C  183  1  0.32230400  0.68780600  0.42719700  1
  C  185  1  0.30846500  0.67054300  0.39096200  1
  C  187  1  0.32163800  0.68812200  0.45203900  1
  C  188  1  0.33153300  0.70861500  0.46484500  1
  C  189  1  0.33113400  0.70880700  0.48935900  1
  C  190  1  0.32119600  0.68837100  0.50226100  1
  C  191  1  0.31130200  0.66789100  0.48939000  1
  C  192  1  0.31134900  0.66783600  0.46486300  1
  C  193  1  0.35579500  0.71971600  0.37893300  1
  C  194  1  0.37029300  0.73829600  0.39045000  1
  C  195  1  0.38685700  0.75406700  0.37806200  1
  C  196  1  0.38977600  0.75176800  0.35365300  1
  C  197  1  0.37529700  0.73327100  0.34209400  1
  C  198  1  0.35861700  0.71766200  0.35445300  1
  C  199  1  0.29342300  0.65331800  0.37790200  1
  C  200  1  0.29565000  0.65172300  0.35334500  1
  C  201  1  0.28126100  0.63454200  0.34035800  1
  C  202  1  0.26389600  0.61824100  0.35132800  1
  C  203  1  0.26124600  0.62004300  0.37579300  1
  C  204  1  0.27582400  0.63714200  0.38882400  1
  C  217  1  0.30689300  0.33933300  0.89143100  1
  C  219  1  0.32256600  0.32245500  0.92719300  1
  C  221  1  0.33982800  0.30861800  0.89095900  1
  C  223  1  0.32224600  0.32178300  0.95203600  1
  C  224  1  0.30175500  0.33167800  0.96484200  1
  C  225  1  0.30156300  0.33128300  0.98935500  1
  C  226  1  0.32199800  0.32134100  0.00225900  1
  C  227  1  0.34247800  0.31144600  0.98938800  1
  C  228  1  0.34253000  0.31148800  0.96486100  1
  C  229  1  0.29065200  0.35594600  0.87893100  1
  C  230  1  0.27207200  0.37044100  0.89045000  1
  C  231  1  0.25629600  0.38700000  0.87806000  1
  C  232  1  0.25859800  0.38992600  0.85365300  1
  C  233  1  0.27709600  0.37545000  0.84209400  1
  C  234  1  0.29270600  0.35876900  0.85445100  1
  C  235  1  0.35705600  0.29358100  0.87789700  1
  C  236  1  0.35864500  0.29580400  0.85333800  1
  C  237  1  0.37582800  0.28141900  0.84034900  1
  C  238  1  0.39213200  0.26405800  0.85132000  1
  C  239  1  0.39034800  0.26142100  0.87578600  1
  C  240  1  0.37324000  0.27598800  0.88881700  1
  C  253  1  0.70333200  0.67119900  0.89144500  1
  C  255  1  0.68765800  0.68807000  0.92720700  1
  C  257  1  0.67038800  0.70190500  0.89097800  1
  C  259  1  0.68797600  0.68873500  0.95205000  1
  C  260  1  0.70848800  0.67888000  0.96485100  1
  C  261  1  0.70867900  0.67927500  0.98936600  1
  C  262  1  0.68822400  0.68917600  0.00226300  1
  C  263  1  0.66772300  0.69903300  0.98939900  1
  C  264  1  0.66766700  0.69898600  0.96487300  1
  C  265  1  0.71957300  0.65458600  0.87894500  1
  C  266  1  0.73815300  0.64009100  0.89046600  1
  C  267  1  0.75392000  0.62352500  0.87807800  1
  C  268  1  0.75162000  0.62060000  0.85366900  1
  C  269  1  0.73312200  0.63507600  0.84211000  1
  C  270  1  0.71751500  0.65176100  0.85446700  1
  C  271  1  0.65315800  0.71694400  0.87792100  1
  C  272  1  0.65156000  0.71472100  0.85336400  1
  C  273  1  0.63437300  0.72910500  0.84038000  1
  C  274  1  0.61807200  0.74646600  0.85135800  1
  C  275  1  0.61987600  0.74911300  0.87582200  1
  C  276  1  0.63698000  0.73453800  0.88884800  1
  C  289  1  0.24981100  0.60046800  0.33797400  1
  C  290  1  0.22356600  0.59747700  0.34110200  1
  C  291  1  0.20967300  0.58065800  0.32715500  1
  C  292  1  0.22165200  0.56603600  0.30979400  1
  C  293  1  0.24790600  0.56881600  0.30682100  1
  C  294  1  0.26172000  0.58569100  0.32067900  1
  C  295  1  0.20852200  0.54993300  0.29502000  1
  C  296  1  0.19070700  0.53357000  0.30192400  1
  C  297  1  0.17926000  0.51641500  0.28702200  1
  C  298  1  0.19379900  0.49907400  0.27405300  1
  C  299  1  0.18233200  0.48055000  0.25994700  1
  C  300  1  0.15577400  0.47919200  0.25928900  1
  C  301  1  0.14076700  0.49622500  0.27213900  1
  C  302  1  0.15274800  0.51460600  0.28610100  1
  C  303  1  0.11479100  0.49334400  0.27242100  1
  C  304  1  0.09848900  0.51167200  0.26662500  1
  C  305  1  0.07237200  0.50922500  0.26718700  1
  C  306  1  0.05749000  0.52934200  0.27555900  1
  C  307  1  0.05986900  0.48757900  0.25869300  1
  C  308  1  0.03343500  0.48594300  0.25901400  1
  C  309  1  0.01851800  0.50602400  0.26746800  1
  C  310  1  0.03105300  0.52777300  0.27568300  1
  C  311  1  0.19728600  0.46298600  0.24857400  1
  C  312  1  0.19636600  0.45853900  0.22551700  1
  C  313  1  0.21185300  0.44145600  0.21399300  1
  C  314  1  0.23814000  0.44074900  0.21780400  1
  C  315  1  0.20156800  0.42508200  0.19708200  1
  C  316  1  0.21701900  0.40828100  0.18463100  1
  C  317  1  0.24328300  0.40730500  0.18861600  1
  C  318  1  0.25353100  0.42384600  0.20545000  1
  C  340  1  0.76036000  0.41011300  0.33801400  1
  C  341  1  0.78660100  0.41311300  0.34116100  1
  C  342  1  0.80050400  0.42990200  0.32719500  1
  C  343  1  0.78853200  0.44451400  0.30982000  1
  C  344  1  0.76228000  0.44174400  0.30684700  1
  C  345  1  0.74845600  0.42488500  0.32071100  1
  C  346  1  0.80167500  0.46060100  0.29504100  1
  C  347  1  0.81948100  0.47696900  0.30194500  1
  C  348  1  0.83093300  0.49411800  0.28704000  1
  C  349  1  0.81639100  0.51144600  0.27405800  1
  C  350  1  0.82785600  0.52995300  0.25993300  1
  C  351  1  0.85441500  0.53130600  0.25927200  1
  C  352  1  0.86942300  0.51427900  0.27212600  1
  C  353  1  0.85744300  0.49592000  0.28611200  1
  C  354  1  0.89539700  0.51717100  0.27240700  1
  C  355  1  0.91170200  0.49884300  0.26661100  1
  C  356  1  0.93781800  0.50129200  0.26718000  1
  C  357  1  0.95269900  0.48117500  0.27555600  1
  C  358  1  0.95032200  0.52293800  0.25868600  1
  C  359  1  0.97675500  0.52457200  0.25900500  1
  C  360  1  0.99167100  0.50449500  0.26746600  1
  C  361  1  0.97913600  0.48274700  0.27568600  1
  C  362  1  0.81290200  0.54752000  0.24856100  1
  C  363  1  0.81382300  0.55196000  0.22550300  1
  C  364  1  0.79834100  0.56904700  0.21397700  1
  C  365  1  0.77205300  0.56975500  0.21778400  1
  C  366  1  0.80862900  0.58541800  0.19706800  1
  C  367  1  0.79318200  0.60222500  0.18462000  1
  C  368  1  0.76692000  0.60320500  0.18860200  1
  C  369  1  0.75666400  0.58666100  0.20543100  1
  C  391  1  0.40990600  0.24997400  0.83796000  1
  C  392  1  0.41291300  0.22373400  0.84110200  1
  C  393  1  0.42972400  0.20984200  0.82714400  1
  C  394  1  0.44434700  0.22182300  0.80978500  1
  C  395  1  0.44155600  0.24807300  0.80680700  1
  C  396  1  0.42467600  0.26188600  0.82066200  1
  C  397  1  0.46046000  0.20869700  0.79501700  1
  C  398  1  0.47681900  0.19088000  0.80192200  1
  C  399  1  0.49398300  0.17943800  0.78702400  1
  C  400  1  0.51130500  0.19398300  0.77404000  1
  C  401  1  0.52982500  0.18252000  0.75993000  1
  C  402  1  0.53118700  0.15596200  0.75926800  1
  C  403  1  0.51416200  0.14095100  0.77212100  1
  C  404  1  0.49578100  0.15292700  0.78608900  1
  C  405  1  0.51704300  0.11497500  0.77239500  1
  C  406  1  0.49871300  0.09867700  0.76659000  1
  C  407  1  0.50115600  0.07256000  0.76715100  1
  C  408  1  0.48104100  0.05768300  0.77553800  1
  C  409  1  0.52280400  0.06005300  0.75866500  1
  C  410  1  0.52442900  0.03361900  0.75897900  1
  C  411  1  0.50435600  0.01870600  0.76745200  1
  C  412  1  0.48261400  0.03124600  0.77567900  1
  C  413  1  0.54737300  0.19748100  0.74854100  1
  C  414  1  0.55180600  0.19655600  0.72548200  1
  C  415  1  0.56888000  0.21204400  0.71394800  1
  C  416  1  0.56959100  0.23833000  0.71776900  1
  C  417  1  0.58525600  0.20176000  0.69704000  1
  C  418  1  0.60205500  0.21721300  0.68459100  1
  C  419  1  0.60303000  0.24347400  0.68857400  1
  C  420  1  0.58649000  0.25372300  0.70541000  1
  C  442  1  0.60029100  0.76054600  0.83800700  1
  C  443  1  0.59728800  0.78678900  0.84114500  1
  C  444  1  0.58048300  0.80068200  0.82718600  1
  C  445  1  0.56585600  0.78870200  0.80982900  1
  C  446  1  0.56863700  0.76244900  0.80686000  1
  C  447  1  0.58551400  0.74863700  0.82071400  1
  C  448  1  0.54976400  0.80183100  0.79504600  1
  C  449  1  0.53341000  0.81965900  0.80193600  1
  C  450  1  0.51626900  0.83111000  0.78702100  1
  C  451  1  0.49893300  0.81657300  0.77404400  1
  C  452  1  0.48042400  0.82804000  0.75992100  1
  C  453  1  0.47907200  0.85459900  0.75926500  1
  C  454  1  0.49609900  0.86960800  0.77211900  1
  C  455  1  0.51446500  0.85762100  0.78609600  1
  C  456  1  0.49320800  0.89558100  0.77241400  1
  C  457  1  0.51153600  0.91188800  0.76662600  1
  C  458  1  0.50908600  0.93800500  0.76718900  1
  C  459  1  0.52920500  0.95288900  0.77555600  1
  C  460  1  0.48743600  0.95050600  0.75869900  1
  C  461  1  0.48580000  0.97694100  0.75901500  1
  C  462  1  0.50588300  0.99185900  0.76746200  1
  C  463  1  0.52763400  0.97932600  0.77567800  1
  C  464  1  0.46285400  0.81308600  0.74855400  1
  C  465  1  0.45839800  0.81400800  0.72549800  1
  C  466  1  0.44130600  0.79852500  0.71398200  1
  C  467  1  0.44059100  0.77223700  0.71779700  1
  C  468  1  0.42493200  0.80880900  0.69707300  1
  C  469  1  0.40812500  0.79336200  0.68462700  1
  C  470  1  0.40714100  0.76710100  0.68861400  1
  C  471  1  0.42368300  0.75684800  0.70544700  1
  C  493  1  0.76076800  0.40977200  0.69142700  1
  C  494  1  0.78699900  0.41292300  0.68834600  1
  C  495  1  0.80075600  0.42983900  0.70231000  1
  C  496  1  0.78864100  0.44444100  0.71960800  1
  C  497  1  0.76239300  0.44153100  0.72250100  1
  C  498  1  0.74872000  0.42454200  0.70864400  1
  C  499  1  0.80165100  0.46061200  0.73441500  1
  C  500  1  0.81948300  0.47699000  0.72757900  1
  C  501  1  0.83091000  0.49412000  0.74252400  1
  C  502  1  0.81636100  0.51140900  0.75554800  1
  C  503  1  0.82781800  0.52990200  0.76969700  1
  C  504  1  0.85437900  0.53127000  0.77034800  1
  C  505  1  0.86939500  0.51427900  0.75746200  1
  C  506  1  0.85742000  0.49593300  0.74345800  1
  C  507  1  0.89537300  0.51717700  0.75718200  1
  C  508  1  0.91168700  0.49884300  0.76294100  1
  C  509  1  0.93780700  0.50129400  0.76236800  1
  C  510  1  0.95268800  0.48117300  0.75400100  1
  C  511  1  0.95031600  0.52294200  0.77085500  1
  C  512  1  0.97675300  0.52457200  0.77053100  1
  C  513  1  0.99166900  0.50448900  0.76208100  1
  C  514  1  0.97912600  0.48274000  0.75387100  1
  C  515  1  0.81286200  0.54746000  0.78109100  1
  C  516  1  0.81385900  0.55196000  0.80413600  1
  C  517  1  0.79845900  0.56911300  0.81567900  1
  C  518  1  0.77216400  0.56992600  0.81193100  1
  C  519  1  0.80885600  0.58547800  0.83253800  1
  C  520  1  0.79351500  0.60237500  0.84499200  1
  C  521  1  0.76724700  0.60347300  0.84106100  1
  C  522  1  0.75688200  0.58692600  0.82429100  1
  C  544  1  0.24945300  0.60076100  0.69147900  1
  C  545  1  0.22321600  0.59763500  0.68840700  1
  C  546  1  0.20945100  0.58071600  0.70235700  1
  C  547  1  0.22155400  0.56609600  0.71964800  1
  C  548  1  0.24780200  0.56899700  0.72255100  1
  C  549  1  0.26148900  0.58598400  0.70870000  1
  C  550  1  0.20853500  0.54992200  0.73444800  1
  C  551  1  0.19070100  0.53355100  0.72760000  1
  C  552  1  0.17927900  0.51640200  0.74253100  1
  C  553  1  0.19382900  0.49909900  0.75553600  1
  C  554  1  0.18237200  0.48059900  0.76967900  1
  C  555  1  0.15581200  0.47924100  0.77034600  1
  C  556  1  0.14079400  0.49623600  0.75746500  1
  C  557  1  0.15276800  0.51459300  0.74347000  1
  C  558  1  0.11481600  0.49333800  0.75718300  1
  C  559  1  0.09849800  0.51167200  0.76293400  1
  C  560  1  0.07237800  0.50921700  0.76237200  1
  C  561  1  0.05749500  0.52933400  0.75399400  1
  C  562  1  0.05987200  0.48756600  0.77084800  1
  C  563  1  0.03343700  0.48593100  0.77052400  1
  C  564  1  0.01851700  0.50601400  0.76207700  1
  C  565  1  0.03105700  0.52776000  0.75386000  1
  C  566  1  0.19732900  0.46305100  0.78108000  1
  C  567  1  0.19634000  0.45855800  0.80412900  1
  C  568  1  0.21174500  0.44141100  0.81567400  1
  C  569  1  0.23803700  0.44059500  0.81191400  1
  C  570  1  0.20135200  0.42504300  0.83253100  1
  C  571  1  0.21669800  0.40814400  0.84497800  1
  C  572  1  0.24296300  0.40704700  0.84104400  1
  C  573  1  0.25332200  0.42359100  0.82426500  1
  C  595  1  0.60060300  0.76092200  0.19144200  1
  C  596  1  0.59746400  0.78715600  0.18836000  1
  C  597  1  0.58054500  0.80091700  0.20231700  1
  C  598  1  0.56592500  0.78881100  0.21960600  1
  C  599  1  0.56882900  0.76256000  0.22250400  1
  C  600  1  0.58582000  0.74888000  0.20865500  1
  C  601  1  0.54976700  0.80183000  0.23441900  1
  C  602  1  0.53339300  0.81966300  0.22758300  1
  C  603  1  0.51626300  0.83109100  0.24252900  1
  C  604  1  0.49896100  0.81654100  0.25553600  1
  C  605  1  0.48047300  0.82799500  0.26969300  1
  C  606  1  0.47911500  0.85455600  0.27035900  1
  C  607  1  0.49611200  0.86957600  0.25747900  1
  C  608  1  0.51445500  0.85760100  0.24347300  1
  C  609  1  0.49320300  0.89555100  0.25719500  1
  C  610  1  0.51153300  0.91187500  0.26294300  1
  C  611  1  0.50907500  0.93799300  0.26237000  1
  C  612  1  0.52919300  0.95288000  0.25400100  1
  C  613  1  0.48742700  0.95049900  0.27085700  1
  C  614  1  0.48579200  0.97693300  0.27053600  1
  C  615  1  0.50587500  0.99185600  0.26209500  1
  C  616  1  0.52762500  0.97931800  0.25388100  1
  C  617  1  0.46291400  0.81303900  0.28108400  1
  C  618  1  0.45841000  0.81402800  0.30413000  1
  C  619  1  0.44125100  0.79862500  0.31566300  1
  C  620  1  0.44043700  0.77233100  0.31190700  1
  C  621  1  0.42488600  0.80901600  0.33252800  1
  C  622  1  0.40798900  0.79366900  0.34497700  1
  C  623  1  0.40689500  0.76740300  0.34104200  1
  C  624  1  0.42343600  0.75704600  0.32426200  1
  C  646  1  0.40962900  0.24963000  0.19147900  1
  C  647  1  0.41277600  0.22339700  0.18840000  1
  C  648  1  0.42970500  0.20964100  0.20235000  1
  C  649  1  0.44430400  0.22174900  0.21965300  1
  C  650  1  0.44138300  0.24799400  0.22256000  1
  C  651  1  0.42439400  0.26167300  0.20870500  1
  C  652  1  0.46048200  0.20873800  0.23445500  1
  C  653  1  0.47684700  0.19089700  0.22762100  1
  C  654  1  0.49398100  0.17946600  0.24256200  1
  C  655  1  0.51127500  0.19401100  0.25558300  1
  C  656  1  0.52976500  0.18255100  0.26973500  1
  C  657  1  0.53113800  0.15599200  0.27037400  1
  C  658  1  0.51414300  0.14097700  0.25749200  1
  C  659  1  0.49578700  0.15295500  0.24349900  1
  C  660  1  0.51704000  0.11500000  0.25720600  1
  C  661  1  0.49870800  0.09868400  0.26296500  1
  C  662  1  0.50116000  0.07256500  0.26239200  1
  C  663  1  0.48103800  0.05768500  0.25402200  1
  C  664  1  0.52280200  0.06005300  0.27088300  1
  C  665  1  0.52442900  0.03361800  0.27056600  1
  C  666  1  0.50435000  0.01870300  0.26210300  1
  C  667  1  0.48260400  0.03124700  0.25389000  1
  C  668  1  0.54731500  0.19750800  0.28113400  1
  C  669  1  0.55181600  0.19650300  0.30418100  1
  C  670  1  0.56897000  0.21190000  0.31572600  1
  C  671  1  0.56979000  0.23819300  0.31197100  1
  C  672  1  0.58534300  0.20149900  0.33257600  1
  C  673  1  0.60224700  0.21683900  0.34502400  1
  C  674  1  0.60334700  0.24310600  0.34109300  1
  C  675  1  0.58680600  0.25347100  0.32431600  1
  N  2  1  0.33844900  0.30772600  0.11487800  1
  N  4  1  0.30738400  0.33855200  0.11448000  1
  N  6  1  0.32361700  0.32445400  0.14953300  1
  N  38  1  0.67177600  0.70279800  0.11486400  1
  N  40  1  0.70283200  0.67196100  0.11446900  1
  N  42  1  0.68660500  0.68607000  0.14952000  1
  N  74  1  0.70264800  0.33860100  0.61485100  1
  N  76  1  0.67179000  0.30756600  0.61445200  1
  N  78  1  0.68590900  0.32377900  0.64950600  1
  N  110  1  0.30757800  0.67191900  0.61487900  1
  N  112  1  0.33840000  0.70298800  0.61448000  1
  N  114  1  0.32429800  0.68675700  0.64953400  1
  N  146  1  0.67252500  0.30696800  0.41512000  1
  N  148  1  0.70224000  0.33909400  0.41467500  1
  N  150  1  0.68588200  0.32381100  0.38005300  1
  N  182  1  0.33770800  0.70355800  0.41509100  1
  N  184  1  0.30796100  0.67146600  0.41464700  1
  N  186  1  0.32433000  0.68673200  0.38002300  1
  N  218  1  0.30681200  0.33785800  0.91508900  1
  N  220  1  0.33890600  0.30811200  0.91464100  1
  N  222  1  0.32364000  0.32448400  0.88002000  1
  N  254  1  0.70341500  0.67267200  0.91510100  1
  N  256  1  0.67131200  0.70240900  0.91466100  1
  N  258  1  0.68658000  0.68604400  0.88003500  1
