# generated using pymatgen
data_H2C5(NO)3
_symmetry_space_group_name_H-M   'P 1'
_cell_length_a   10.01786667
_cell_length_b   33.25080000
_cell_length_c   33.39471277
_cell_angle_alpha   119.42037536
_cell_angle_beta   90.00000000
_cell_angle_gamma   90.00000000
_symmetry_Int_Tables_number   1
_chemical_formula_structural   H2C5(NO)3
_chemical_formula_sum   'H24 C60 N36 O36'
_cell_volume   9689.30774128
_cell_formula_units_Z   12
loop_
 _symmetry_equiv_pos_site_id
 _symmetry_equiv_pos_as_xyz
  1  'x, y, z'
loop_
 _atom_site_type_symbol
 _atom_site_label
 _atom_site_symmetry_multiplicity
 _atom_site_fract_x
 _atom_site_fract_y
 _atom_site_fract_z
 _atom_site_occupancy
  C  2  1  0.96949800  0.02282900  0.04064700  1
  C  16  1  0.96476100  0.94770100  0.97564200  1
  C  17  1  0.96768200  0.01349100  0.96549700  1
  C  24  1  0.04745100  0.20680600  0.38078600  1
  C  26  1  0.98472700  0.26908800  0.45334400  1
  C  28  1  0.00584500  0.19335100  0.44319300  1
  C  36  1  0.04809900  0.60540300  0.81076700  1
  C  38  1  0.98963300  0.53149600  0.79970000  1
  C  40  1  0.00956300  0.54353400  0.73536200  1
  C  48  1  0.05037500  0.17137500  0.78020600  1
  C  50  1  0.98568400  0.18244300  0.71798400  1
  C  52  1  0.00764200  0.24703800  0.79312000  1
  C  60  1  0.07781500  0.12435400  0.25819100  1
  C  61  1  0.17214700  0.10342500  0.22209500  1
  C  62  1  0.12563200  0.07723800  0.17638300  1
  C  63  1  0.98783200  0.07025200  0.16622400  1
  C  64  1  0.89340500  0.09058100  0.20231700  1
  C  66  1  0.93991600  0.11786400  0.24785300  1
  C  74  1  0.94837600  0.04160100  0.12005300  1
  C  75  1  0.11700700  0.14834600  0.30493500  1
  C  77  1  0.07016600  0.72978500  0.85388900  1
  C  78  1  0.16334400  0.76650000  0.87011700  1
  C  79  1  0.11538800  0.81241500  0.89191800  1
  C  80  1  0.97719100  0.82225600  0.89637300  1
  C  81  1  0.88391500  0.78555900  0.87953100  1
  C  83  1  0.93194600  0.73973700  0.85902500  1
  C  91  1  0.93608400  0.86874800  0.91550700  1
  C  92  1  0.11064800  0.68300600  0.82940200  1
  C  95  1  0.08021700  0.13052700  0.86313900  1
  C  96  1  0.17377500  0.11483800  0.88420300  1
  C  97  1  0.12622100  0.09511100  0.91056700  1
  C  98  1  0.98821000  0.09226000  0.91757600  1
  C  99  1  0.89456700  0.10857300  0.89714300  1
  C  101  1  0.94209100  0.12704500  0.86970100  1
  C  109  1  0.94781200  0.07446200  0.94634900  1
  C  110  1  0.12060100  0.15331100  0.83880300  1
  C  113  1  0.93973100  0.46693900  0.61149900  1
  C  114  1  0.83074000  0.44820700  0.58050000  1
  C  115  1  0.85460800  0.41289700  0.53487300  1
  C  116  1  0.98425700  0.39559700  0.51947300  1
  C  117  1  0.09431200  0.41606100  0.54937800  1
  C  119  1  0.07055400  0.45186700  0.59482500  1
  C  127  1  0.99638000  0.35159600  0.47961800  1
  C  128  1  0.91910800  0.49334300  0.65988200  1
  C  131  1  0.93894800  0.37166900  0.83944900  1
  C  132  1  0.83038300  0.40298600  0.85133800  1
  C  133  1  0.85507800  0.44893100  0.86156600  1
  C  134  1  0.98519500  0.46433700  0.85998100  1
  C  135  1  0.09479200  0.43412600  0.85088700  1
  C  137  1  0.07016600  0.38836800  0.84137400  1
  C  145  1  0.99834300  0.50445000  0.85557700  1
  C  146  1  0.91785600  0.32308600  0.81774500  1
  C  149  1  0.93722100  0.14574600  0.52089500  1
  C  150  1  0.82841600  0.13320000  0.53977800  1
  C  151  1  0.85270300  0.12206100  0.57490700  1
  C  152  1  0.98251600  0.12359000  0.59203400  1
  C  153  1  0.09230500  0.13335000  0.57141200  1
  C  155  1  0.06821400  0.14361500  0.53564400  1
  C  163  1  0.99496300  0.12714200  0.63598100  1
  C  164  1  0.91641700  0.16814600  0.49438600  1
  H  19  1  0.02719800  0.08127900  0.09604400  1
  H  21  1  0.02270000  0.01077000  0.90664400  1
  H  23  1  0.02020000  0.89089200  0.97759600  1
  H  31  1  0.90739300  0.32006900  0.51076300  1
  H  33  1  0.06295300  0.13781100  0.44751900  1
  H  35  1  0.01785300  0.20715000  0.32183000  1
  H  43  1  0.91504600  0.47290900  0.79265100  1
  H  45  1  0.06650200  0.54025500  0.67624300  1
  H  47  1  0.01883500  0.66324700  0.87040300  1
  H  55  1  0.90724100  0.18959500  0.66711700  1
  H  57  1  0.06473500  0.30618500  0.84813100  1
  H  59  1  0.02164100  0.11204300  0.78035600  1
  H  65  1  0.19423400  0.06197700  0.15038500  1
  H  67  1  0.87111400  0.13183200  0.27390200  1
  H  82  1  0.18312000  0.83887700  0.90323600  1
  H  84  1  0.86395600  0.71329100  0.84628100  1
  H  100  1  0.19422800  0.08399000  0.92593600  1
  H  102  1  0.87391000  0.13946100  0.85557800  1
  H  118  1  0.77448700  0.39746200  0.51369400  1
  H  120  1  0.14975200  0.46357900  0.61708000  1
  H  136  1  0.77533100  0.47034900  0.86700400  1
  H  138  1  0.14914900  0.36592300  0.83101000  1
  H  154  1  0.77270500  0.11624200  0.59053200  1
  H  156  1  0.14731300  0.15442700  0.52391100  1
  N  1  1  0.96906500  0.97612800  0.02184500  1
  N  3  1  0.97180000  0.04082100  0.01191400  1
  N  10  1  0.98512100  0.05142800  0.08662000  1
  N  18  1  0.96732700  0.96703400  0.94803200  1
  N  20  1  0.98228000  0.03104600  0.93656100  1
  N  22  1  0.97658600  0.90129300  0.95811800  1
  N  25  1  0.01689400  0.25217900  0.40835900  1
  N  27  1  0.97860200  0.23899500  0.46975200  1
  N  29  1  0.04104100  0.17794100  0.39879800  1
  N  30  1  0.95432900  0.31418500  0.48268300  1
  N  32  1  0.00142200  0.16391300  0.46066600  1
  N  34  1  0.06293300  0.19005300  0.33475300  1
  N  37  1  0.01935100  0.57672700  0.82785100  1
  N  39  1  0.98399300  0.51591100  0.75377700  1
  N  41  1  0.04238600  0.58819900  0.76442900  1
  N  42  1  0.96009500  0.50130100  0.81493800  1
  N  44  1  0.00492200  0.52676000  0.68900500  1
  N  46  1  0.06090600  0.65152600  0.84029800  1
  N  49  1  0.01887700  0.15415700  0.73505600  1
  N  51  1  0.97954000  0.22854000  0.74769700  1
  N  53  1  0.04380700  0.21786500  0.80869300  1
  N  54  1  0.95425000  0.16727100  0.67310700  1
  N  56  1  0.00307500  0.29355700  0.82217500  1
  N  58  1  0.06665100  0.14185900  0.79715300  1
  N  68  1  0.75503200  0.08409200  0.19230500  1
  N  69  1  0.31048100  0.10964900  0.23217000  1
  N  85  1  0.74520900  0.79521800  0.88418200  1
  N  86  1  0.30196100  0.75676900  0.86495200  1
  N  103  1  0.75601000  0.10538000  0.90371600  1
  N  104  1  0.31231700  0.11839500  0.87795200  1
  N  121  1  0.22433300  0.39782900  0.53487800  1
  N  122  1  0.69896700  0.46379600  0.59575700  1
  N  139  1  0.22522400  0.44870400  0.84744100  1
  N  140  1  0.69820700  0.38773800  0.85140300  1
  N  157  1  0.22248800  0.13675600  0.58947300  1
  N  158  1  0.69644100  0.13334500  0.52447800  1
  O  13  1  0.87359500  0.00402800  0.11058500  1
  O  70  1  0.69683600  0.12180900  0.20429200  1
  O  71  1  0.36624100  0.12963800  0.21303100  1
  O  72  1  0.36825800  0.07173600  0.21952800  1
  O  73  1  0.69962600  0.06462700  0.21202600  1
  O  76  1  0.19111900  0.12449400  0.32014900  1
  O  87  1  0.68972300  0.78063900  0.90835000  1
  O  88  1  0.35984200  0.77395400  0.90323600  1
  O  89  1  0.35660900  0.77199200  0.84120000  1
  O  90  1  0.68815600  0.77740700  0.84572300  1
  O  93  1  0.18071800  0.66979500  0.79021300  1
  O  94  1  0.86033300  0.87980600  0.88872400  1
  O  105  1  0.69751400  0.08032600  0.86623400  1
  O  106  1  0.36720400  0.07938100  0.85832700  1
  O  107  1  0.37023500  0.14302700  0.91565200  1
  O  108  1  0.70160300  0.14448100  0.92285400  1
  O  111  1  0.19416800  0.19217600  0.86242100  1
  O  112  1  0.87554100  0.10259500  0.98417100  1
  O  123  1  0.27074500  0.38116700  0.55857700  1
  O  124  1  0.64708900  0.48114300  0.57345700  1
  O  125  1  0.62492500  0.43172200  0.59235400  1
  O  126  1  0.30355400  0.42811400  0.53697900  1
  O  129  1  0.82151200  0.47829500  0.67743200  1
  O  130  1  0.08474000  0.34688500  0.44691800  1
  O  141  1  0.27223900  0.42518800  0.80761500  1
  O  142  1  0.64570600  0.40984500  0.89051200  1
  O  143  1  0.62511800  0.39162700  0.82287700  1
  O  144  1  0.30360400  0.44616100  0.87549900  1
  O  147  1  0.82018200  0.30577300  0.78552900  1
  O  148  1  0.08422600  0.53763900  0.88407900  1
  O  159  1  0.26894600  0.17690000  0.60587000  1
  O  160  1  0.64418500  0.09397100  0.50734300  1
  O  161  1  0.62292700  0.16155500  0.55652500  1
  O  162  1  0.30152200  0.10901200  0.55931100  1
  O  165  1  0.81867300  0.20048700  0.50903200  1
  O  166  1  0.08346200  0.09888600  0.64054700  1
