# generated using pymatgen
data_Cr3H15C36N3O19
_symmetry_space_group_name_H-M   'P 1'
_cell_length_a   10.97841000
_cell_length_b   11.23250000
_cell_length_c   18.82319000
_cell_angle_alpha   90.17651000
_cell_angle_beta   90.69384000
_cell_angle_gamma   61.14057000
_symmetry_Int_Tables_number   1
_chemical_formula_structural   Cr3H15C36N3O19
_chemical_formula_sum   'Cr6 H30 C72 N6 O38'
_cell_volume   2032.74667896
_cell_formula_units_Z   2
loop_
 _symmetry_equiv_pos_site_id
 _symmetry_equiv_pos_as_xyz
  1  'x, y, z'
loop_
 _atom_site_type_symbol
 _atom_site_label
 _atom_site_symmetry_multiplicity
 _atom_site_fract_x
 _atom_site_fract_y
 _atom_site_fract_z
 _atom_site_occupancy
  Cr  Cr0  1  0.54132000  0.23145000  0.25066000  1
  Cr  Cr1  1  0.22723000  0.54132000  0.25066000  1
  Cr  Cr2  1  0.23145000  0.22723000  0.25066000  1
  Cr  Cr3  1  0.76855000  0.45868000  0.74934000  1
  Cr  Cr4  1  0.45868000  0.77277000  0.74934000  1
  Cr  Cr5  1  0.77277000  0.76855000  0.74934000  1
  H  H6  1  0.92572000  0.35373000  0.07321000  1
  H  H7  1  0.71750000  0.92283000  0.07728000  1
  H  H8  1  0.36016000  0.71215000  0.07459000  1
  H  H9  1  0.74149000  0.88784000  0.95129000  1
  H  H10  1  0.89227000  0.36693000  0.94727000  1
  H  H11  1  0.37203000  0.73599000  0.94908000  1
  H  H12  1  0.08158000  0.65823000  0.86801000  1
  H  H13  1  0.26505000  0.08337000  0.86101000  1
  H  H14  1  0.63988000  0.27123000  0.86270000  1
  H  H15  1  0.24216000  0.01931000  0.11887000  1
  H  H16  1  0.99985000  0.73847000  0.12523000  1
  H  H17  1  0.73459000  0.25113000  0.12044000  1
  H  H18  1  0.11801000  0.83101000  0.92766000  1
  H  H19  1  0.04757000  0.12784000  0.91555000  1
  H  H20  1  0.80810000  0.06003000  0.91900000  1
  H  H21  1  0.03750000  0.09820000  0.04497000  1
  H  H22  1  0.08027000  0.86766000  0.05687000  1
  H  H23  1  0.85056000  0.05070000  0.04852000  1
  H  H24  1  0.15831000  0.27587000  0.66249000  1
  H  H25  1  0.64741000  0.11620000  0.65110000  1
  H  H26  1  0.20972000  0.67157000  0.64451000  1
  H  H27  1  0.73777000  0.08981000  0.39599000  1
  H  H28  1  0.12139000  0.17940000  0.41055000  1
  H  H29  1  0.21121000  0.75746000  0.38817000  1
  H  H30  1  0.15761000  0.06928000  0.62811000  1
  H  H31  1  0.83693000  0.14385000  0.60512000  1
  H  H32  1  0.02900000  0.87588000  0.58801000  1
  H  H33  1  0.87897000  0.12878000  0.47656000  1
  H  H34  1  0.13624000  0.02472000  0.50017000  1
  H  H35  1  0.02695000  0.90408000  0.45755000  1
  C  C36  1  0.45871000  0.47913000  0.14752000  1
  C  C37  1  0.05998000  0.45846000  0.14802000  1
  C  C38  1  0.47916000  0.06073000  0.14756000  1
  C  C39  1  0.52065000  0.54683000  0.85390000  1
  C  C40  1  0.54608000  0.93340000  0.85414000  1
  C  C41  1  0.93301000  0.52177000  0.85418000  1
  C  C42  1  0.44893000  0.48014000  0.35740000  1
  C  C43  1  0.12013000  0.42298000  0.36148000  1
  C  C44  1  0.46435000  0.10974000  0.36190000  1
  C  C45  1  0.51259000  0.54415000  0.64792000  1
  C  C46  1  0.54270000  0.93998000  0.64712000  1
  C  C47  1  0.93833000  0.52056000  0.64694000  1
  C  C48  1  0.97275000  0.50797000  0.92941000  1
  C  C49  1  0.52000000  0.97387000  0.92880000  1
  C  C50  1  0.50467000  0.52014000  0.92837000  1
  C  C51  1  0.49564000  0.99704000  0.07720000  1
  C  C52  1  0.99277000  0.50543000  0.07803000  1
  C  C53  1  0.50497000  0.49654000  0.07691000  1
  C  C54  1  0.01516000  0.59464000  0.96306000  1
  C  C55  1  0.38795000  0.02038000  0.95952000  1
  C  C56  1  0.58630000  0.39163000  0.96019000  1
  C  C57  1  0.37836000  0.01841000  0.03451000  1
  C  C58  1  0.00974000  0.60447000  0.03807000  1
  C  C59  1  0.59852000  0.38265000  0.03528000  1
  C  C60  1  0.94660000  0.42453000  0.04377000  1
  C  C61  1  0.62541000  0.94652000  0.04568000  1
  C  C62  1  0.42723000  0.62261000  0.04412000  1
  C  C63  1  0.63777000  0.93236000  0.97294000  1
  C  C64  1  0.93387000  0.42796000  0.97093000  1
  C  C65  1  0.42956000  0.63471000  0.97143000  1
  C  C66  1  0.06127000  0.67280000  0.92428000  1
  C  C67  1  0.26555000  0.06691000  0.91759000  1
  C  C68  1  0.65752000  0.27219000  0.91927000  1
  C  C69  1  0.25163000  0.03880000  0.06368000  1
  C  C70  1  0.02373000  0.71150000  0.07008000  1
  C  C71  1  0.70298000  0.25971000  0.06538000  1
  C  C72  1  0.08498000  0.77023000  0.95804000  1
  C  C73  1  0.13998000  0.09506000  0.94834000  1
  C  C74  1  0.75190000  0.15011000  0.95105000  1
  C  C75  1  0.13396000  0.07865000  0.02102000  1
  C  C76  1  0.06399000  0.79087000  0.03059000  1
  C  C77  1  0.77580000  0.14467000  0.02379000  1
  C  C78  1  0.01059000  0.49984000  0.57898000  1
  C  C79  1  0.51104000  0.99731000  0.57562000  1
  C  C80  1  0.45982000  0.50826000  0.58308000  1
  C  C81  1  0.50592000  0.04640000  0.43112000  1
  C  C82  1  0.07259000  0.44605000  0.43477000  1
  C  C83  1  0.45631000  0.50815000  0.43499000  1
  C  C84  1  0.09718000  0.36672000  0.55707000  1
  C  C85  1  0.59278000  0.05431000  0.54936000  1
  C  C86  1  0.33510000  0.60239000  0.54904000  1
  C  C87  1  0.60366000  0.06360000  0.47555000  1
  C  C88  1  0.10625000  0.33807000  0.48390000  1
  C  C89  1  0.33497000  0.61085000  0.47329000  1
  C  C90  1  0.98519000  0.57860000  0.45589000  1
  C  C91  1  0.44646000  0.97057000  0.45482000  1
  C  C92  1  0.56601000  0.41310000  0.47754000  1
  C  C93  1  0.45150000  0.94369000  0.52658000  1
  C  C94  1  0.95257000  0.60426000  0.52743000  1
  C  C95  1  0.52653000  0.39042000  0.54554000  1
  C  C96  1  0.14663000  0.25950000  0.60661000  1
  C  C97  1  0.66953000  0.09708000  0.59508000  1
  C  C98  1  0.21517000  0.68568000  0.58799000  1
  C  C99  1  0.71068000  0.09018000  0.45056000  1
  C  C100  1  0.12688000  0.20844000  0.46419000  1
  C  C101  1  0.21870000  0.72483000  0.44226000  1
  C  C102  1  0.14917000  0.14023000  0.58723000  1
  C  C103  1  0.77551000  0.11777000  0.56936000  1
  C  C104  1  0.10764000  0.79791000  0.55565000  1
  C  C105  1  0.79815000  0.11031000  0.49721000  1
  C  C106  1  0.13523000  0.11657000  0.51595000  1
  C  C107  1  0.10865000  0.81572000  0.48303000  1
  N  N108  1  0.90221000  0.67956000  0.40328000  1
  N  N109  1  0.41154000  0.89439000  0.40491000  1
  N  N110  1  0.70181000  0.39955000  0.46757000  1
  N  N111  1  0.43006000  0.83402000  0.54601000  1
  N  N112  1  0.83516000  0.72843000  0.54388000  1
  N  N113  1  0.43692000  0.32933000  0.54597000  1
  O  O114  1  0.57241000  0.08904000  0.17101000  1
  O  O115  1  0.33855000  0.57241000  0.17101000  1
  O  O116  1  0.08904000  0.33855000  0.17101000  1
  O  O117  1  0.91096000  0.42759000  0.82899000  1
  O  O118  1  0.42759000  0.66145000  0.82899000  1
  O  O119  1  0.66145000  0.91096000  0.82899000  1
  O  O120  1  0.52853000  0.36025000  0.17560000  1
  O  O121  1  0.11122000  0.52853000  0.17560000  1
  O  O122  1  0.36025000  0.11122000  0.17560000  1
  O  O123  1  0.63975000  0.47147000  0.82440000  1
  O  O124  1  0.47147000  0.88878000  0.82440000  1
  O  O125  1  0.88878000  0.63975000  0.82440000  1
  O  O126  1  0.57240000  0.09067000  0.33154000  1
  O  O127  1  0.33693000  0.57240000  0.33154000  1
  O  O128  1  0.09067000  0.33693000  0.33154000  1
  O  O129  1  0.90933000  0.42760000  0.66846000  1
  O  O130  1  0.42760000  0.66307000  0.66846000  1
  O  O131  1  0.66307000  0.90933000  0.66846000  1
  O  O132  1  0.52852000  0.36176000  0.32441000  1
  O  O133  1  0.10972000  0.52852000  0.32441000  1
  O  O134  1  0.36176000  0.10972000  0.32441000  1
  O  O135  1  0.63824000  0.47148000  0.67559000  1
  O  O136  1  0.47148000  0.89028000  0.67559000  1
  O  O137  1  0.89028000  0.63824000  0.67559000  1
  O  O138  1  0.33333333  0.33333333  0.25063000  1
  O  O139  1  0.66666667  0.66666667  0.74937000  1
  O  O140  1  0.82855000  0.65378000  0.35728000  1
  O  O141  1  0.88902000  0.80072000  0.40515000  1
  O  O142  1  0.50979000  0.79630000  0.36930000  1
  O  O143  1  0.28279000  0.93571000  0.38687000  1
  O  O144  1  0.78150000  0.38589000  0.52215000  1
  O  O145  1  0.74105000  0.41449000  0.40479000  1
  O  O146  1  0.32090000  0.85756000  0.58133000  1
  O  O147  1  0.51900000  0.71116000  0.52738000  1
  O  O148  1  0.72167000  0.76231000  0.50843000  1
  O  O149  1  0.85226000  0.81982000  0.57721000  1
  O  O150  1  0.37532000  0.32296000  0.48774000  1
  O  O151  1  0.38851000  0.31439000  0.60630000  1
