# generated using pymatgen
data_ZnH18C18N4O5
_symmetry_space_group_name_H-M   'P 1'
_cell_length_a   4.67379000
_cell_length_b   18.86007000
_cell_length_c   22.53698000
_cell_angle_alpha   89.92270000
_cell_angle_beta   90.00000000
_cell_angle_gamma   90.00000000
_symmetry_Int_Tables_number   1
_chemical_formula_structural   ZnH18C18N4O5
_chemical_formula_sum   'Zn4 H72 C72 N16 O20'
_cell_volume   1986.58805303
_cell_formula_units_Z   4
loop_
 _symmetry_equiv_pos_site_id
 _symmetry_equiv_pos_as_xyz
  1  'x, y, z'
loop_
 _atom_site_type_symbol
 _atom_site_label
 _atom_site_symmetry_multiplicity
 _atom_site_fract_x
 _atom_site_fract_y
 _atom_site_fract_z
 _atom_site_occupancy
  Zn  Zn0  1  0.20940000  0.33024000  0.20465000  1
  Zn  Zn1  1  0.78953000  0.83059000  0.29544000  1
  Zn  Zn2  1  0.20940000  0.66976000  0.79534000  1
  Zn  Zn3  1  0.78953000  0.16940000  0.70455000  1
  H  H4  1  0.87775000  0.15430000  0.19516000  1
  H  H5  1  0.26801000  0.52292000  0.32016000  1
  H  H6  1  0.02633000  0.20898000  0.40758000  1
  H  H7  1  0.26603000  0.75548000  0.90264000  1
  H  H8  1  0.26802000  0.47707000  0.67984000  1
  H  H9  1  0.26603000  0.24452000  0.09736000  1
  H  H10  1  0.87775000  0.84570000  0.80483000  1
  H  H11  1  0.76146000  0.42244000  0.94294000  1
  H  H12  1  0.38302000  0.04647000  0.20339000  1
  H  H13  1  0.29128000  0.23320000  0.31536000  1
  H  H14  1  0.98223000  0.57545000  0.11451000  1
  H  H15  1  0.36720000  0.68179000  0.54794000  1
  H  H16  1  0.73257000  0.02366000  0.18011000  1
  H  H17  1  0.73714000  0.60509000  0.73329000  1
  H  H18  1  0.89654000  0.08326000  0.28046000  1
  H  H19  1  0.70272000  0.40294000  0.14529000  1
  H  H20  1  0.33323000  0.63543000  0.36656000  1
  H  H21  1  0.73634000  0.74507000  0.40267000  1
  H  H22  1  0.73714000  0.39491000  0.26671000  1
  H  H23  1  0.02126000  0.92709000  0.61490000  1
  H  H24  1  0.30692000  0.89486000  0.71078000  1
  H  H25  1  0.71212000  0.26581000  0.81492000  1
  H  H26  1  0.30070000  0.90325000  0.35420000  1
  H  H27  1  0.11100000  0.58221000  0.21919000  1
  H  H28  1  0.38302000  0.95353000  0.79661000  1
  H  H29  1  0.99436000  0.21817000  0.00423000  1
  H  H30  1  0.29128000  0.76680000  0.68464000  1
  H  H31  1  0.69923000  0.39612000  0.78818000  1
  H  H32  1  0.30070000  0.09675000  0.64579000  1
  H  H33  1  0.36720000  0.31821000  0.45205000  1
  H  H34  1  0.70273000  0.59706000  0.85471000  1
  H  H35  1  0.62009000  0.45616000  0.70277000  1
  H  H36  1  0.71212000  0.73419000  0.18508000  1
  H  H37  1  0.23834000  0.07362000  0.44322000  1
  H  H38  1  0.27032000  0.89485000  0.23385000  1
  H  H39  1  0.56089000  0.12175000  0.85785000  1
  H  H40  1  0.00676000  0.28072000  0.50382000  1
  H  H41  1  0.69923000  0.60387000  0.21181000  1
  H  H42  1  0.44515000  0.37815000  0.35832000  1
  H  H43  1  0.99436000  0.78183000  0.99576000  1
  H  H44  1  0.76146000  0.57756000  0.05705000  1
  H  H45  1  0.66267000  0.17275000  0.45924000  1
  H  H46  1  0.02633000  0.79101000  0.59241000  1
  H  H47  1  0.97433000  0.28940000  0.90749000  1
  H  H48  1  0.63474000  0.81912000  0.04776000  1
  H  H49  1  0.12929000  0.34696000  0.69594000  1
  H  H50  1  0.66267000  0.82725000  0.54075000  1
  H  H51  1  0.27032000  0.10515000  0.76615000  1
  H  H52  1  0.89654000  0.91674000  0.71954000  1
  H  H53  1  0.11100000  0.41779000  0.78081000  1
  H  H54  1  0.63474000  0.18088000  0.95224000  1
  H  H55  1  0.73634000  0.25493000  0.59733000  1
  H  H56  1  0.12929000  0.65304000  0.30405000  1
  H  H57  1  0.56089000  0.87825000  0.14215000  1
  H  H58  1  0.02125000  0.07291000  0.38510000  1
  H  H59  1  0.67152000  0.86354000  0.86699000  1
  H  H60  1  0.00676000  0.71928000  0.49617000  1
  H  H61  1  0.58596000  0.11181000  0.55273000  1
  H  H62  1  0.67152000  0.13646000  0.13300000  1
  H  H63  1  0.58596000  0.88819000  0.44727000  1
  H  H64  1  0.41700000  0.61231000  0.94782000  1
  H  H65  1  0.23835000  0.92638000  0.55677000  1
  H  H66  1  0.41700000  0.38769000  0.05218000  1
  H  H67  1  0.33322000  0.36457000  0.63344000  1
  H  H68  1  0.44515000  0.62185000  0.64168000  1
  H  H69  1  0.97433000  0.71060000  0.09251000  1
  H  H70  1  0.73258000  0.97634000  0.81989000  1
  H  H71  1  0.98223000  0.42455000  0.88548000  1
  H  H72  1  0.62009000  0.54384000  0.29723000  1
  H  H73  1  0.33839000  0.32621000  0.95924000  1
  H  H74  1  0.30692000  0.10514000  0.28921000  1
  H  H75  1  0.33839000  0.67379000  0.04075000  1
  C  C76  1  0.89270000  0.23315000  0.82734000  1
  C  C77  1  0.48450000  0.77736000  0.05960000  1
  C  C78  1  0.21328000  0.47387000  0.21423000  1
  C  C79  1  0.39652000  0.55994000  0.29361000  1
  C  C80  1  0.37868000  0.15597000  0.84931000  1
  C  C81  1  0.60798000  0.93859000  0.79338000  1
  C  C82  1  0.30819000  0.44931000  0.77190000  1
  C  C83  1  0.11070000  0.73413000  0.67226000  1
  C  C84  1  0.48673000  0.28422000  0.97141000  1
  C  C85  1  0.55080000  0.56265000  0.13141000  1
  C  C86  1  0.24584000  0.86292000  0.38662000  1
  C  C87  1  0.29694000  0.20847000  0.89046000  1
  C  C88  1  0.51438000  0.21475000  0.47132000  1
  C  C89  1  0.29694000  0.79152000  0.10953000  1
  C  C90  1  0.89270000  0.76685000  0.17265000  1
  C  C91  1  0.21328000  0.52613000  0.78576000  1
  C  C92  1  0.59377000  0.64796000  0.93824000  1
  C  C93  1  0.69798000  0.94797000  0.72787000  1
  C  C94  1  0.21280000  0.14551000  0.79844000  1
  C  C95  1  0.44614000  0.19173000  0.20013000  1
  C  C96  1  0.67394000  0.29855000  0.02144000  1
  C  C97  1  0.51732000  0.72358000  0.55968000  1
  C  C98  1  0.55080000  0.43735000  0.86858000  1
  C  C99  1  0.75699000  0.36253000  0.11298000  1
  C  C100  1  0.66001000  0.86390000  0.81820000  1
  C  C101  1  0.95463000  0.74796000  0.62083000  1
  C  C102  1  0.48450000  0.22264000  0.94039000  1
  C  C103  1  0.69798000  0.05202000  0.27213000  1
  C  C104  1  0.55993000  0.69088000  0.29968000  1
  C  C105  1  0.34662000  0.36509000  0.68216000  1
  C  C106  1  0.39652000  0.44006000  0.70638000  1
  C  C107  1  0.08034000  0.76071000  0.46639000  1
  C  C108  1  0.34662000  0.63491000  0.31783000  1
  C  C109  1  0.79320000  0.35432000  0.29900000  1
  C  C110  1  0.92382000  0.22452000  0.58478000  1
  C  C111  1  0.24584000  0.13707000  0.61338000  1
  C  C112  1  0.32764000  0.20056000  0.52146000  1
  C  C113  1  0.44614000  0.80827000  0.79986000  1
  C  C114  1  0.07833000  0.72515000  0.91522000  1
  C  C115  1  0.70633000  0.29069000  0.39066000  1
  C  C116  1  0.62672000  0.34376000  0.34975000  1
  C  C117  1  0.48673000  0.71578000  0.02859000  1
  C  C118  1  0.04780000  0.24676000  0.87893000  1
  C  C119  1  0.66001000  0.13609000  0.18180000  1
  C  C120  1  0.79051000  0.02509000  0.71376000  1
  C  C121  1  0.30819000  0.55069000  0.22809000  1
  C  C122  1  0.67394000  0.70144000  0.97855000  1
  C  C123  1  0.60798000  0.06141000  0.20662000  1
  C  C124  1  0.04780000  0.75324000  0.12107000  1
  C  C125  1  0.40887000  0.14741000  0.56209000  1
  C  C126  1  0.92382000  0.77548000  0.41521000  1
  C  C127  1  0.37868000  0.84403000  0.15068000  1
  C  C128  1  0.51438000  0.78525000  0.52867000  1
  C  C129  1  0.79321000  0.64568000  0.70100000  1
  C  C130  1  0.21279000  0.85449000  0.20156000  1
  C  C131  1  0.92118000  0.74018000  0.96624000  1
  C  C132  1  0.75700000  0.63747000  0.88702000  1
  C  C133  1  0.95463000  0.25204000  0.37917000  1
  C  C134  1  0.51732000  0.27642000  0.44031000  1
  C  C135  1  0.40887000  0.85259000  0.43790000  1
  C  C136  1  0.45253000  0.06101000  0.36875000  1
  C  C137  1  0.70633000  0.70931000  0.60934000  1
  C  C138  1  0.11070000  0.26586000  0.32774000  1
  C  C139  1  0.79051000  0.97491000  0.28623000  1
  C  C140  1  0.62672000  0.65624000  0.65025000  1
  C  C141  1  0.45253000  0.93899000  0.63124000  1
  C  C142  1  0.55993000  0.30912000  0.70032000  1
  C  C143  1  0.92118000  0.25982000  0.03376000  1
  C  C144  1  0.59377000  0.35204000  0.06176000  1
  C  C145  1  0.32764000  0.79943000  0.47854000  1
  C  C146  1  0.08034000  0.23929000  0.53360000  1
  C  C147  1  0.07833000  0.27485000  0.08478000  1
  N  N148  1  0.22045000  0.91022000  0.59987000  1
  N  N149  1  0.98012000  0.18463000  0.78661000  1
  N  N150  1  0.46904000  0.07806000  0.31003000  1
  N  N151  1  0.78173000  0.40745000  0.89965000  1
  N  N152  1  0.53950000  0.57634000  0.19070000  1
  N  N153  1  0.01025000  0.82477000  0.37492000  1
  N  N154  1  0.99230000  0.32432000  0.12485000  1
  N  N155  1  0.53950000  0.42365000  0.80929000  1
  N  N156  1  0.02438000  0.31473000  0.28711000  1
  N  N157  1  0.98012000  0.81537000  0.21339000  1
  N  N158  1  0.22044000  0.08978000  0.40013000  1
  N  N159  1  0.01025000  0.17523000  0.62507000  1
  N  N160  1  0.99230000  0.67568000  0.87515000  1
  N  N161  1  0.78173000  0.59255000  0.10035000  1
  N  N162  1  0.46905000  0.92194000  0.68997000  1
  N  N163  1  0.02438000  0.68526000  0.71288000  1
  O  O164  1  0.35680000  0.47189000  0.89393000  1
  O  O165  1  0.64371000  0.02476000  0.39337000  1
  O  O166  1  0.97241000  0.53581000  0.80731000  1
  O  O167  1  0.50345000  0.25667000  0.18467000  1
  O  O168  1  0.03122000  0.03553000  0.69250000  1
  O  O169  1  0.38916000  0.42257000  0.22771000  1
  O  O170  1  0.03122000  0.96447000  0.30750000  1
  O  O171  1  0.22731000  0.82480000  0.77026000  1
  O  O172  1  0.49919000  0.24431000  0.68494000  1
  O  O173  1  0.38916000  0.57743000  0.77228000  1
  O  O174  1  0.64371000  0.97524000  0.60662000  1
  O  O175  1  0.77995000  0.32500000  0.72976000  1
  O  O176  1  0.22731000  0.17520000  0.22973000  1
  O  O177  1  0.61197000  0.07590000  0.72682000  1
  O  O178  1  0.97241000  0.46419000  0.19269000  1
  O  O179  1  0.49918000  0.75569000  0.31505000  1
  O  O180  1  0.35680000  0.52811000  0.10606000  1
  O  O181  1  0.50345000  0.74333000  0.81533000  1
  O  O182  1  0.77995000  0.67500000  0.27023000  1
  O  O183  1  0.61197000  0.92410000  0.27317000  1
