# generated using pymatgen
data_V4H31C54NO22
_symmetry_space_group_name_H-M   'P 1'
_cell_length_a   6.97701000
_cell_length_b   13.79394000
_cell_length_c   20.25548000
_cell_angle_alpha   103.36030000
_cell_angle_beta   89.67934000
_cell_angle_gamma   89.87276000
_symmetry_Int_Tables_number   1
_chemical_formula_structural   V4H31C54NO22
_chemical_formula_sum   'V4 H31 C54 N1 O22'
_cell_volume   1896.59654625
_cell_formula_units_Z   1
loop_
 _symmetry_equiv_pos_site_id
 _symmetry_equiv_pos_as_xyz
  1  'x, y, z'
loop_
 _atom_site_type_symbol
 _atom_site_label
 _atom_site_symmetry_multiplicity
 _atom_site_fract_x
 _atom_site_fract_y
 _atom_site_fract_z
 _atom_site_occupancy
  V  V0  1  0.06466000  0.51189000  0.50231000  1
  V  V1  1  0.56403000  0.48811000  0.49769000  1
  V  V2  1  0.64818000  0.98811000  0.99769000  1
  V  V3  1  0.14880000  0.01195000  0.00230000  1
  H  H4  1  0.89024000  0.16608000  0.51596000  1
  H  H5  1  0.91651000  0.03839000  0.57945000  1
  H  H6  1  0.82314000  0.39136000  0.69753000  1
  H  H7  1  0.83029000  0.33158000  0.98570000  1
  H  H8  1  0.81558000  0.42851000  0.80232000  1
  H  H9  1  0.80478000  0.46448000  0.92392000  1
  H  H10  1  0.90476000  0.03105000  0.81381000  1
  H  H11  1  0.12834000  0.26868000  0.16998000  1
  H  H12  1  0.12910000  0.37190000  0.28773000  1
  H  H13  1  0.51915000  0.40036000  0.28607000  1
  H  H14  1  0.39683000  0.29350000  0.31202000  1
  H  H15  1  0.52624000  0.30968000  0.17070000  1
  H  H16  1  0.38775000  0.21200000  0.19952000  1
  H  H17  1  0.07115000  0.64488000  0.71405000  1
  H  H18  1  0.07669000  0.75796000  0.82731000  1
  H  H19  1  0.73868000  0.75101000  0.81859000  1
  H  H20  1  0.80683000  0.85835000  0.78106000  1
  H  H21  1  0.73280000  0.64357000  0.70722000  1
  H  H22  1  0.79863000  0.75123000  0.66952000  1
  H  H23  1  0.37216000  0.83155000  0.48571000  1
  H  H24  1  0.40814000  0.00714000  0.31618000  1
  H  H25  1  0.38460000  0.96064000  0.42123000  1
  H  H26  1  0.33121000  0.60464000  0.30304000  1
  H  H27  1  0.31958000  0.66846000  0.01585000  1
  H  H28  1  0.28165000  0.57196000  0.19900000  1
  H  H29  1  0.27742000  0.53666000  0.07730000  1
  H  H30  1  0.82751000  0.93665000  0.64324000  1
  H  H31  1  0.11238000  0.84556000  0.64973000  1
  H  H32  1  0.18910000  0.93965000  0.72206000  1
  H  H33  1  0.18674000  0.96574000  0.63829000  1
  H  H34  1  0.38180000  0.07655000  0.12980000  1
  C  C35  1  0.34745000  0.61655000  0.61547000  1
  C  C36  1  0.34561000  0.63574000  0.43500000  1
  C  C37  1  0.84172000  0.38600000  0.38395000  1
  C  C38  1  0.84333000  0.36324000  0.56509000  1
  C  C39  1  0.89346000  0.11411000  0.60782000  1
  C  C40  1  0.85314000  0.28634000  0.60413000  1
  C  C41  1  0.83703000  0.31265000  0.93074000  1
  C  C42  1  0.82217000  0.38797000  0.89589000  1
  C  C43  1  0.82856000  0.36577000  0.82521000  1
  C  C44  1  0.85090000  0.26631000  0.78702000  1
  C  C45  1  0.86776000  0.18957000  0.82326000  1
  C  C46  1  0.85751000  0.24077000  0.71436000  1
  C  C47  1  0.88157000  0.13898000  0.67939000  1
  C  C48  1  0.89714000  0.06435000  0.71658000  1
  C  C49  1  0.89135000  0.09032000  0.78721000  1
  C  C50  1  0.84217000  0.31320000  0.67500000  1
  C  C51  1  0.87947000  0.18708000  0.57082000  1
  C  C52  1  0.85968000  0.21366000  0.89532000  1
  C  C53  1  0.69184000  0.21081000  0.21985000  1
  C  C54  1  0.85738000  0.19987000  0.17903000  1
  C  C55  1  0.01233000  0.26229000  0.20400000  1
  C  C56  1  0.01177000  0.32146000  0.27111000  1
  C  C57  1  0.85341000  0.32119000  0.31454000  1
  C  C58  1  0.69231000  0.26886000  0.28671000  1
  C  C59  1  0.50799000  0.31831000  0.28011000  1
  C  C60  1  0.50975000  0.26179000  0.20767000  1
  C  C61  1  0.50529000  0.74979000  0.70462000  1
  C  C62  1  0.35060000  0.68617000  0.68335000  1
  C  C63  1  0.19290000  0.69328000  0.72810000  1
  C  C64  1  0.19612000  0.75795000  0.79314000  1
  C  C65  1  0.35792000  0.81675000  0.81564000  1
  C  C66  1  0.50928000  0.81308000  0.76929000  1
  C  C67  1  0.71576000  0.79163000  0.77782000  1
  C  C68  1  0.71145000  0.72354000  0.70735000  1
  C  C69  1  0.37112000  0.88342000  0.39411000  1
  C  C70  1  0.35263000  0.71118000  0.39660000  1
  C  C71  1  0.32615000  0.68737000  0.07079000  1
  C  C72  1  0.30175000  0.61242000  0.10546000  1
  C  C73  1  0.30584000  0.63396000  0.17603000  1
  C  C74  1  0.33687000  0.73218000  0.21442000  1
  C  C75  1  0.36179000  0.80973000  0.17892000  1
  C  C76  1  0.34525000  0.75588000  0.28712000  1
  C  C77  1  0.36437000  0.85674000  0.32308000  1
  C  C78  1  0.38589000  0.93065000  0.28829000  1
  C  C79  1  0.39345000  0.90758000  0.21821000  1
  C  C80  1  0.34032000  0.68325000  0.32588000  1
  C  C81  1  0.36531000  0.81062000  0.43080000  1
  C  C82  1  0.35560000  0.78592000  0.10592000  1
  C  C83  1  0.36645000  0.86116000  0.06415000  1
  C  C84  1  0.36507000  0.88255000  0.88484000  1
  C  C85  1  0.86943000  0.13680000  0.93487000  1
  C  C86  1  0.87023000  0.12367000  0.11286000  1
  C  C87  1  0.11153000  0.92667000  0.67307000  1
  C  C88  1  0.45681000  0.98744000  0.18926000  1
  N  N89  1  0.91587000  0.96155000  0.68422000  1
  O  O90  1  0.50677000  0.59970000  0.44955000  1
  O  O91  1  0.17998000  0.59574000  0.58796000  1
  O  O92  1  0.00458000  0.40030000  0.55045000  1
  O  O93  1  0.17738000  0.61170000  0.45238000  1
  O  O94  1  0.00197000  0.41637000  0.41390000  1
  O  O95  1  0.50939000  0.58363000  0.58610000  1
  O  O96  1  0.33753000  0.43589000  0.48753000  1
  O  O97  1  0.67195000  0.40426000  0.41204000  1
  O  O98  1  0.67454000  0.38830000  0.54762000  1
  O  O99  1  0.84103000  0.56411000  0.51247000  1
  O  O100  1  0.20345000  0.91632000  0.91391000  1
  O  O101  1  0.53552000  0.88830000  0.04762000  1
  O  O102  1  0.71086000  0.08365000  0.08610000  1
  O  O103  1  0.53286000  0.90425000  0.91204000  1
  O  O104  1  0.70819000  0.09971000  0.94955000  1
  O  O105  1  0.20612000  0.90026000  0.05046000  1
  O  O106  1  0.37528000  0.06408000  0.01247000  1
  O  O107  1  0.03822000  0.11174000  0.95237000  1
  O  O108  1  0.04088000  0.09579000  0.08794000  1
  O  O109  1  0.87182000  0.93592000  0.98753000  1
  O  O110  1  0.62799000  0.00368000  0.18686000  1
  O  O111  1  0.32150000  0.04145000  0.16292000  1
