# generated using pymatgen
data_MnH10C14(NO2)2
_symmetry_space_group_name_H-M   'P 1'
_cell_length_a   14.91800000
_cell_length_b   15.59600000
_cell_length_c   16.44200000
_cell_angle_alpha   90.00000000
_cell_angle_beta   105.60600000
_cell_angle_gamma   90.00000000
_symmetry_Int_Tables_number   1
_chemical_formula_structural   MnH10C14(NO2)2
_chemical_formula_sum   'Mn8 H80 C112 N16 O32'
_cell_volume   3684.38807553
_cell_formula_units_Z   8
loop_
 _symmetry_equiv_pos_site_id
 _symmetry_equiv_pos_as_xyz
  1  'x, y, z'
loop_
 _atom_site_type_symbol
 _atom_site_label
 _atom_site_symmetry_multiplicity
 _atom_site_fract_x
 _atom_site_fract_y
 _atom_site_fract_z
 _atom_site_occupancy
  Mn  Mn1  1  0.25391000  0.93160000  0.96291000  1.0
  Mn  Mn2  1  0.27588000  0.64594000  0.04599000  1.0
  Mn  Mn3  1  0.24609000  0.43160000  0.53709000  1.0
  Mn  Mn4  1  0.22412000  0.14594000  0.45401000  1.0
  Mn  Mn5  1  0.74609000  0.06840000  0.03709000  1.0
  Mn  Mn6  1  0.72412000  0.35406000  0.95401000  1.0
  Mn  Mn7  1  0.75391000  0.56840000  0.46291000  1.0
  Mn  Mn8  1  0.77588000  0.85406000  0.54599000  1.0
  H  H1  1  0.27650000  0.96550000  0.23510000  1.0
  H  H2  1  0.31560000  0.90520000  0.59190000  1.0
  H  H3  1  0.26490000  0.61160000  0.77440000  1.0
  H  H4  1  0.23840000  0.68200000  0.42970000  1.0
  H  H5  1  0.27710000  0.59580000  0.30400000  1.0
  H  H6  1  0.27150000  0.55520000  0.38950000  1.0
  H  H7  1  0.27270000  0.86840000  0.78000000  1.0
  H  H8  1  0.25180000  0.83600000  0.43930000  1.0
  H  H9  1  0.23930000  0.98100000  0.70030000  1.0
  H  H10  1  0.22670000  0.01570000  0.60860000  1.0
  H  H11  1  0.28750000  0.70830000  0.23980000  1.0
  H  H12  1  0.40680000  0.47230000  0.34930000  1.0
  H  H13  1  0.27710000  0.74090000  0.56680000  1.0
  H  H14  1  0.10560000  0.90030000  0.49920000  1.0
  H  H15  1  0.95440000  0.86500000  0.46840000  1.0
  H  H16  1  0.09450000  0.96840000  0.73010000  1.0
  H  H17  1  0.59640000  0.68840000  0.47910000  1.0
  H  H18  1  0.94240000  0.92910000  0.69460000  1.0
  H  H19  1  0.56270000  0.45570000  0.39040000  1.0
  H  H20  1  0.43940000  0.70690000  0.44620000  1.0
  H  H21  1  0.22350000  0.46550000  0.26490000  1.0
  H  H22  1  0.18440000  0.40520000  0.90810000  1.0
  H  H23  1  0.23510000  0.11160000  0.72560000  1.0
  H  H24  1  0.26160000  0.18200000  0.07030000  1.0
  H  H25  1  0.22290000  0.09580000  0.19600000  1.0
  H  H26  1  0.22850000  0.05520000  0.11050000  1.0
  H  H27  1  0.22730000  0.36840000  0.72000000  1.0
  H  H28  1  0.24820000  0.33600000  0.06070000  1.0
  H  H29  1  0.26070000  0.48100000  0.79970000  1.0
  H  H30  1  0.27330000  0.51570000  0.89140000  1.0
  H  H31  1  0.21250000  0.20830000  0.26020000  1.0
  H  H32  1  0.09320000  0.97230000  0.15070000  1.0
  H  H33  1  0.22290000  0.24090000  0.93320000  1.0
  H  H34  1  0.39440000  0.40030000  0.00080000  1.0
  H  H35  1  0.54560000  0.36500000  0.03160000  1.0
  H  H36  1  0.40550000  0.46840000  0.76990000  1.0
  H  H37  1  0.90360000  0.18840000  0.02090000  1.0
  H  H38  1  0.55760000  0.42910000  0.80540000  1.0
  H  H39  1  0.93730000  0.95570000  0.10960000  1.0
  H  H40  1  0.06060000  0.20690000  0.05380000  1.0
  H  H41  1  0.72350000  0.03450000  0.76490000  1.0
  H  H42  1  0.68440000  0.09480000  0.40810000  1.0
  H  H43  1  0.73510000  0.38840000  0.22560000  1.0
  H  H44  1  0.76160000  0.31800000  0.57030000  1.0
  H  H45  1  0.72290000  0.40420000  0.69600000  1.0
  H  H46  1  0.72850000  0.44480000  0.61050000  1.0
  H  H47  1  0.72730000  0.13160000  0.22000000  1.0
  H  H48  1  0.74820000  0.16400000  0.56070000  1.0
  H  H49  1  0.76070000  0.01900000  0.29970000  1.0
  H  H50  1  0.77330000  0.98430000  0.39140000  1.0
  H  H51  1  0.71250000  0.29170000  0.76020000  1.0
  H  H52  1  0.59320000  0.52770000  0.65070000  1.0
  H  H53  1  0.72290000  0.25910000  0.43320000  1.0
  H  H54  1  0.89440000  0.09970000  0.50080000  1.0
  H  H55  1  0.04560000  0.13500000  0.53160000  1.0
  H  H56  1  0.90550000  0.03160000  0.26990000  1.0
  H  H57  1  0.40360000  0.31160000  0.52090000  1.0
  H  H58  1  0.05760000  0.07090000  0.30540000  1.0
  H  H59  1  0.43730000  0.54430000  0.60960000  1.0
  H  H60  1  0.56060000  0.29310000  0.55380000  1.0
  H  H61  1  0.77650000  0.53450000  0.73510000  1.0
  H  H62  1  0.81560000  0.59480000  0.09190000  1.0
  H  H63  1  0.76490000  0.88840000  0.27440000  1.0
  H  H64  1  0.73840000  0.81800000  0.92970000  1.0
  H  H65  1  0.77710000  0.90420000  0.80400000  1.0
  H  H66  1  0.77150000  0.94480000  0.88950000  1.0
  H  H67  1  0.77270000  0.63160000  0.28000000  1.0
  H  H68  1  0.75180000  0.66400000  0.93930000  1.0
  H  H69  1  0.73930000  0.51900000  0.20030000  1.0
  H  H70  1  0.72670000  0.48430000  0.10860000  1.0
  H  H71  1  0.78750000  0.79170000  0.73980000  1.0
  H  H72  1  0.90680000  0.02770000  0.84930000  1.0
  H  H73  1  0.77710000  0.75910000  0.06680000  1.0
  H  H74  1  0.60560000  0.59970000  0.99920000  1.0
  H  H75  1  0.45440000  0.63500000  0.96840000  1.0
  H  H76  1  0.59450000  0.53160000  0.23010000  1.0
  H  H77  1  0.09640000  0.81160000  0.97910000  1.0
  H  H78  1  0.44240000  0.57090000  0.19460000  1.0
  H  H79  1  0.06270000  0.04430000  0.89040000  1.0
  H  H80  1  0.93940000  0.79310000  0.94620000  1.0
  C  C1  1  0.28070000  0.83650000  0.22330000  1.0
  C  C2  1  0.26140000  0.91410000  0.34460000  1.0
  C  C3  1  0.28890000  0.83420000  0.13330000  1.0
  C  C4  1  0.25060000  0.99690000  0.38750000  1.0
  C  C5  1  0.26970000  0.66440000  0.66310000  1.0
  C  C6  1  0.27340000  0.91400000  0.26270000  1.0
  C  C7  1  0.26230000  0.58120000  0.61470000  1.0
  C  C8  1  0.26770000  0.66360000  0.74740000  1.0
  C  C9  1  0.29820000  0.60200000  0.36490000  1.0
  C  C10  1  0.26990000  0.73960000  0.79100000  1.0
  C  C11  1  0.27890000  0.81980000  0.66620000  1.0
  C  C12  1  0.27360000  0.81740000  0.75090000  1.0
  C  C13  1  0.25930000  0.83600000  0.38500000  1.0
  C  C14  1  0.21980000  0.96540000  0.64110000  1.0
  C  C15  1  0.27990000  0.75970000  0.26590000  1.0
  C  C16  1  0.26810000  0.75820000  0.34690000  1.0
  C  C17  1  0.44400000  0.51730000  0.37640000  1.0
  C  C18  1  0.26380000  0.73980000  0.88120000  1.0
  C  C19  1  0.40300000  0.59330000  0.39200000  1.0
  C  C20  1  0.27540000  0.74100000  0.62290000  1.0
  C  C21  1  0.11870000  0.94050000  0.61860000  1.0
  C  C22  1  0.07340000  0.90750000  0.53990000  1.0
  C  C23  1  0.98230000  0.88570000  0.52230000  1.0
  C  C24  1  0.06710000  0.94740000  0.67620000  1.0
  C  C25  1  0.55810000  0.64360000  0.45330000  1.0
  C  C26  1  0.97530000  0.92350000  0.65430000  1.0
  C  C27  1  0.53790000  0.50810000  0.40050000  1.0
  C  C28  1  0.46310000  0.65540000  0.43250000  1.0
  C  C29  1  0.21930000  0.33650000  0.27670000  1.0
  C  C30  1  0.23860000  0.41410000  0.15540000  1.0
  C  C31  1  0.21110000  0.33420000  0.36670000  1.0
  C  C32  1  0.24940000  0.49690000  0.11250000  1.0
  C  C33  1  0.23030000  0.16440000  0.83690000  1.0
  C  C34  1  0.22660000  0.41400000  0.23730000  1.0
  C  C35  1  0.23770000  0.08120000  0.88530000  1.0
  C  C36  1  0.23230000  0.16360000  0.75260000  1.0
  C  C37  1  0.20180000  0.10200000  0.13510000  1.0
  C  C38  1  0.23010000  0.23960000  0.70900000  1.0
  C  C39  1  0.22110000  0.31980000  0.83380000  1.0
  C  C40  1  0.22640000  0.31740000  0.74910000  1.0
  C  C41  1  0.24070000  0.33600000  0.11500000  1.0
  C  C42  1  0.28020000  0.46540000  0.85890000  1.0
  C  C43  1  0.22010000  0.25970000  0.23410000  1.0
  C  C44  1  0.23190000  0.25820000  0.15310000  1.0
  C  C45  1  0.05600000  0.01730000  0.12360000  1.0
  C  C46  1  0.23620000  0.23980000  0.61880000  1.0
  C  C47  1  0.09700000  0.09330000  0.10800000  1.0
  C  C48  1  0.22460000  0.24100000  0.87710000  1.0
  C  C49  1  0.38130000  0.44050000  0.88140000  1.0
  C  C50  1  0.42660000  0.40750000  0.96010000  1.0
  C  C51  1  0.51770000  0.38570000  0.97770000  1.0
  C  C52  1  0.43290000  0.44740000  0.82380000  1.0
  C  C53  1  0.94190000  0.14360000  0.04670000  1.0
  C  C54  1  0.52470000  0.42350000  0.84570000  1.0
  C  C55  1  0.96210000  0.00810000  0.09950000  1.0
  C  C56  1  0.03690000  0.15540000  0.06750000  1.0
  C  C57  1  0.71930000  0.16350000  0.77670000  1.0
  C  C58  1  0.73860000  0.08590000  0.65540000  1.0
  C  C59  1  0.71110000  0.16580000  0.86670000  1.0
  C  C60  1  0.74940000  0.00310000  0.61250000  1.0
  C  C61  1  0.73030000  0.33560000  0.33690000  1.0
  C  C62  1  0.72660000  0.08600000  0.73730000  1.0
  C  C63  1  0.73770000  0.41880000  0.38530000  1.0
  C  C64  1  0.73230000  0.33640000  0.25260000  1.0
  C  C65  1  0.70180000  0.39800000  0.63510000  1.0
  C  C66  1  0.73010000  0.26040000  0.20900000  1.0
  C  C67  1  0.72110000  0.18020000  0.33380000  1.0
  C  C68  1  0.72640000  0.18260000  0.24910000  1.0
  C  C69  1  0.74070000  0.16400000  0.61500000  1.0
  C  C70  1  0.78020000  0.03460000  0.35890000  1.0
  C  C71  1  0.72010000  0.24030000  0.73410000  1.0
  C  C72  1  0.73190000  0.24180000  0.65310000  1.0
  C  C73  1  0.55600000  0.48270000  0.62360000  1.0
  C  C74  1  0.73620000  0.26020000  0.11880000  1.0
  C  C75  1  0.59700000  0.40670000  0.60800000  1.0
  C  C76  1  0.72460000  0.25900000  0.37710000  1.0
  C  C77  1  0.88130000  0.05950000  0.38140000  1.0
  C  C78  1  0.92660000  0.09250000  0.46010000  1.0
  C  C79  1  0.01770000  0.11430000  0.47770000  1.0
  C  C80  1  0.93290000  0.05260000  0.32380000  1.0
  C  C81  1  0.44190000  0.35640000  0.54670000  1.0
  C  C82  1  0.02470000  0.07650000  0.34570000  1.0
  C  C83  1  0.46210000  0.49190000  0.59950000  1.0
  C  C84  1  0.53690000  0.34460000  0.56750000  1.0
  C  C85  1  0.78070000  0.66350000  0.72330000  1.0
  C  C86  1  0.76140000  0.58590000  0.84460000  1.0
  C  C87  1  0.78890000  0.66580000  0.63330000  1.0
  C  C88  1  0.75060000  0.50310000  0.88750000  1.0
  C  C89  1  0.76970000  0.83560000  0.16310000  1.0
  C  C90  1  0.77340000  0.58600000  0.76270000  1.0
  C  C91  1  0.76230000  0.91880000  0.11470000  1.0
  C  C92  1  0.76770000  0.83640000  0.24740000  1.0
  C  C93  1  0.79820000  0.89800000  0.86490000  1.0
  C  C94  1  0.76990000  0.76040000  0.29100000  1.0
  C  C95  1  0.77890000  0.68020000  0.16620000  1.0
  C  C96  1  0.77360000  0.68260000  0.25090000  1.0
  C  C97  1  0.75930000  0.66400000  0.88500000  1.0
  C  C98  1  0.71980000  0.53460000  0.14110000  1.0
  C  C99  1  0.77990000  0.74030000  0.76590000  1.0
  C  C100  1  0.76810000  0.74180000  0.84690000  1.0
  C  C101  1  0.94400000  0.98270000  0.87640000  1.0
  C  C102  1  0.76380000  0.76020000  0.38120000  1.0
  C  C103  1  0.90300000  0.90670000  0.89200000  1.0
  C  C104  1  0.77540000  0.75900000  0.12290000  1.0
  C  C105  1  0.61870000  0.55950000  0.11860000  1.0
  C  C106  1  0.57340000  0.59250000  0.03990000  1.0
  C  C107  1  0.48230000  0.61430000  0.02230000  1.0
  C  C108  1  0.56710000  0.55260000  0.17620000  1.0
  C  C109  1  0.05810000  0.85640000  0.95330000  1.0
  C  C110  1  0.47530000  0.57650000  0.15430000  1.0
  C  C111  1  0.03790000  0.99190000  0.90050000  1.0
  C  C112  1  0.96310000  0.84460000  0.93250000  1.0
  N  N1  1  0.92880000  0.89160000  0.57640000  1.0
  N  N2  1  0.28230000  0.89700000  0.62550000  1.0
  N  N3  1  0.26280000  0.68200000  0.38810000  1.0
  N  N4  1  0.59760000  0.57040000  0.43800000  1.0
  N  N5  1  0.57120000  0.39160000  0.92360000  1.0
  N  N6  1  0.21770000  0.39700000  0.87450000  1.0
  N  N7  1  0.23720000  0.18200000  0.11190000  1.0
  N  N8  1  0.90240000  0.07040000  0.06200000  1.0
  N  N9  1  0.07120000  0.10840000  0.42360000  1.0
  N  N10  1  0.71770000  0.10300000  0.37450000  1.0
  N  N11  1  0.73720000  0.31800000  0.61190000  1.0
  N  N12  1  0.40240000  0.42960000  0.56200000  1.0
  N  N13  1  0.42880000  0.60840000  0.07640000  1.0
  N  N14  1  0.78230000  0.60300000  0.12550000  1.0
  N  N15  1  0.76280000  0.81800000  0.88810000  1.0
  N  N16  1  0.09760000  0.92960000  0.93800000  1.0
  O  O1  1  0.23710000  0.06510000  0.34570000  1.0
  O  O2  1  0.26210000  0.51100000  0.65360000  1.0
  O  O3  1  0.25590000  0.58250000  0.53670000  1.0
  O  O4  1  0.27470000  0.66950000  0.91880000  1.0
  O  O5  1  0.25460000  0.99640000  0.46490000  1.0
  O  O6  1  0.27760000  0.90480000  0.09320000  1.0
  O  O7  1  0.30680000  0.76460000  0.10520000  1.0
  O  O8  1  0.24500000  0.80780000  0.91020000  1.0
  O  O9  1  0.26290000  0.56510000  0.15430000  1.0
  O  O10  1  0.23790000  0.01100000  0.84640000  1.0
  O  O11  1  0.24410000  0.08250000  0.96330000  1.0
  O  O12  1  0.22530000  0.16950000  0.58120000  1.0
  O  O13  1  0.24540000  0.49640000  0.03510000  1.0
  O  O14  1  0.22240000  0.40480000  0.40680000  1.0
  O  O15  1  0.19320000  0.26460000  0.39480000  1.0
  O  O16  1  0.25500000  0.30780000  0.58980000  1.0
  O  O17  1  0.76290000  0.93490000  0.65430000  1.0
  O  O18  1  0.73790000  0.48900000  0.34640000  1.0
  O  O19  1  0.74410000  0.41750000  0.46330000  1.0
  O  O20  1  0.72530000  0.33050000  0.08120000  1.0
  O  O21  1  0.74540000  0.00360000  0.53510000  1.0
  O  O22  1  0.72240000  0.09520000  0.90680000  1.0
  O  O23  1  0.69320000  0.23540000  0.89480000  1.0
  O  O24  1  0.75500000  0.19220000  0.08980000  1.0
  O  O25  1  0.73710000  0.43490000  0.84570000  1.0
  O  O26  1  0.76210000  0.98900000  0.15360000  1.0
  O  O27  1  0.75590000  0.91750000  0.03670000  1.0
  O  O28  1  0.77470000  0.83050000  0.41880000  1.0
  O  O29  1  0.75460000  0.50360000  0.96490000  1.0
  O  O30  1  0.77760000  0.59520000  0.59320000  1.0
  O  O31  1  0.80680000  0.73540000  0.60520000  1.0
  O  O32  1  0.74500000  0.69220000  0.41020000  1.0
