# generated using pymatgen
data_H4C7N2O
_symmetry_space_group_name_H-M   'P 1'
_cell_length_a   10.04953333
_cell_length_b   36.58965000
_cell_length_c   36.58940000
_cell_angle_alpha   119.99932194
_cell_angle_beta   90.00000000
_cell_angle_gamma   90.00000000
_symmetry_Int_Tables_number   1
_chemical_formula_structural   H4C7N2O
_chemical_formula_sum   'H36 C63 N18 O9'
_cell_volume   11651.80042208
_cell_formula_units_Z   9
loop_
 _symmetry_equiv_pos_site_id
 _symmetry_equiv_pos_as_xyz
  1  'x, y, z'
loop_
 _atom_site_type_symbol
 _atom_site_label
 _atom_site_symmetry_multiplicity
 _atom_site_fract_x
 _atom_site_fract_y
 _atom_site_fract_z
 _atom_site_occupancy
  C  1  1  0.02347300  0.71340500  0.36173600  1
  C  3  1  0.02356100  0.65478300  0.29159600  1
  C  5  1  0.02373400  0.64327900  0.35022400  1
  C  7  1  0.01935300  0.63843800  0.24727700  1
  C  8  1  0.99879800  0.66511200  0.23004400  1
  C  9  1  0.98856400  0.64845800  0.18620300  1
  C  10  1  0.00138600  0.60464400  0.15811700  1
  C  11  1  0.02285400  0.57796600  0.17517000  1
  C  12  1  0.03161100  0.59455600  0.21892800  1
  C  13  1  0.01922800  0.75770700  0.38976400  1
  C  14  1  0.03140200  0.78610600  0.37429400  1
  C  15  1  0.02270600  0.82985300  0.40152000  1
  C  16  1  0.00128700  0.84684200  0.44524500  1
  C  17  1  0.98850500  0.81870700  0.46091300  1
  C  18  1  0.99874000  0.77487700  0.43367000  1
  C  19  1  0.01964600  0.61521900  0.36645600  1
  C  20  1  0.03165000  0.63062100  0.41031700  1
  C  21  1  0.02303000  0.60331600  0.42675200  1
  C  22  1  0.00188500  0.55958600  0.39992500  1
  C  23  1  0.98940500  0.54400000  0.35612900  1
  C  24  1  0.99955500  0.57131200  0.33963500  1
  C  37  1  0.98478900  0.89095100  0.47204400  1
  C  38  1  0.98511600  0.53264000  0.41705300  1
  C  39  1  0.98484300  0.58727100  0.11399600  1
  C  43  1  0.01381400  0.29422700  0.64028600  1
  C  45  1  0.01385000  0.35243700  0.71070300  1
  C  47  1  0.01381000  0.36464400  0.65249400  1
  C  49  1  0.01306300  0.36826500  0.75497500  1
  C  50  1  0.01640200  0.34083800  0.77185200  1
  C  51  1  0.01618000  0.35676100  0.81568900  1
  C  52  1  0.01028800  0.40066600  0.84412700  1
  C  53  1  0.00823700  0.42813500  0.82742400  1
  C  54  1  0.00953600  0.41223700  0.78369400  1
  C  55  1  0.01303200  0.24995600  0.61187700  1
  C  56  1  0.00946700  0.22127900  0.62718600  1
  C  57  1  0.00829900  0.17754100  0.59940000  1
  C  58  1  0.01034600  0.16079400  0.55522300  1
  C  59  1  0.01621900  0.18918400  0.53969900  1
  C  60  1  0.01640800  0.23303000  0.56756700  1
  C  61  1  0.01252500  0.39298300  0.63654500  1
  C  62  1  0.00846600  0.37757700  0.59254500  1
  C  63  1  0.00599900  0.40527300  0.57649700  1
  C  64  1  0.00711700  0.44947300  0.60383100  1
  C  65  1  0.01383500  0.46508700  0.64775900  1
  C  66  1  0.01541600  0.43730400  0.66384000  1
  C  79  1  0.01314300  0.11650100  0.52744700  1
  C  80  1  0.00857000  0.47719800  0.58722700  1
  C  81  1  0.01308400  0.41712600  0.88841500  1
  C  85  1  0.96435500  0.47587700  0.95829000  1
  C  87  1  0.12238300  0.50076500  0.01486000  1
  C  88  1  0.02776500  0.52891200  0.04348000  1
  C  90  1  0.86686900  0.50351000  0.98696500  1
  C  92  1  0.73694200  0.50584400  0.97560600  1
  C  99  1  0.96132500  0.48747200  0.52781300  1
  C  101  1  0.11898900  0.52070400  0.50446600  1
  C  102  1  0.02654700  0.52011000  0.47525800  1
  C  104  1  0.86673300  0.48687400  0.49860600  1
  C  106  1  0.73651400  0.47323300  0.49473300  1
  C  113  1  0.96453100  0.04666900  0.51645900  1
  C  115  1  0.12244100  0.99008700  0.48470100  1
  C  116  1  0.02785000  0.96148200  0.48426800  1
  C  118  1  0.86696700  0.01801900  0.51543500  1
  C  120  1  0.73697700  0.02950000  0.52922900  1
  H  25  1  0.02751200  0.84902200  0.38863500  1
  H  26  1  0.04516600  0.77538100  0.34283200  1
  H  27  1  0.97217600  0.82986100  0.49235900  1
  H  28  1  0.98800700  0.75566800  0.44634100  1
  H  29  1  0.04522600  0.66208100  0.43110100  1
  H  30  1  0.02764600  0.61614000  0.45879800  1
  H  31  1  0.98885800  0.55868700  0.30775900  1
  H  32  1  0.97327100  0.51255700  0.33576300  1
  H  33  1  0.04546400  0.57385800  0.22969700  1
  H  34  1  0.02782000  0.54591100  0.15603800  1
  H  35  1  0.97218100  0.66870900  0.17500300  1
  H  36  1  0.98801200  0.69699600  0.24921600  1
  H  67  1  0.00916700  0.15810800  0.61201800  1
  H  68  1  0.00836100  0.23175200  0.65886600  1
  H  69  1  0.01844800  0.17823200  0.50791300  1
  H  70  1  0.01969500  0.25240200  0.55490700  1
  H  71  1  0.00781000  0.34588700  0.57139100  1
  H  72  1  0.00672600  0.39256100  0.54444300  1
  H  73  1  0.01908800  0.45003700  0.69588300  1
  H  74  1  0.01559600  0.49689200  0.66854600  1
  H  75  1  0.00852600  0.43347000  0.77325600  1
  H  76  1  0.00929200  0.46017900  0.84689200  1
  H  77  1  0.01840800  0.33589500  0.82660200  1
  H  78  1  0.01967600  0.30880800  0.75245200  1
  H  91  1  0.21691300  0.49907300  0.02418200  1
  H  94  1  0.69708900  0.47971600  0.95234600  1
  H  96  1  0.13098400  0.54415500  0.09602500  1
  H  98  1  0.88213800  0.46408200  0.90357900  1
  H  105  1  0.21243600  0.53286000  0.50729600  1
  H  108  1  0.69973100  0.46648400  0.51588700  1
  H  110  1  0.12945200  0.55803500  0.46076800  1
  H  112  1  0.88045000  0.44446800  0.53969600  1
  H  119  1  0.21688300  0.98074300  0.47360500  1
  H  122  1  0.69765700  0.05208900  0.52518000  1
  H  124  1  0.13094900  0.90893500  0.44691600  1
  H  126  1  0.88205200  0.10140200  0.55925000  1
  N  2  1  0.02306500  0.69694300  0.31922000  1
  N  4  1  0.02331300  0.62875600  0.30807100  1
  N  6  1  0.02322300  0.68578300  0.37627600  1
  N  44  1  0.01376200  0.31035400  0.68274600  1
  N  46  1  0.01373900  0.37878800  0.69458300  1
  N  48  1  0.01371100  0.32218000  0.62616200  1
  N  86  1  0.08773300  0.47630900  0.97389600  1
  N  89  1  0.90441600  0.52826600  0.02791300  1
  N  95  1  0.05540900  0.55297700  0.08552400  1
  N  97  1  0.94498100  0.45268900  0.91559600  1
  N  100  1  0.08343900  0.50404900  0.52871700  1
  N  103  1  0.90442600  0.50377700  0.47453100  1
  N  109  1  0.05451800  0.53845500  0.45154200  1
  N  111  1  0.94144900  0.46833600  0.55133900  1
  N  114  1  0.08782200  0.03104900  0.50120800  1
  N  117  1  0.90454100  0.97706500  0.49922600  1
  N  123  1  0.05541300  0.91943500  0.46625600  1
  N  125  1  0.94507100  0.08935500  0.53589000  1
  O  40  1  0.89344200  0.60546400  0.10088900  1
  O  41  1  0.89434600  0.50119100  0.39843600  1
  O  42  1  0.89344200  0.90403700  0.50335800  1
  O  82  1  0.08606100  0.39619500  0.90327400  1
  O  83  1  0.08047400  0.51321600  0.60819300  1
  O  84  1  0.08631100  0.10160700  0.49169300  1
  O  93  1  0.65697300  0.52924500  0.00227600  1
  O  107  1  0.68664500  0.45380600  0.45962000  1
  O  121  1  0.65811600  0.00264500  0.52612500  1
