# generated using pymatgen
data_Cr3H25C39O17
_symmetry_space_group_name_H-M   'P 1'
_cell_length_a   11.04941000
_cell_length_b   11.18044000
_cell_length_c   18.78409000
_cell_angle_alpha   90.21631000
_cell_angle_beta   90.01891000
_cell_angle_gamma   61.80975000
_symmetry_Int_Tables_number   1
_chemical_formula_structural   Cr3H25C39O17
_chemical_formula_sum   'Cr6 H50 C78 O34'
_cell_volume   2045.26482362
_cell_formula_units_Z   2
loop_
 _symmetry_equiv_pos_site_id
 _symmetry_equiv_pos_as_xyz
  1  'x, y, z'
loop_
 _atom_site_type_symbol
 _atom_site_label
 _atom_site_symmetry_multiplicity
 _atom_site_fract_x
 _atom_site_fract_y
 _atom_site_fract_z
 _atom_site_occupancy
  Cr  Cr0  1  0.60205000  0.60706000  0.49777000  1
  Cr  Cr1  1  0.29150000  0.60160000  0.49874000  1
  Cr  Cr2  1  0.60647000  0.29136000  0.50354000  1
  Cr  Cr3  1  0.06168000  0.06212000  0.99238000  1
  Cr  Cr4  1  0.06278000  0.37444000  0.00549000  1
  Cr  Cr5  1  0.37499000  0.06192000  0.99881000  1
  H  H6  1  0.56804000  0.15785000  0.30514000  1
  H  H7  1  0.32563000  0.11986000  0.21867000  1
  H  H8  1  0.34300000  0.15021000  0.33697000  1
  H  H9  1  0.73111000  0.55704000  0.29758000  1
  H  H10  1  0.85362000  0.06440000  0.13032000  1
  H  H11  1  0.75377000  0.52952000  0.17221000  1
  H  H12  1  0.91017000  0.87159000  0.20698000  1
  H  H13  1  0.93076000  0.88916000  0.33668000  1
  H  H14  1  0.90592000  0.09701000  0.38985000  1
  H  H15  1  0.16206000  0.77710000  0.30140000  1
  H  H16  1  0.31783000  0.50477000  0.17547000  1
  H  H17  1  0.58139000  0.77971000  0.11058000  1
  H  H18  1  0.14942000  0.80146000  0.17559000  1
  H  H19  1  0.75629000  0.80658000  0.17477000  1
  H  H20  1  0.73181000  0.85713000  0.30447000  1
  H  H21  1  0.53619000  0.87094000  0.36956000  1
  H  H22  1  0.61245000  0.20426000  0.88434000  1
  H  H23  1  0.64938000  0.97853000  0.86690000  1
  H  H24  1  0.52066000  0.93554000  0.76255000  1
  H  H25  1  0.33956000  0.53200000  0.29174000  1
  H  H26  1  0.45069000  0.08884000  0.66265000  1
  H  H27  1  0.70447000  0.58894000  0.89600000  1
  H  H28  1  0.87760000  0.13916000  0.80995000  1
  H  H29  1  0.66131000  0.79507000  0.84663000  1
  H  H30  1  0.72785000  0.80821000  0.71838000  1
  H  H31  1  0.81023000  0.61867000  0.64538000  1
  H  H32  1  0.53800000  0.59184000  0.72003000  1
  H  H33  1  0.18023000  0.53634000  0.31264000  1
  H  H34  1  0.83236000  0.92001000  0.77749000  1
  H  H35  1  0.89884000  0.81203000  0.66371000  1
  H  H36  1  0.12646000  0.69638000  0.63374000  1
  H  H37  1  0.16068000  0.26479000  0.21758000  1
  H  H38  1  0.18244000  0.30343000  0.33661000  1
  H  H39  1  0.54261000  0.13501000  0.18943000  1
  H  H40  1  0.53286000  0.29666000  0.17145000  1
  H  H41  1  0.56065000  0.31964000  0.28976000  1
  H  H42  1  0.03102000  0.47719000  0.26151000  1
  H  H43  1  0.08116000  0.28990000  0.70444000  1
  H  H44  1  0.01579000  0.36560000  0.61725000  1
  H  H45  1  0.19312000  0.26515000  0.63009000  1
  H  H46  1  0.01694000  0.53238000  0.71365000  1
  H  H47  1  0.09210000  0.52730000  0.63056000  1
  H  H48  1  0.98630000  0.51504000  0.83057000  1
  H  H49  1  0.00205000  0.58942000  0.91452000  1
  H  H50  1  0.92665000  0.69476000  0.84092000  1
  H  H51  1  0.19956000  0.59469000  0.87359000  1
  H  H52  1  0.12494000  0.64659000  0.78958000  1
  H  H53  1  0.98083000  0.00053000  0.59149000  1
  H  H54  1  0.00263000  0.81505000  0.98224000  1
  H  H55  1  0.47648000  0.56558000  0.96802000  1
  C  C56  1  0.35497000  0.76314000  0.39044000  1
  C  C57  1  0.48564000  0.24508000  0.20286000  1
  C  C58  1  0.33030000  0.30595000  0.18498000  1
  C  C59  1  0.36200000  0.33424000  0.32071000  1
  C  C60  1  0.28521000  0.25084000  0.31087000  1
  C  C61  1  0.50393000  0.26067000  0.28235000  1
  C  C62  1  0.82887000  0.31259000  0.17252000  1
  C  C63  1  0.84965000  0.20014000  0.21551000  1
  C  C64  1  0.85013000  0.21323000  0.29089000  1
  C  C65  1  0.77015000  0.45521000  0.27663000  1
  C  C66  1  0.77807000  0.44052000  0.20396000  1
  C  C67  1  0.38421000  0.34991000  0.39711000  1
  C  C68  1  0.86720000  0.07638000  0.18629000  1
  C  C69  1  0.89409000  0.96643000  0.23005000  1
  C  C70  1  0.90622000  0.97612000  0.30313000  1
  C  C71  1  0.88852000  0.09683000  0.33333333  1
  C  C72  1  0.80896000  0.34301000  0.32138000  1
  C  C73  1  0.33386000  0.81970000  0.16498000  1
  C  C74  1  0.44759000  0.81557000  0.20246000  1
  C  C75  1  0.44374000  0.82364000  0.27810000  1
  C  C76  1  0.23802000  0.79711000  0.27590000  1
  C  C77  1  0.23432000  0.80382000  0.20274000  1
  C  C78  1  0.76751000  0.37494000  0.39623000  1
  C  C79  1  0.56496000  0.80393000  0.16670000  1
  C  C80  1  0.66732000  0.81684000  0.20345000  1
  C  C81  1  0.65429000  0.84319000  0.27623000  1
  C  C82  1  0.54344000  0.84717000  0.31344000  1
  C  C83  1  0.34075000  0.80720000  0.31527000  1
  C  C84  1  0.34410000  0.35416000  0.83508000  1
  C  C85  1  0.46852000  0.27718000  0.79802000  1
  C  C86  1  0.45604000  0.24879000  0.72613000  1
  C  C87  1  0.23299000  0.43362000  0.71936000  1
  C  C88  1  0.23151000  0.44338000  0.79507000  1
  C  C89  1  0.37522000  0.71030000  0.60741000  1
  C  C90  1  0.58112000  0.17940000  0.83413000  1
  C  C91  1  0.60118000  0.04853000  0.82412000  1
  C  C92  1  0.53983000  0.02091000  0.76510000  1
  C  C93  1  0.48911000  0.11435000  0.71033000  1
  C  C94  1  0.35487000  0.34811000  0.68503000  1
  C  C95  1  0.82532000  0.34672000  0.82849000  1
  C  C96  1  0.77937000  0.47275000  0.79762000  1
  C  C97  1  0.79009000  0.48191000  0.72380000  1
  C  C98  1  0.83779000  0.24599000  0.71306000  1
  C  C99  1  0.84685000  0.23553000  0.78625000  1
  C  C100  1  0.38082000  0.35996000  0.60891000  1
  C  C101  1  0.72720000  0.58978000  0.83998000  1
  C  C102  1  0.70042000  0.71114000  0.81116000  1
  C  C103  1  0.73401000  0.71770000  0.74070000  1
  C  C104  1  0.77579000  0.60628000  0.69710000  1
  C  C105  1  0.80793000  0.36933000  0.68079000  1
  C  C106  1  0.29485000  0.83516000  0.82081000  1
  C  C107  1  0.17530000  0.84369000  0.78232000  1
  C  C108  1  0.20607000  0.78934000  0.71224000  1
  C  C109  1  0.44696000  0.68106000  0.73541000  1
  C  C110  1  0.41580000  0.71755000  0.80731000  1
  C  C111  1  0.76311000  0.38973000  0.60668000  1
  C  C112  1  0.03316000  0.88694000  0.80874000  1
  C  C113  1  0.93559000  0.88768000  0.76131000  1
  C  C114  1  0.97215000  0.82403000  0.69696000  1
  C  C115  1  0.10533000  0.76688000  0.67627000  1
  C  C116  1  0.34401000  0.73922000  0.68476000  1
  C  C117  1  0.89574000  0.29725000  0.10271000  1
  C  C118  1  0.31423000  0.27875000  0.10959000  1
  C  C119  1  0.29406000  0.88173000  0.09381000  1
  C  C120  1  0.89132000  0.32293000  0.89764000  1
  C  C121  1  0.31377000  0.30514000  0.90402000  1
  C  C122  1  0.26011000  0.46103000  0.20471000  1
  C  C123  1  0.28052000  0.91395000  0.88559000  1
  C  C124  1  0.28006000  0.47573000  0.28503000  1
  C  C125  1  0.27014000  0.23049000  0.23089000  1
  C  C126  1  0.10961000  0.54578000  0.18334000  1
  C  C127  1  0.10320000  0.46894000  0.67932000  1
  C  C128  1  0.09776000  0.33955000  0.65711000  1
  C  C129  1  0.14312000  0.57451000  0.83029000  1
  C  C130  1  0.00641000  0.59283000  0.85570000  1
  C  C131  1  0.86482000  0.12688000  0.66965000  1
  C  C132  1  0.97809000  0.89556000  0.88371000  1
  C  C133  1  0.46340000  0.61153000  0.86346000  1
  O  O134  1  0.74431000  0.49266000  0.41857000  1
  O  O135  1  0.30418000  0.47549000  0.57595000  1
  O  O136  1  0.49574000  0.26363000  0.58519000  1
  O  O137  1  0.72273000  0.30878000  0.57782000  1
  O  O138  1  0.50001000  0.50001000  0.50002000  1
  O  O139  1  0.17455000  0.91043000  0.06941000  1
  O  O140  1  0.94574000  0.18130000  0.07014000  1
  O  O141  1  0.92299000  0.39369000  0.08448000  1
  O  O142  1  0.19346000  0.35327000  0.08244000  1
  O  O143  1  0.40676000  0.16271000  0.08476000  1
  O  O144  1  0.36469000  0.93468000  0.06842000  1
  O  O145  1  0.47262000  0.71964000  0.42109000  1
  O  O146  1  0.17138000  0.93153000  0.90815000  1
  O  O147  1  0.94280000  0.20085000  0.92065000  1
  O  O148  1  0.91982000  0.41478000  0.92323000  1
  O  O149  1  0.19052000  0.37283000  0.93295000  1
  O  O150  1  0.40359000  0.18380000  0.92350000  1
  O  O151  1  0.36176000  0.95423000  0.91893000  1
  O  O152  1  0.16648000  0.16616000  0.99889000  1
  O  O153  1  0.26039000  0.73940000  0.41542000  1
  O  O154  1  0.30495000  0.46763000  0.42617000  1
  O  O155  1  0.49657000  0.25515000  0.42362000  1
  O  O156  1  0.72350000  0.30092000  0.42805000  1
  O  O157  1  0.74348000  0.50114000  0.58014000  1
  O  O158  1  0.47185000  0.72751000  0.57086000  1
  O  O159  1  0.25956000  0.74789000  0.57699000  1
  O  O160  1  0.08143000  0.62345000  0.13312000  1
  O  O161  1  0.00183000  0.53891000  0.21881000  1
  O  O162  1  0.77544000  0.09247000  0.66370000  1
  O  O163  1  0.98220000  0.06869000  0.62676000  1
  O  O164  1  0.86709000  0.98986000  0.90059000  1
  O  O165  1  0.05180000  0.79670000  0.93470000  1
  O  O166  1  0.52022000  0.49185000  0.84669000  1
  O  O167  1  0.44025000  0.64742000  0.93552000  1
