# generated using pymatgen
data_ZnH11C19NO4
_symmetry_space_group_name_H-M   'P 1'
_cell_length_a   8.23719000
_cell_length_b   14.90047000
_cell_length_c   14.98914000
_cell_angle_alpha   89.99324000
_cell_angle_beta   97.30564000
_cell_angle_gamma   89.94270000
_symmetry_Int_Tables_number   1
_chemical_formula_structural   ZnH11C19NO4
_chemical_formula_sum   'Zn4 H44 C76 N4 O16'
_cell_volume   1824.80101959
_cell_formula_units_Z   4
loop_
 _symmetry_equiv_pos_site_id
 _symmetry_equiv_pos_as_xyz
  1  'x, y, z'
loop_
 _atom_site_type_symbol
 _atom_site_label
 _atom_site_symmetry_multiplicity
 _atom_site_fract_x
 _atom_site_fract_y
 _atom_site_fract_z
 _atom_site_occupancy
  Zn  Zn0  1  0.98775000  0.72983000  0.74403000  1
  Zn  Zn1  1  0.51115000  0.22977000  0.25334000  1
  Zn  Zn2  1  0.01224000  0.27017000  0.25598000  1
  Zn  Zn3  1  0.48884000  0.77024000  0.74667000  1
  H  H4  1  0.10572000  0.87587000  0.63264000  1
  H  H5  1  0.00385000  0.12922000  0.75276000  1
  H  H6  1  0.87153000  0.87467000  0.86025000  1
  H  H7  1  0.29947000  0.95095000  0.58340000  1
  H  H8  1  0.39438000  0.02710000  0.45167000  1
  H  H9  1  0.08167000  0.25123000  0.48528000  1
  H  H10  1  0.97244000  0.17331000  0.61139000  1
  H  H11  1  0.69072000  0.95364000  0.91605000  1
  H  H12  1  0.60619000  0.02760000  0.05156000  1
  H  H13  1  0.93834000  0.24419000  0.02396000  1
  H  H14  1  0.03693000  0.16759000  0.89416000  1
  H  H15  1  0.39434000  0.37562000  0.36619000  1
  H  H16  1  0.49639000  0.62930000  0.24666000  1
  H  H17  1  0.62844000  0.37486000  0.13872000  1
  H  H18  1  0.20150000  0.45100000  0.41629000  1
  H  H19  1  0.10691000  0.52683000  0.54802000  1
  H  H20  1  0.42014000  0.75064000  0.51476000  1
  H  H21  1  0.52862000  0.67288000  0.38843000  1
  H  H22  1  0.81006000  0.45354000  0.08363000  1
  H  H23  1  0.89489000  0.52745000  0.94805000  1
  H  H24  1  0.56379000  0.74476000  0.97573000  1
  H  H25  1  0.46442000  0.66827000  0.10529000  1
  H  H26  1  0.89427000  0.12414000  0.36736000  1
  H  H27  1  0.99614000  0.87078000  0.24725000  1
  H  H28  1  0.12846000  0.12533000  0.13976000  1
  H  H29  1  0.70053000  0.04905000  0.41660000  1
  H  H30  1  0.60561000  0.97291000  0.54833000  1
  H  H31  1  0.91832000  0.74877000  0.51473000  1
  H  H32  1  0.02755000  0.82669000  0.38861000  1
  H  H33  1  0.30928000  0.04636000  0.08395000  1
  H  H34  1  0.39380000  0.97240000  0.94844000  1
  H  H35  1  0.06166000  0.75581000  0.97605000  1
  H  H36  1  0.96306000  0.83242000  0.10584000  1
  H  H37  1  0.60565000  0.62438000  0.63381000  1
  H  H38  1  0.50360000  0.37071000  0.75334000  1
  H  H39  1  0.37155000  0.62514000  0.86128000  1
  H  H40  1  0.79849000  0.54900000  0.58372000  1
  H  H41  1  0.89309000  0.47317000  0.45198000  1
  H  H42  1  0.57985000  0.24937000  0.48524000  1
  H  H43  1  0.47137000  0.32712000  0.61157000  1
  H  H44  1  0.18993000  0.54646000  0.91637000  1
  H  H45  1  0.10510000  0.47255000  0.05195000  1
  H  H46  1  0.43620000  0.25524000  0.02427000  1
  H  H47  1  0.53558000  0.33173000  0.89471000  1
  C  C48  1  0.05597000  0.91601000  0.68312000  1
  C  C49  1  0.06205000  0.00988000  0.68148000  1
  C  C50  1  0.99908000  0.05622000  0.75089000  1
  C  C51  1  0.93059000  0.00925000  0.81805000  1
  C  C52  1  0.92599000  0.91542000  0.81190000  1
  C  C53  1  0.12833000  0.05650000  0.60702000  1
  C  C54  1  0.24860000  0.01596000  0.56131000  1
  C  C55  1  0.30468000  0.05901000  0.48857000  1
  C  C56  1  0.24504000  0.14407000  0.46104000  1
  C  C57  1  0.12758000  0.18545000  0.50747000  1
  C  C58  1  0.06870000  0.14184000  0.57884000  1
  C  C59  1  0.29941000  0.19089000  0.38181000  1
  C  C60  1  0.87080000  0.05498000  0.89509000  1
  C  C61  1  0.74838000  0.01628000  0.94034000  1
  C  C62  1  0.69814000  0.05818000  0.01535000  1
  C  C63  1  0.76602000  0.14066000  0.04572000  1
  C  C64  1  0.88601000  0.18028000  0.99995000  1
  C  C65  1  0.93908000  0.13754000  0.92637000  1
  C  C66  1  0.71493000  0.18690000  0.12615000  1
  C  C67  1  0.44431000  0.41591000  0.31592000  1
  C  C68  1  0.43821000  0.50980000  0.31775000  1
  C  C69  1  0.50098000  0.55629000  0.24837000  1
  C  C70  1  0.56970000  0.50942000  0.18120000  1
  C  C71  1  0.57419000  0.41560000  0.18714000  1
  C  C72  1  0.37262000  0.55628000  0.39255000  1
  C  C73  1  0.25257000  0.51585000  0.43836000  1
  C  C74  1  0.19655000  0.55881000  0.51121000  1
  C  C75  1  0.25638000  0.64373000  0.53889000  1
  C  C76  1  0.37384000  0.68498000  0.49247000  1
  C  C77  1  0.43248000  0.64143000  0.42097000  1
  C  C78  1  0.20154000  0.69062000  0.61794000  1
  C  C79  1  0.63015000  0.55524000  0.10445000  1
  C  C80  1  0.75273000  0.51633000  0.05932000  1
  C  C81  1  0.80322000  0.55821000  0.98441000  1
  C  C82  1  0.73555000  0.64077000  0.95403000  1
  C  C83  1  0.61576000  0.68074000  0.99982000  1
  C  C84  1  0.56237000  0.63801000  0.07325000  1
  C  C85  1  0.78620000  0.68679000  0.87342000  1
  C  C86  1  0.94402000  0.08399000  0.31689000  1
  C  C87  1  0.93794000  0.99012000  0.31852000  1
  C  C88  1  0.00091000  0.94378000  0.24911000  1
  C  C89  1  0.06941000  0.99075000  0.18195000  1
  C  C90  1  0.07400000  0.08458000  0.18810000  1
  C  C91  1  0.87166000  0.94350000  0.39298000  1
  C  C92  1  0.75139000  0.98405000  0.43869000  1
  C  C93  1  0.69532000  0.94099000  0.51144000  1
  C  C94  1  0.75495000  0.85593000  0.53896000  1
  C  C95  1  0.87241000  0.81456000  0.49253000  1
  C  C96  1  0.93129000  0.85817000  0.42116000  1
  C  C97  1  0.70058000  0.80911000  0.61819000  1
  C  C98  1  0.12919000  0.94503000  0.10491000  1
  C  C99  1  0.25162000  0.98372000  0.05966000  1
  C  C100  1  0.30186000  0.94182000  0.98465000  1
  C  C101  1  0.23397000  0.85934000  0.95428000  1
  C  C102  1  0.11398000  0.81972000  0.00005000  1
  C  C103  1  0.06092000  0.86247000  0.07363000  1
  C  C104  1  0.28506000  0.81310000  0.87385000  1
  C  C105  1  0.55569000  0.58409000  0.68409000  1
  C  C106  1  0.56178000  0.49020000  0.68225000  1
  C  C107  1  0.49902000  0.44372000  0.75163000  1
  C  C108  1  0.43029000  0.49058000  0.81881000  1
  C  C109  1  0.42580000  0.58440000  0.81286000  1
  C  C110  1  0.62737000  0.44372000  0.60745000  1
  C  C111  1  0.74742000  0.48415000  0.56164000  1
  C  C112  1  0.80345000  0.44119000  0.48879000  1
  C  C113  1  0.74361000  0.35627000  0.46111000  1
  C  C114  1  0.62615000  0.31502000  0.50753000  1
  C  C115  1  0.56752000  0.35857000  0.57903000  1
  C  C116  1  0.79846000  0.30938000  0.38206000  1
  C  C117  1  0.36984000  0.44476000  0.89555000  1
  C  C118  1  0.24726000  0.48367000  0.94068000  1
  C  C119  1  0.19678000  0.44179000  0.01559000  1
  C  C120  1  0.26444000  0.35923000  0.04597000  1
  C  C121  1  0.38423000  0.31926000  0.00018000  1
  C  C122  1  0.43763000  0.36200000  0.92675000  1
  C  C123  1  0.21379000  0.31321000  0.12659000  1
  N  N124  1  0.98886000  0.86991000  0.74654000  1
  N  N125  1  0.51150000  0.36994000  0.25242000  1
  N  N126  1  0.01114000  0.13009000  0.25346000  1
  N  N127  1  0.48849000  0.63006000  0.74759000  1
  O  O128  1  0.60036000  0.15012000  0.16461000  1
  O  O129  1  0.78459000  0.25991000  0.15181000  1
  O  O130  1  0.41419000  0.15444000  0.34382000  1
  O  O131  1  0.23023000  0.26450000  0.35664000  1
  O  O132  1  0.90202000  0.65080000  0.83538000  1
  O  O133  1  0.71463000  0.75952000  0.84760000  1
  O  O134  1  0.08646000  0.65404000  0.65568000  1
  O  O135  1  0.26993000  0.76423000  0.64322000  1
  O  O136  1  0.39963000  0.84988000  0.83540000  1
  O  O137  1  0.21540000  0.74009000  0.84819000  1
  O  O138  1  0.58581000  0.84557000  0.65618000  1
  O  O139  1  0.76976000  0.73550000  0.64337000  1
  O  O140  1  0.09797000  0.34920000  0.16462000  1
  O  O141  1  0.28536000  0.24049000  0.15240000  1
  O  O142  1  0.91353000  0.34596000  0.34432000  1
  O  O143  1  0.73006000  0.23577000  0.35678000  1
