# generated using pymatgen
data_ZnH6(C3N2)2
_symmetry_space_group_name_H-M   'P 1'
_cell_length_a   19.46573000
_cell_length_b   27.25262000
_cell_length_c   27.26306000
_cell_angle_alpha   89.99953000
_cell_angle_beta   89.90042000
_cell_angle_gamma   90.23865000
_symmetry_Int_Tables_number   1
_chemical_formula_structural   ZnH6(C3N2)2
_chemical_formula_sum   'Zn32 H192 C192 N128'
_cell_volume   14462.69181263
_cell_formula_units_Z   32
loop_
 _symmetry_equiv_pos_site_id
 _symmetry_equiv_pos_as_xyz
  1  'x, y, z'
loop_
 _atom_site_type_symbol
 _atom_site_label
 _atom_site_symmetry_multiplicity
 _atom_site_fract_x
 _atom_site_fract_y
 _atom_site_fract_z
 _atom_site_occupancy
  Zn  Zn1  1  0.15470000  0.26775000  0.11081000  1.0
  Zn  Zn2  1  0.15476000  0.88945000  0.26796000  1.0
  Zn  Zn3  1  0.15693000  0.73221000  0.88909000  1.0
  Zn  Zn4  1  0.15451000  0.11085000  0.73188000  1.0
  Zn  Zn5  1  0.84534000  0.26816000  0.88889000  1.0
  Zn  Zn6  1  0.84513000  0.11060000  0.26760000  1.0
  Zn  Zn7  1  0.84533000  0.73188000  0.11058000  1.0
  Zn  Zn8  1  0.84539000  0.88897000  0.73191000  1.0
  Zn  Zn9  1  0.84565000  0.73206000  0.88905000  1.0
  Zn  Zn10  1  0.84525000  0.11071000  0.73186000  1.0
  Zn  Zn11  1  0.84519000  0.26821000  0.11078000  1.0
  Zn  Zn12  1  0.84486000  0.88942000  0.26788000  1.0
  Zn  Zn13  1  0.15481000  0.73197000  0.11064000  1.0
  Zn  Zn14  1  0.15469000  0.88909000  0.73210000  1.0
  Zn  Zn15  1  0.15502000  0.26780000  0.88913000  1.0
  Zn  Zn16  1  0.15525000  0.11066000  0.26779000  1.0
  Zn  Zn17  1  0.65498000  0.76786000  0.61077000  1.0
  Zn  Zn18  1  0.65467000  0.38889000  0.76804000  1.0
  Zn  Zn19  1  0.65471000  0.23219000  0.38915000  1.0
  Zn  Zn20  1  0.65485000  0.61080000  0.23203000  1.0
  Zn  Zn21  1  0.34512000  0.76791000  0.38931000  1.0
  Zn  Zn22  1  0.34559000  0.61080000  0.76783000  1.0
  Zn  Zn23  1  0.34527000  0.23209000  0.61101000  1.0
  Zn  Zn24  1  0.34542000  0.38924000  0.23224000  1.0
  Zn  Zn25  1  0.34521000  0.23219000  0.38936000  1.0
  Zn  Zn26  1  0.34535000  0.61085000  0.23217000  1.0
  Zn  Zn27  1  0.34529000  0.76797000  0.61075000  1.0
  Zn  Zn28  1  0.34549000  0.38914000  0.76774000  1.0
  Zn  Zn29  1  0.65479000  0.23214000  0.61115000  1.0
  Zn  Zn30  1  0.65497000  0.38921000  0.23202000  1.0
  Zn  Zn31  1  0.65480000  0.76775000  0.38955000  1.0
  Zn  Zn32  1  0.65450000  0.61097000  0.76822000  1.0
  H  H1  1  0.20817000  0.37443000  0.06787000  1.0
  H  H2  1  0.25043000  0.29983000  0.19964000  1.0
  H  H3  1  0.09386000  0.19285000  0.19299000  1.0
  H  H4  1  0.29488000  0.21073000  0.13809000  1.0
  H  H5  1  0.24017000  0.18816000  0.05109000  1.0
  H  H6  1  0.07183000  0.33687000  0.18508000  1.0
  H  H7  1  0.10590000  0.29751000  0.99983000  1.0
  H  H8  1  0.99929000  0.24095000  0.07537000  1.0
  H  H9  1  0.20750000  0.93217000  0.37435000  1.0
  H  H10  1  0.24916000  0.79982000  0.30046000  1.0
  H  H11  1  0.09219000  0.80682000  0.19279000  1.0
  H  H12  1  0.29324000  0.86179000  0.21068000  1.0
  H  H13  1  0.24388000  0.94910000  0.18833000  1.0
  H  H14  1  0.07076000  0.84383000  0.35801000  1.0
  H  H15  1  0.10687000  0.00023000  0.29642000  1.0
  H  H16  1  0.00009000  0.91118000  0.22866000  1.0
  H  H17  1  0.20877000  0.62570000  0.93250000  1.0
  H  H18  1  0.24926000  0.69837000  0.79906000  1.0
  H  H19  1  0.09491000  0.80496000  0.80639000  1.0
  H  H20  1  0.29575000  0.79306000  0.86253000  1.0
  H  H21  1  0.24340000  0.81168000  0.94920000  1.0
  H  H22  1  0.07254000  0.66375000  0.81506000  1.0
  H  H23  1  0.10616000  0.70288000  0.99980000  1.0
  H  H24  1  0.00122000  0.75984000  0.92473000  1.0
  H  H25  1  0.20781000  0.06717000  0.62499000  1.0
  H  H26  1  0.25009000  0.19941000  0.69933000  1.0
  H  H27  1  0.09433000  0.19557000  0.80533000  1.0
  H  H28  1  0.29176000  0.13395000  0.79277000  1.0
  H  H29  1  0.18591000  0.05122000  0.83015000  1.0
  H  H30  1  0.07186000  0.16089000  0.64300000  1.0
  H  H31  1  0.14066000  0.99994000  0.68814000  1.0
  H  H32  1  0.99955000  0.09137000  0.77116000  1.0
  H  H33  1  0.79286000  0.37464000  0.93203000  1.0
  H  H34  1  0.75050000  0.30060000  0.79975000  1.0
  H  H35  1  0.90693000  0.19623000  0.80370000  1.0
  H  H36  1  0.71015000  0.20405000  0.86781000  1.0
  H  H37  1  0.81626000  0.16985000  0.94892000  1.0
  H  H38  1  0.92967000  0.33723000  0.81482000  1.0
  H  H39  1  0.85874000  0.31263000  0.99975000  1.0
  H  H40  1  0.99961000  0.24069000  0.92442000  1.0
  H  H41  1  0.79230000  0.06815000  0.37420000  1.0
  H  H42  1  0.75093000  0.20028000  0.29994000  1.0
  H  H43  1  0.90720000  0.19457000  0.19378000  1.0
  H  H44  1  0.70737000  0.13603000  0.20800000  1.0
  H  H45  1  0.75601000  0.05082000  0.18821000  1.0
  H  H46  1  0.92855000  0.15619000  0.35755000  1.0
  H  H47  1  0.89330000  0.99987000  0.29585000  1.0
  H  H48  1  0.00004000  0.08941000  0.22796000  1.0
  H  H49  1  0.79227000  0.62512000  0.06735000  1.0
  H  H50  1  0.75048000  0.69932000  0.19964000  1.0
  H  H51  1  0.90712000  0.80544000  0.19541000  1.0
  H  H52  1  0.70945000  0.79270000  0.13381000  1.0
  H  H53  1  0.81377000  0.83027000  0.05094000  1.0
  H  H54  1  0.92784000  0.64222000  0.15839000  1.0
  H  H55  1  0.85732000  0.68797000  0.99985000  1.0
  H  H56  1  0.00023000  0.77085000  0.08983000  1.0
  H  H57  1  0.79256000  0.93276000  0.62529000  1.0
  H  H58  1  0.74908000  0.80059000  0.69950000  1.0
  H  H59  1  0.90609000  0.80395000  0.80328000  1.0
  H  H60  1  0.70900000  0.86688000  0.79577000  1.0
  H  H61  1  0.81435000  0.94846000  0.83025000  1.0
  H  H62  1  0.92838000  0.81290000  0.66406000  1.0
  H  H63  1  0.85890000  0.99996000  0.68812000  1.0
  H  H64  1  0.00008000  0.92441000  0.75823000  1.0
  H  H65  1  0.79302000  0.62500000  0.93207000  1.0
  H  H66  1  0.75065000  0.69946000  0.80017000  1.0
  H  H67  1  0.70969000  0.79507000  0.86810000  1.0
  H  H68  1  0.81455000  0.83035000  0.94880000  1.0
  H  H69  1  0.92960000  0.66345000  0.81519000  1.0
  H  H70  1  0.79285000  0.06819000  0.62476000  1.0
  H  H71  1  0.74811000  0.19880000  0.70087000  1.0
  H  H72  1  0.71031000  0.13131000  0.79638000  1.0
  H  H73  1  0.81390000  0.05063000  0.83039000  1.0
  H  H74  1  0.92862000  0.16064000  0.64293000  1.0
  H  H75  1  0.79255000  0.37466000  0.06738000  1.0
  H  H76  1  0.74970000  0.30059000  0.19970000  1.0
  H  H77  1  0.70793000  0.20720000  0.13517000  1.0
  H  H78  1  0.81633000  0.16998000  0.05107000  1.0
  H  H79  1  0.92884000  0.33732000  0.18501000  1.0
  H  H80  1  0.79139000  0.93295000  0.37406000  1.0
  H  H81  1  0.75186000  0.79944000  0.30145000  1.0
  H  H82  1  0.70715000  0.86292000  0.20752000  1.0
  H  H83  1  0.75449000  0.94904000  0.18877000  1.0
  H  H84  1  0.92771000  0.84372000  0.35796000  1.0
  H  H85  1  0.20828000  0.62589000  0.06772000  1.0
  H  H86  1  0.25005000  0.70007000  0.19998000  1.0
  H  H87  1  0.29346000  0.79020000  0.13836000  1.0
  H  H88  1  0.24247000  0.81177000  0.05100000  1.0
  H  H89  1  0.07098000  0.64232000  0.15881000  1.0
  H  H90  1  0.20665000  0.93180000  0.62469000  1.0
  H  H91  1  0.25262000  0.80150000  0.70081000  1.0
  H  H92  1  0.29290000  0.86646000  0.79193000  1.0
  H  H93  1  0.18454000  0.94905000  0.83041000  1.0
  H  H94  1  0.07146000  0.81308000  0.66415000  1.0
  H  H95  1  0.20885000  0.37427000  0.93257000  1.0
  H  H96  1  0.24862000  0.30118000  0.79937000  1.0
  H  H97  1  0.29409000  0.20705000  0.86364000  1.0
  H  H98  1  0.24113000  0.18821000  0.94932000  1.0
  H  H99  1  0.07271000  0.33675000  0.81494000  1.0
  H  H100  1  0.20823000  0.06721000  0.37405000  1.0
  H  H101  1  0.24778000  0.20095000  0.30171000  1.0
  H  H102  1  0.29512000  0.13934000  0.21068000  1.0
  H  H103  1  0.24505000  0.05096000  0.18851000  1.0
  H  H104  1  0.07163000  0.15619000  0.35762000  1.0
  H  H105  1  0.70737000  0.87524000  0.56764000  1.0
  H  H106  1  0.59404000  0.69636000  0.69725000  1.0
  H  H107  1  0.79013000  0.70438000  0.63180000  1.0
  H  H108  1  0.68839000  0.66918000  0.55140000  1.0
  H  H109  1  0.57228000  0.85723000  0.65842000  1.0
  H  H110  1  0.64379000  0.81116000  0.50017000  1.0
  H  H111  1  0.50005000  0.72837000  0.59025000  1.0
  H  H112  1  0.70751000  0.43201000  0.87490000  1.0
  H  H113  1  0.59463000  0.30554000  0.69427000  1.0
  H  H114  1  0.79365000  0.36550000  0.70739000  1.0
  H  H115  1  0.68418000  0.44886000  0.67037000  1.0
  H  H116  1  0.57083000  0.31296000  0.83599000  1.0
  H  H117  1  0.64112000  0.49993000  0.81281000  1.0
  H  H118  1  0.50051000  0.42406000  0.74131000  1.0
  H  H119  1  0.70748000  0.12600000  0.43195000  1.0
  H  H120  1  0.59366000  0.30516000  0.30587000  1.0
  H  H121  1  0.79331000  0.29320000  0.36393000  1.0
  H  H122  1  0.74085000  0.31157000  0.44922000  1.0
  H  H123  1  0.57133000  0.16318000  0.31494000  1.0
  H  H124  1  0.60517000  0.20199000  0.50020000  1.0
  H  H125  1  0.49982000  0.25937000  0.42459000  1.0
  H  H126  1  0.70702000  0.56748000  0.12508000  1.0
  H  H127  1  0.59361000  0.69617000  0.30320000  1.0
  H  H128  1  0.79036000  0.63270000  0.29579000  1.0
  H  H129  1  0.68606000  0.55114000  0.33028000  1.0
  H  H130  1  0.57215000  0.68482000  0.16289000  1.0
  H  H131  1  0.64412000  0.50003000  0.18770000  1.0
  H  H132  1  0.50028000  0.57498000  0.25902000  1.0
  H  H133  1  0.29221000  0.87452000  0.43218000  1.0
  H  H134  1  0.40674000  0.69280000  0.30727000  1.0
  H  H135  1  0.20531000  0.71052000  0.36118000  1.0
  H  H136  1  0.25545000  0.68898000  0.44932000  1.0
  H  H137  1  0.42931000  0.85720000  0.34131000  1.0
  H  H138  1  0.39401000  0.79670000  0.49997000  1.0
  H  H139  1  0.49987000  0.72842000  0.41003000  1.0
  H  H140  1  0.29322000  0.56763000  0.87491000  1.0
  H  H141  1  0.40682000  0.69491000  0.69446000  1.0
  H  H142  1  0.20826000  0.63409000  0.70722000  1.0
  H  H143  1  0.31705000  0.55116000  0.66924000  1.0
  H  H144  1  0.42859000  0.68685000  0.83604000  1.0
  H  H145  1  0.36100000  0.49991000  0.81136000  1.0
  H  H146  1  0.50007000  0.57554000  0.74197000  1.0
  H  H147  1  0.29321000  0.12493000  0.56752000  1.0
  H  H148  1  0.40579000  0.30396000  0.69595000  1.0
  H  H149  1  0.20878000  0.29533000  0.63259000  1.0
  H  H150  1  0.31617000  0.33043000  0.55144000  1.0
  H  H151  1  0.42806000  0.16278000  0.68514000  1.0
  H  H152  1  0.35883000  0.18807000  0.50018000  1.0
  H  H153  1  0.50002000  0.25978000  0.57611000  1.0
  H  H154  1  0.29262000  0.43247000  0.12602000  1.0
  H  H155  1  0.40687000  0.30578000  0.30592000  1.0
  H  H156  1  0.20735000  0.36365000  0.29259000  1.0
  H  H157  1  0.25778000  0.44927000  0.31191000  1.0
  H  H158  1  0.42857000  0.34138000  0.14271000  1.0
  H  H159  1  0.39554000  0.49978000  0.20366000  1.0
  H  H160  1  0.50048000  0.40933000  0.27173000  1.0
  H  H161  1  0.29345000  0.12470000  0.43201000  1.0
  H  H162  1  0.20793000  0.29290000  0.36583000  1.0
  H  H163  1  0.31691000  0.33065000  0.44928000  1.0
  H  H164  1  0.42829000  0.16289000  0.31520000  1.0
  H  H165  1  0.29270000  0.56816000  0.12569000  1.0
  H  H166  1  0.20540000  0.63859000  0.28916000  1.0
  H  H167  1  0.25796000  0.55109000  0.31131000  1.0
  H  H168  1  0.42915000  0.68498000  0.16329000  1.0
  H  H169  1  0.29192000  0.87415000  0.56730000  1.0
  H  H170  1  0.20688000  0.70781000  0.63693000  1.0
  H  H171  1  0.25544000  0.68904000  0.55108000  1.0
  H  H172  1  0.42911000  0.85708000  0.65894000  1.0
  H  H173  1  0.29374000  0.43226000  0.87477000  1.0
  H  H174  1  0.20943000  0.36802000  0.70405000  1.0
  H  H175  1  0.31702000  0.44897000  0.66902000  1.0
  H  H176  1  0.42777000  0.31313000  0.83585000  1.0
  H  H177  1  0.70766000  0.12599000  0.56771000  1.0
  H  H178  1  0.79473000  0.29218000  0.63671000  1.0
  H  H179  1  0.74123000  0.31128000  0.55098000  1.0
  H  H180  1  0.57108000  0.16318000  0.68534000  1.0
  H  H181  1  0.70743000  0.43219000  0.12477000  1.0
  H  H182  1  0.79223000  0.36611000  0.29285000  1.0
  H  H183  1  0.68655000  0.44892000  0.33008000  1.0
  H  H184  1  0.57173000  0.34174000  0.14251000  1.0
  H  H185  1  0.70612000  0.87534000  0.43209000  1.0
  H  H186  1  0.78949000  0.70413000  0.36847000  1.0
  H  H187  1  0.68768000  0.66887000  0.44926000  1.0
  H  H188  1  0.57250000  0.85729000  0.34200000  1.0
  H  H189  1  0.70741000  0.56750000  0.87473000  1.0
  H  H190  1  0.79031000  0.63214000  0.70372000  1.0
  H  H191  1  0.68389000  0.55108000  0.67026000  1.0
  H  H192  1  0.57165000  0.68701000  0.83622000  1.0
  C  C1  1  0.22930000  0.36755000  0.10390000  1.0
  C  C2  1  0.25027000  0.32811000  0.17170000  1.0
  C  C3  1  0.14853000  0.18763000  0.18763000  1.0
  C  C4  1  0.25300000  0.19608000  0.15991000  1.0
  C  C5  1  0.21279000  0.21111000  0.02534000  1.0
  C  C6  1  0.03555000  0.31686000  0.16255000  1.0
  C  C7  1  0.14295000  0.26795000  0.99991000  1.0
  C  C8  1  0.99964000  0.26701000  0.10539000  1.0
  C  C9  1  0.22862000  0.89612000  0.36757000  1.0
  C  C10  1  0.24947000  0.82808000  0.32842000  1.0
  C  C11  1  0.14685000  0.81241000  0.18748000  1.0
  C  C12  1  0.25131000  0.84018000  0.19589000  1.0
  C  C13  1  0.21613000  0.97481000  0.21115000  1.0
  C  C14  1  0.03469000  0.85742000  0.33111000  1.0
  C  C15  1  0.14491000  0.00015000  0.26736000  1.0
  C  C16  1  0.99980000  0.89242000  0.26370000  1.0
  C  C17  1  0.22958000  0.63221000  0.89622000  1.0
  C  C18  1  0.24964000  0.67068000  0.82759000  1.0
  C  C19  1  0.14913000  0.81196000  0.81231000  1.0
  C  C20  1  0.25346000  0.80666000  0.84073000  1.0
  C  C21  1  0.21525000  0.78879000  0.97479000  1.0
  C  C22  1  0.03648000  0.68381000  0.83762000  1.0
  C  C23  1  0.14397000  0.73219000  0.99986000  1.0
  C  C24  1  0.00111000  0.73375000  0.89474000  1.0
  C  C25  1  0.22906000  0.10324000  0.63200000  1.0
  C  C26  1  0.25014000  0.17124000  0.67127000  1.0
  C  C27  1  0.14829000  0.18843000  0.81181000  1.0
  C  C28  1  0.25103000  0.15742000  0.80605000  1.0
  C  C29  1  0.17658000  0.02535000  0.80076000  1.0
  C  C30  1  0.03550000  0.14694000  0.66971000  1.0
  C  C31  1  0.15336000  0.00001000  0.72681000  1.0
  C  C32  1  0.99977000  0.11089000  0.73652000  1.0
  C  C33  1  0.77146000  0.36763000  0.89609000  1.0
  C  C34  1  0.75035000  0.32851000  0.82806000  1.0
  C  C35  1  0.85342000  0.18826000  0.81160000  1.0
  C  C36  1  0.75104000  0.19145000  0.84403000  1.0
  C  C37  1  0.82489000  0.19944000  0.97468000  1.0
  C  C38  1  0.96553000  0.31698000  0.83731000  1.0
  C  C39  1  0.84670000  0.27379000  0.99982000  1.0
  C  C40  1  0.99998000  0.26682000  0.89446000  1.0
  C  C41  1  0.77123000  0.10419000  0.36735000  1.0
  C  C42  1  0.75049000  0.17212000  0.32801000  1.0
  C  C43  1  0.85297000  0.18796000  0.18751000  1.0
  C  C44  1  0.74915000  0.15836000  0.19399000  1.0
  C  C45  1  0.78376000  0.02517000  0.21102000  1.0
  C  C46  1  0.96479000  0.14271000  0.33062000  1.0
  C  C47  1  0.85513000  0.99992000  0.26698000  1.0
  C  C48  1  0.00012000  0.10801000  0.26308000  1.0
  C  C49  1  0.77108000  0.63209000  0.10341000  1.0
  C  C50  1  0.75022000  0.67131000  0.17143000  1.0
  C  C51  1  0.85310000  0.81180000  0.18837000  1.0
  C  C52  1  0.75024000  0.80596000  0.15737000  1.0
  C  C53  1  0.82262000  0.80079000  0.02511000  1.0
  C  C54  1  0.96429000  0.66906000  0.14477000  1.0
  C  C55  1  0.84500000  0.72670000  0.99986000  1.0
  C  C56  1  0.00003000  0.73609000  0.10911000  1.0
  C  C57  1  0.77107000  0.89674000  0.63226000  1.0
  C  C58  1  0.74952000  0.82873000  0.67141000  1.0
  C  C59  1  0.85258000  0.81146000  0.81128000  1.0
  C  C60  1  0.75007000  0.84331000  0.80820000  1.0
  C  C61  1  0.82327000  0.97438000  0.80082000  1.0
  C  C62  1  0.96456000  0.83577000  0.68381000  1.0
  C  C63  1  0.84611000  0.99986000  0.72680000  1.0
  C  C64  1  0.00002000  0.89384000  0.73280000  1.0
  C  C65  1  0.77165000  0.63204000  0.89614000  1.0
  C  C66  1  0.75058000  0.67136000  0.82829000  1.0
  C  C67  1  0.75039000  0.80769000  0.84403000  1.0
  C  C68  1  0.82301000  0.80082000  0.97460000  1.0
  C  C69  1  0.96576000  0.68368000  0.83763000  1.0
  C  C70  1  0.77105000  0.10388000  0.63222000  1.0
  C  C71  1  0.74867000  0.17103000  0.67243000  1.0
  C  C72  1  0.75115000  0.15544000  0.80860000  1.0
  C  C73  1  0.82298000  0.02490000  0.80087000  1.0
  C  C74  1  0.96476000  0.14683000  0.66966000  1.0
  C  C75  1  0.77113000  0.36768000  0.10338000  1.0
  C  C76  1  0.74988000  0.32859000  0.17146000  1.0
  C  C77  1  0.74929000  0.19377000  0.15796000  1.0
  C  C78  1  0.82493000  0.19949000  0.02518000  1.0
  C  C79  1  0.96484000  0.31711000  0.16255000  1.0
  C  C80  1  0.77061000  0.89662000  0.36763000  1.0
  C  C81  1  0.75094000  0.82791000  0.32919000  1.0
  C  C82  1  0.74926000  0.84097000  0.19379000  1.0
  C  C83  1  0.78312000  0.97466000  0.21125000  1.0
  C  C84  1  0.96398000  0.85740000  0.33106000  1.0
  C  C85  1  0.22930000  0.63273000  0.10382000  1.0
  C  C86  1  0.25021000  0.67202000  0.17181000  1.0
  C  C87  1  0.25143000  0.80460000  0.16001000  1.0
  C  C88  1  0.21478000  0.78885000  0.02526000  1.0
  C  C89  1  0.03501000  0.66908000  0.14483000  1.0
  C  C90  1  0.22872000  0.89619000  0.63211000  1.0
  C  C91  1  0.25158000  0.82915000  0.67227000  1.0
  C  C92  1  0.25216000  0.84297000  0.80560000  1.0
  C  C93  1  0.17593000  0.97483000  0.80089000  1.0
  C  C94  1  0.03528000  0.83582000  0.68387000  1.0
  C  C95  1  0.22954000  0.36765000  0.89630000  1.0
  C  C96  1  0.24926000  0.32898000  0.82780000  1.0
  C  C97  1  0.25205000  0.19357000  0.84137000  1.0
  C  C98  1  0.21323000  0.21114000  0.97486000  1.0
  C  C99  1  0.03624000  0.31674000  0.83739000  1.0
  C  C100  1  0.22897000  0.10357000  0.36766000  1.0
  C  C101  1  0.24868000  0.17236000  0.32933000  1.0
  C  C102  1  0.25309000  0.16065000  0.19596000  1.0
  C  C103  1  0.21667000  0.02533000  0.21122000  1.0
  C  C104  1  0.03549000  0.14269000  0.33063000  1.0
  C  C105  1  0.72860000  0.86816000  0.60359000  1.0
  C  C106  1  0.64737000  0.68855000  0.68895000  1.0
  C  C107  1  0.74937000  0.69189000  0.65589000  1.0
  C  C108  1  0.67930000  0.69855000  0.52553000  1.0
  C  C109  1  0.53586000  0.83036000  0.64488000  1.0
  C  C110  1  0.65637000  0.77248000  0.50019000  1.0
  C  C111  1  0.50021000  0.76322000  0.60938000  1.0
  C  C112  1  0.72896000  0.39617000  0.86768000  1.0
  C  C113  1  0.64886000  0.31217000  0.68789000  1.0
  C  C114  1  0.75239000  0.34237000  0.69399000  1.0
  C  C115  1  0.67544000  0.47472000  0.69984000  1.0
  C  C116  1  0.53493000  0.33570000  0.81610000  1.0
  C  C117  1  0.65326000  0.49995000  0.77402000  1.0
  C  C118  1  0.50019000  0.39359000  0.76687000  1.0
  C  C119  1  0.72890000  0.13282000  0.39593000  1.0
  C  C120  1  0.64777000  0.31213000  0.31225000  1.0
  C  C121  1  0.75153000  0.30682000  0.34165000  1.0
  C  C122  1  0.71313000  0.28849000  0.47488000  1.0
  C  C123  1  0.53526000  0.18323000  0.33751000  1.0
  C  C124  1  0.64262000  0.23152000  0.50018000  1.0
  C  C125  1  0.49987000  0.23324000  0.39463000  1.0
  C  C126  1  0.72862000  0.60343000  0.13209000  1.0
  C  C127  1  0.64698000  0.68846000  0.31133000  1.0
  C  C128  1  0.74932000  0.65631000  0.30831000  1.0
  C  C129  1  0.67757000  0.52532000  0.30073000  1.0
  C  C130  1  0.53585000  0.66234000  0.18305000  1.0
  C  C131  1  0.65606000  0.50004000  0.22649000  1.0
  C  C132  1  0.50030000  0.60506000  0.23301000  1.0
  C  C133  1  0.27095000  0.86761000  0.39617000  1.0
  C  C134  1  0.35200000  0.68752000  0.31253000  1.0
  C  C135  1  0.24737000  0.69587000  0.33973000  1.0
  C  C136  1  0.28381000  0.71165000  0.47492000  1.0
  C  C137  1  0.46520000  0.83040000  0.35530000  1.0
  C  C138  1  0.35578000  0.76768000  0.50004000  1.0
  C  C139  1  0.50005000  0.76328000  0.39090000  1.0
  C  C140  1  0.27160000  0.60339000  0.86762000  1.0
  C  C141  1  0.35267000  0.68814000  0.68801000  1.0
  C  C142  1  0.24934000  0.65749000  0.69391000  1.0
  C  C143  1  0.32593000  0.52528000  0.69864000  1.0
  C  C144  1  0.46477000  0.66410000  0.81633000  1.0
  C  C145  1  0.34855000  0.49995000  0.77265000  1.0
  C  C146  1  0.50009000  0.60610000  0.76741000  1.0
  C  C147  1  0.27162000  0.13194000  0.60343000  1.0
  C  C148  1  0.35230000  0.31169000  0.68824000  1.0
  C  C149  1  0.24984000  0.30806000  0.65617000  1.0
  C  C150  1  0.32497000  0.30099000  0.52556000  1.0
  C  C151  1  0.46437000  0.18314000  0.66284000  1.0
  C  C152  1  0.34692000  0.22686000  0.50022000  1.0
  C  C153  1  0.49992000  0.23353000  0.60597000  1.0
  C  C154  1  0.27146000  0.39629000  0.13266000  1.0
  C  C155  1  0.35273000  0.31224000  0.31249000  1.0
  C  C156  1  0.24907000  0.34150000  0.30647000  1.0
  C  C157  1  0.28589000  0.47486000  0.28899000  1.0
  C  C158  1  0.46478000  0.35514000  0.16954000  1.0
  C  C159  1  0.35744000  0.49991000  0.23268000  1.0
  C  C160  1  0.50035000  0.39034000  0.23680000  1.0
  C  C161  1  0.27140000  0.13213000  0.39638000  1.0
  C  C162  1  0.24923000  0.30630000  0.34272000  1.0
  C  C163  1  0.32530000  0.30109000  0.47507000  1.0
  C  C164  1  0.46454000  0.18311000  0.33756000  1.0
  C  C165  1  0.27145000  0.60415000  0.13249000  1.0
  C  C166  1  0.24736000  0.66014000  0.30399000  1.0
  C  C167  1  0.28605000  0.52535000  0.28874000  1.0
  C  C168  1  0.46514000  0.66236000  0.18325000  1.0
  C  C169  1  0.27123000  0.86763000  0.60360000  1.0
  C  C170  1  0.24880000  0.69393000  0.65891000  1.0
  C  C171  1  0.28380000  0.71168000  0.52540000  1.0
  C  C172  1  0.46514000  0.83033000  0.64496000  1.0
  C  C173  1  0.27184000  0.39643000  0.86761000  1.0
  C  C174  1  0.25012000  0.34404000  0.69163000  1.0
  C  C175  1  0.32594000  0.47476000  0.69854000  1.0
  C  C176  1  0.46421000  0.33580000  0.81606000  1.0
  C  C177  1  0.72858000  0.13253000  0.60388000  1.0
  C  C178  1  0.75283000  0.30613000  0.65877000  1.0
  C  C179  1  0.71333000  0.28836000  0.52535000  1.0
  C  C180  1  0.53508000  0.18332000  0.66288000  1.0
  C  C181  1  0.72874000  0.39629000  0.13191000  1.0
  C  C182  1  0.75104000  0.34286000  0.30624000  1.0
  C  C183  1  0.67799000  0.47480000  0.30063000  1.0
  C  C184  1  0.53550000  0.35514000  0.16948000  1.0
  C  C185  1  0.72814000  0.86800000  0.39637000  1.0
  C  C186  1  0.74888000  0.69176000  0.34430000  1.0
  C  C187  1  0.67887000  0.69841000  0.47502000  1.0
  C  C188  1  0.53593000  0.83043000  0.35547000  1.0
  C  C189  1  0.72900000  0.60345000  0.86765000  1.0
  C  C190  1  0.74950000  0.65607000  0.69152000  1.0
  C  C191  1  0.67528000  0.52523000  0.69980000  1.0
  C  C192  1  0.53549000  0.66416000  0.81644000  1.0
  N  N1  1  0.21597000  0.32431000  0.12888000  1.0
  N  N2  1  0.18642000  0.21306000  0.15476000  1.0
  N  N3  1  0.16800000  0.24721000  0.04110000  1.0
  N  N4  1  0.05740000  0.28499000  0.12616000  1.0
  N  N5  1  0.21512000  0.87084000  0.32457000  1.0
  N  N6  1  0.18470000  0.84503000  0.21320000  1.0
  N  N7  1  0.17045000  0.95898000  0.24686000  1.0
  N  N8  1  0.05714000  0.87965000  0.28825000  1.0
  N  N9  1  0.21584000  0.67491000  0.87063000  1.0
  N  N10  1  0.18786000  0.78714000  0.84490000  1.0
  N  N11  1  0.17016000  0.75275000  0.95879000  1.0
  N  N12  1  0.05872000  0.71563000  0.87399000  1.0
  N  N13  1  0.21563000  0.12835000  0.67509000  1.0
  N  N14  1  0.18500000  0.15431000  0.78737000  1.0
  N  N15  1  0.16232000  0.04114000  0.75360000  1.0
  N  N16  1  0.05743000  0.12415000  0.71228000  1.0
  N  N17  1  0.78483000  0.32465000  0.87082000  1.0
  N  N18  1  0.81610000  0.21213000  0.84582000  1.0
  N  N19  1  0.83864000  0.24674000  0.95876000  1.0
  N  N20  1  0.94283000  0.28529000  0.87363000  1.0
  N  N21  1  0.78477000  0.12933000  0.32425000  1.0
  N  N22  1  0.81517000  0.15476000  0.21260000  1.0
  N  N23  1  0.82960000  0.04106000  0.24648000  1.0
  N  N24  1  0.94261000  0.12070000  0.28763000  1.0
  N  N25  1  0.78456000  0.67519000  0.12854000  1.0
  N  N26  1  0.81630000  0.78752000  0.15409000  1.0
  N  N27  1  0.83651000  0.75359000  0.04094000  1.0
  N  N28  1  0.94239000  0.71171000  0.12216000  1.0
  N  N29  1  0.78418000  0.87156000  0.67531000  1.0
  N  N30  1  0.81509000  0.84557000  0.78756000  1.0
  N  N31  1  0.83792000  0.95865000  0.75365000  1.0
  N  N32  1  0.94247000  0.87271000  0.71490000  1.0
  N  N33  1  0.78516000  0.67516000  0.87102000  1.0
  N  N34  1  0.81560000  0.78761000  0.84585000  1.0
  N  N35  1  0.83715000  0.75364000  0.95876000  1.0
  N  N36  1  0.94355000  0.71541000  0.87398000  1.0
  N  N37  1  0.78366000  0.12848000  0.67576000  1.0
  N  N38  1  0.81628000  0.15356000  0.78812000  1.0
  N  N39  1  0.83737000  0.04088000  0.75372000  1.0
  N  N40  1  0.94238000  0.12397000  0.71219000  1.0
  N  N41  1  0.78437000  0.32468000  0.12863000  1.0
  N  N42  1  0.81533000  0.21244000  0.15399000  1.0
  N  N43  1  0.83872000  0.24682000  0.04095000  1.0
  N  N44  1  0.94237000  0.28547000  0.12618000  1.0
  N  N45  1  0.78486000  0.87098000  0.32502000  1.0
  N  N46  1  0.81481000  0.84461000  0.21330000  1.0
  N  N47  1  0.82862000  0.95877000  0.24682000  1.0
  N  N48  1  0.94209000  0.87962000  0.28815000  1.0
  N  N49  1  0.21595000  0.67579000  0.12898000  1.0
  N  N50  1  0.18491000  0.78710000  0.15479000  1.0
  N  N51  1  0.16940000  0.75287000  0.04103000  1.0
  N  N52  1  0.05745000  0.71177000  0.12215000  1.0
  N  N53  1  0.21637000  0.87161000  0.67572000  1.0
  N  N54  1  0.18580000  0.84617000  0.78768000  1.0
  N  N55  1  0.16125000  0.95892000  0.75378000  1.0
  N  N56  1  0.05750000  0.87276000  0.71500000  1.0
  N  N57  1  0.21541000  0.32485000  0.87085000  1.0
  N  N58  1  0.18659000  0.21308000  0.84494000  1.0
  N  N59  1  0.16872000  0.24728000  0.95884000  1.0
  N  N60  1  0.05785000  0.28486000  0.87377000  1.0
  N  N61  1  0.21477000  0.12930000  0.32511000  1.0
  N  N62  1  0.18656000  0.15540000  0.21344000  1.0
  N  N63  1  0.17129000  0.04126000  0.24696000  1.0
  N  N64  1  0.05767000  0.12066000  0.28765000  1.0
  N  N65  1  0.71515000  0.82497000  0.62861000  1.0
  N  N66  1  0.68437000  0.71239000  0.65438000  1.0
  N  N67  1  0.66509000  0.74573000  0.54131000  1.0
  N  N68  1  0.55780000  0.78764000  0.62236000  1.0
  N  N69  1  0.71575000  0.37119000  0.82449000  1.0
  N  N70  1  0.68622000  0.34604000  0.71238000  1.0
  N  N71  1  0.66149000  0.45886000  0.74710000  1.0
  N  N72  1  0.55747000  0.37247000  0.78483000  1.0
  N  N73  1  0.71584000  0.17590000  0.37077000  1.0
  N  N74  1  0.68578000  0.28750000  0.34538000  1.0
  N  N75  1  0.66808000  0.25237000  0.45902000  1.0
  N  N76  1  0.55741000  0.21508000  0.37386000  1.0
  N  N77  1  0.71558000  0.62848000  0.17525000  1.0
  N  N78  1  0.68447000  0.65433000  0.28755000  1.0
  N  N79  1  0.66364000  0.54116000  0.25353000  1.0
  N  N80  1  0.55784000  0.62589000  0.21465000  1.0
  N  N81  1  0.28409000  0.82445000  0.37110000  1.0
  N  N82  1  0.31401000  0.71314000  0.34503000  1.0
  N  N83  1  0.32967000  0.74725000  0.45896000  1.0
  N  N84  1  0.44266000  0.78766000  0.37784000  1.0
  N  N85  1  0.28415000  0.62796000  0.82406000  1.0
  N  N86  1  0.31542000  0.65398000  0.71227000  1.0
  N  N87  1  0.34024000  0.54107000  0.74583000  1.0
  N  N88  1  0.44262000  0.62718000  0.78519000  1.0
  N  N89  1  0.28479000  0.17511000  0.62851000  1.0
  N  N90  1  0.31486000  0.28767000  0.65414000  1.0
  N  N91  1  0.33867000  0.25373000  0.54133000  1.0
  N  N92  1  0.44238000  0.21503000  0.62665000  1.0
  N  N93  1  0.28462000  0.37104000  0.17568000  1.0
  N  N94  1  0.31496000  0.34518000  0.28743000  1.0
  N  N95  1  0.33136000  0.45884000  0.25335000  1.0
  N  N96  1  0.44273000  0.37752000  0.21238000  1.0
  N  N97  1  0.28376000  0.17580000  0.37188000  1.0
  N  N98  1  0.31521000  0.28785000  0.34638000  1.0
  N  N99  1  0.33918000  0.25388000  0.45917000  1.0
  N  N100  1  0.44239000  0.21486000  0.37387000  1.0
  N  N101  1  0.28460000  0.62928000  0.17562000  1.0
  N  N102  1  0.31397000  0.65496000  0.28687000  1.0
  N  N103  1  0.33163000  0.54113000  0.25293000  1.0
  N  N104  1  0.44284000  0.62589000  0.21499000  1.0
  N  N105  1  0.28553000  0.82508000  0.62928000  1.0
  N  N106  1  0.31461000  0.71322000  0.65524000  1.0
  N  N107  1  0.32965000  0.74731000  0.54121000  1.0
  N  N108  1  0.44277000  0.78760000  0.62238000  1.0
  N  N109  1  0.28418000  0.37173000  0.82412000  1.0
  N  N110  1  0.31529000  0.34619000  0.71186000  1.0
  N  N111  1  0.34025000  0.45886000  0.74568000  1.0
  N  N112  1  0.44247000  0.37263000  0.78479000  1.0
  N  N113  1  0.71457000  0.17513000  0.62958000  1.0
  N  N114  1  0.68690000  0.28712000  0.65497000  1.0
  N  N115  1  0.66841000  0.25215000  0.54128000  1.0
  N  N116  1  0.55739000  0.21534000  0.62666000  1.0
  N  N117  1  0.71545000  0.37132000  0.17514000  1.0
  N  N118  1  0.68499000  0.34609000  0.28765000  1.0
  N  N119  1  0.66443000  0.45896000  0.25337000  1.0
  N  N120  1  0.55775000  0.37740000  0.21229000  1.0
  N  N121  1  0.71582000  0.82438000  0.37179000  1.0
  N  N122  1  0.68377000  0.71207000  0.34607000  1.0
  N  N123  1  0.66435000  0.74550000  0.45912000  1.0
  N  N124  1  0.55771000  0.78772000  0.37800000  1.0
  N  N125  1  0.71581000  0.62856000  0.82457000  1.0
  N  N126  1  0.68460000  0.65408000  0.71235000  1.0
  N  N127  1  0.66123000  0.54107000  0.74702000  1.0
  N  N128  1  0.55760000  0.62724000  0.78535000  1.0
