# generated using pymatgen
data_H8C12NO2
_symmetry_space_group_name_H-M   'P 1'
_cell_length_a   37.64440000
_cell_length_b   37.64440000
_cell_length_c   37.64440000
_cell_angle_alpha   90.00000000
_cell_angle_beta   90.00000000
_cell_angle_gamma   90.00000000
_symmetry_Int_Tables_number   1
_chemical_formula_structural   H8C12NO2
_chemical_formula_sum   'H192 C288 N24 O48'
_cell_volume   53345.91128894
_cell_formula_units_Z   24
loop_
 _symmetry_equiv_pos_site_id
 _symmetry_equiv_pos_as_xyz
  1  'x, y, z'
loop_
 _atom_site_type_symbol
 _atom_site_label
 _atom_site_symmetry_multiplicity
 _atom_site_fract_x
 _atom_site_fract_y
 _atom_site_fract_z
 _atom_site_occupancy
  H  7  1  0.08437700  0.04311900  0.25888900  1
  H  16  1  0.08386100  0.96305700  0.24787600  1
  H  19  1  0.17327200  0.97161800  0.19895700  1
  H  20  1  0.17254400  0.03607300  0.30559100  1
  H  21  1  0.11772800  0.08950300  0.14452400  1
  H  22  1  0.11335900  0.92308500  0.36651400  1
  H  29  1  0.42474000  0.96601100  0.75888000  1
  H  38  1  0.42532700  0.04601600  0.74795700  1
  H  41  1  0.33585300  0.03751100  0.69893500  1
  H  42  1  0.33642400  0.97306100  0.80548700  1
  H  43  1  0.39139900  0.91959500  0.64452100  1
  H  44  1  0.39604800  0.08550200  0.86681100  1
  H  51  1  0.92467100  0.54320100  0.25010400  1
  H  60  1  0.92520200  0.46305700  0.26119000  1
  H  63  1  0.83594900  0.47164000  0.31013900  1
  H  64  1  0.83656200  0.53620700  0.20350200  1
  H  65  1  0.89118700  0.58966000  0.36439700  1
  H  66  1  0.89592300  0.42356600  0.14225500  1
  H  73  1  0.58444000  0.46595500  0.75009000  1
  H  82  1  0.58384500  0.54610200  0.76117800  1
  H  85  1  0.67312500  0.53758600  0.81021300  1
  H  86  1  0.67256200  0.47301000  0.70358900  1
  H  87  1  0.61764500  0.41968500  0.86464600  1
  H  88  1  0.61322800  0.58568100  0.64239300  1
  H  95  1  0.25900200  0.08442700  0.04313300  1
  H  104  1  0.24785700  0.08385900  0.96303800  1
  H  107  1  0.19885400  0.17310100  0.97160200  1
  H  108  1  0.30557500  0.17255200  0.03603400  1
  H  109  1  0.14465100  0.11788400  0.08964500  1
  H  110  1  0.36645800  0.11340800  0.92301900  1
  H  117  1  0.75892500  0.42469300  0.96597900  1
  H  126  1  0.74796500  0.42530600  0.04601500  1
  H  129  1  0.69892400  0.33592800  0.03754800  1
  H  130  1  0.80550300  0.33640800  0.97305800  1
  H  131  1  0.64451000  0.39133600  0.91965600  1
  H  132  1  0.86681700  0.39603000  0.08550300  1
  H  139  1  0.25012000  0.92467400  0.54319100  1
  H  148  1  0.26119500  0.92517800  0.46307000  1
  H  151  1  0.31015800  0.83585600  0.47169500  1
  H  152  1  0.20351700  0.83654100  0.53622800  1
  H  153  1  0.36443700  0.89123200  0.58972900  1
  H  154  1  0.14227400  0.89588600  0.42356900  1
  H  161  1  0.75015900  0.58442100  0.46600300  1
  H  170  1  0.76119700  0.58385800  0.54611300  1
  H  173  1  0.81017300  0.67321000  0.53756700  1
  H  174  1  0.70359700  0.67257300  0.47302900  1
  H  175  1  0.86456400  0.61771200  0.41963200  1
  H  176  1  0.64240600  0.61323000  0.58568900  1
  H  183  1  0.04316900  0.25892900  0.08441200  1
  H  192  1  0.96305700  0.24785300  0.08384600  1
  H  195  1  0.97156800  0.19890500  0.17314200  1
  H  196  1  0.03607600  0.30556500  0.17253300  1
  H  197  1  0.08942300  0.14449000  0.11768900  1
  H  198  1  0.92308800  0.36648700  0.11335200  1
  H  205  1  0.96600000  0.75890700  0.42471400  1
  H  214  1  0.04602500  0.74794900  0.42531100  1
  H  217  1  0.03753800  0.69892200  0.33590600  1
  H  218  1  0.97306300  0.80549800  0.33642400  1
  H  219  1  0.91969600  0.64447500  0.39138300  1
  H  220  1  0.08551200  0.86680600  0.39604800  1
  H  227  1  0.54319300  0.25013300  0.92467100  1
  H  236  1  0.46305700  0.26120400  0.92516800  1
  H  239  1  0.47168000  0.31014400  0.83586100  1
  H  240  1  0.53623100  0.20350800  0.83655400  1
  H  241  1  0.58970200  0.36441500  0.89125000  1
  H  242  1  0.42356600  0.14227000  0.89589400  1
  H  249  1  0.46597100  0.75010600  0.58443200  1
  H  258  1  0.54610500  0.76119400  0.58385300  1
  H  261  1  0.53755700  0.81021100  0.67314400  1
  H  262  1  0.47301600  0.70358600  0.67255400  1
  H  263  1  0.41951500  0.86450800  0.61780200  1
  H  264  1  0.58569900  0.64241400  0.61323600  1
  H  271  1  0.08284000  0.82143700  0.29568500  1
  H  272  1  0.10870200  0.87239500  0.26944200  1
  H  273  1  0.04288800  0.93819000  0.33055600  1
  H  275  1  0.00180100  0.91234000  0.37067100  1
  H  276  1  0.99789300  0.86880900  0.37583300  1
  H  283  1  0.42631600  0.18745000  0.79572800  1
  H  284  1  0.40057200  0.13638300  0.76968100  1
  H  285  1  0.46653100  0.07086600  0.83087000  1
  H  287  1  0.50760300  0.09689200  0.87096900  1
  H  288  1  0.51150500  0.14044700  0.87595700  1
  H  295  1  0.92637100  0.32155900  0.21381700  1
  H  296  1  0.90069900  0.37271700  0.23985300  1
  H  297  1  0.96617800  0.43802500  0.17795700  1
  H  299  1  0.00717500  0.41196800  0.13793300  1
  H  300  1  0.01109800  0.36841100  0.13303400  1
  H  307  1  0.58304300  0.68757300  0.71335400  1
  H  308  1  0.60880700  0.63654300  0.73945100  1
  H  309  1  0.54270500  0.57094800  0.67845700  1
  H  311  1  0.50165500  0.59696200  0.63832800  1
  H  312  1  0.49779500  0.64050900  0.63326800  1
  H  319  1  0.29569300  0.08283200  0.82139400  1
  H  320  1  0.26942900  0.10871400  0.87233100  1
  H  321  1  0.33050300  0.04291600  0.93817900  1
  H  323  1  0.37063100  0.00182200  0.91236100  1
  H  324  1  0.37581400  0.99790100  0.86883300  1
  H  331  1  0.79575400  0.42629400  0.18745300  1
  H  332  1  0.76970000  0.40055100  0.13639000  1
  H  333  1  0.83087000  0.46651300  0.07086100  1
  H  335  1  0.87097400  0.50758700  0.09687900  1
  H  336  1  0.87597300  0.51148600  0.14043300  1
  H  343  1  0.21381900  0.92635800  0.32157200  1
  H  344  1  0.23985400  0.90066800  0.37272200  1
  H  345  1  0.17797900  0.96614600  0.43804900  1
  H  347  1  0.13796100  0.00715800  0.41200300  1
  H  348  1  0.13305900  0.01109100  0.36844800  1
  H  355  1  0.71335400  0.58302400  0.68757900  1
  H  356  1  0.73946200  0.60879700  0.63655900  1
  H  357  1  0.67847500  0.54271000  0.57094000  1
  H  359  1  0.63833600  0.50166000  0.59693900  1
  H  360  1  0.63327100  0.49779000  0.64048500  1
  H  367  1  0.82143700  0.29567200  0.08283100  1
  H  368  1  0.87239200  0.26942600  0.10869500  1
  H  369  1  0.93819500  0.33053000  0.04288000  1
  H  371  1  0.91235100  0.37065000  0.00179300  1
  H  372  1  0.86881700  0.37581400  0.99788500  1
  H  379  1  0.18746200  0.79572200  0.42630500  1
  H  380  1  0.13639600  0.76967900  0.40055600  1
  H  381  1  0.07087600  0.83085400  0.46652600  1
  H  383  1  0.09690100  0.87095000  0.50760300  1
  H  384  1  0.14045600  0.87593900  0.51150500  1
  H  391  1  0.32155600  0.21385000  0.92629900  1
  H  392  1  0.37272700  0.23987300  0.90063800  1
  H  393  1  0.43800400  0.17798200  0.96615100  1
  H  395  1  0.41193100  0.13797100  0.00714700  1
  H  396  1  0.36837100  0.13307700  0.01105800  1
  H  403  1  0.68758400  0.71335400  0.58304800  1
  H  404  1  0.63655900  0.73946400  0.60881300  1
  H  405  1  0.57095100  0.67848300  0.54271000  1
  H  407  1  0.59695200  0.63834400  0.50166500  1
  H  408  1  0.64050100  0.63327300  0.49780600  1
  H  415  1  0.57342600  0.32239600  0.96769500  1
  H  416  1  0.62449900  0.34814500  0.99410000  1
  H  417  1  0.68953100  0.29734800  0.91932100  1
  H  419  1  0.66365500  0.25965000  0.87605300  1
  H  420  1  0.62023300  0.25286300  0.87353500  1
  H  427  1  0.93558100  0.68630900  0.46775100  1
  H  428  1  0.88447700  0.66074300  0.49408700  1
  H  429  1  0.81961700  0.71190400  0.41941200  1
  H  431  1  0.84567400  0.74945800  0.37612000  1
  H  432  1  0.88911500  0.75610700  0.37359600  1
  H  439  1  0.07355600  0.18659200  0.04125600  1
  H  440  1  0.12472700  0.16095100  0.01493200  1
  H  441  1  0.18947900  0.21173400  0.08999900  1
  H  443  1  0.16343300  0.24940100  0.13317400  1
  H  444  1  0.11999900  0.25613100  0.13559000  1
  H  451  1  0.43555700  0.82289000  0.54161600  1
  H  452  1  0.38445000  0.84852400  0.51538300  1
  H  453  1  0.31957700  0.79697100  0.58974000  1
  H  455  1  0.34566100  0.75929500  0.63295400  1
  H  456  1  0.38911500  0.75267700  0.63544400  1
  H  463  1  0.82242000  0.54120600  0.43553100  1
  H  464  1  0.84800900  0.51494200  0.38433600  1
  H  465  1  0.79727600  0.59006900  0.31970500  1
  H  467  1  0.75963200  0.63322500  0.34577000  1
  H  468  1  0.75291700  0.63561400  0.38920800  1
  H  475  1  0.18622200  0.04168900  0.07347800  1
  H  476  1  0.16054000  0.01537700  0.12452000  1
  H  477  1  0.21214900  0.08953400  0.18957200  1
  H  479  1  0.24985100  0.13278800  0.16359100  1
  H  480  1  0.25648100  0.13536800  0.12014600  1
  H  487  1  0.68636500  0.46761800  0.93572500  1
  H  488  1  0.66061100  0.49404400  0.88469700  1
  H  489  1  0.71174400  0.41953600  0.81959300  1
  H  491  1  0.74944700  0.37630000  0.84549100  1
  H  492  1  0.75613900  0.37370800  0.88892300  1
  H  499  1  0.32284700  0.96745800  0.57345600  1
  H  500  1  0.34852700  0.99377800  0.62451500  1
  H  501  1  0.29703700  0.91952000  0.68956000  1
  H  503  1  0.25933700  0.87624400  0.66359100  1
  H  504  1  0.25267200  0.87368300  0.62015000  1
  H  511  1  0.04128800  0.07344800  0.18649300  1
  H  512  1  0.01491400  0.12458900  0.16084800  1
  H  513  1  0.08980600  0.18943900  0.21175800  1
  H  515  1  0.13300500  0.16344100  0.24943000  1
  H  516  1  0.13549300  0.12000700  0.25613000  1
  H  523  1  0.54153900  0.43555500  0.82296100  1
  H  524  1  0.51532200  0.38440200  0.84853000  1
  H  525  1  0.58974800  0.31963300  0.79694700  1
  H  527  1  0.63296800  0.34578000  0.75932600  1
  H  528  1  0.63543600  0.38924000  0.75275200  1
  H  535  1  0.96768700  0.57342400  0.32231300  1
  H  536  1  0.99410000  0.62447000  0.34810500  1
  H  537  1  0.91931000  0.68955500  0.29739100  1
  H  539  1  0.87603200  0.66371600  0.25968300  1
  H  540  1  0.87350800  0.62029900  0.25285500  1
  H  547  1  0.46775600  0.93555700  0.68628200  1
  H  548  1  0.49406000  0.88444200  0.66070900  1
  H  549  1  0.41937400  0.81961700  0.71189800  1
  H  551  1  0.37612200  0.84569300  0.74948400  1
  H  552  1  0.37362000  0.88913300  0.75613300  1
  C  1  1  0.12968700  0.01605900  0.23909500  1
  C  2  1  0.10345400  0.04308900  0.23946800  1
  C  3  1  0.10458100  0.07149800  0.21500200  1
  C  4  1  0.13201500  0.07200000  0.18921000  1
  C  5  1  0.15843900  0.04516200  0.18795200  1
  C  6  1  0.15686100  0.01697400  0.21284200  1
  C  9  1  0.12979100  0.98984900  0.26648000  1
  C  10  1  0.15626700  0.99010400  0.29345100  1
  C  11  1  0.15592700  0.96427300  0.32082800  1
  C  12  1  0.12853300  0.93840500  0.32117900  1
  C  13  1  0.10219000  0.93744600  0.29427700  1
  C  14  1  0.10289000  0.96353200  0.26733600  1
  C  23  1  0.37944500  0.99307400  0.73906600  1
  C  24  1  0.40569400  0.96605600  0.73943000  1
  C  25  1  0.40456200  0.93764200  0.71497200  1
  C  26  1  0.37711600  0.93711900  0.68919700  1
  C  27  1  0.35069500  0.96396000  0.68792900  1
  C  28  1  0.35227300  0.99215800  0.71281000  1
  C  31  1  0.37933700  0.01926500  0.76647500  1
  C  32  1  0.35284900  0.01899700  0.79343500  1
  C  33  1  0.35327400  0.04471600  0.82092100  1
  C  34  1  0.38079200  0.07044600  0.82141800  1
  C  35  1  0.40708300  0.07149000  0.79446800  1
  C  36  1  0.40628600  0.04552900  0.76740700  1
  C  45  1  0.87941900  0.51610300  0.26997600  1
  C  46  1  0.90563500  0.54315100  0.26956500  1
  C  47  1  0.90441300  0.57166000  0.29391100  1
  C  48  1  0.87695400  0.57219400  0.31967600  1
  C  49  1  0.85055900  0.54532700  0.32098500  1
  C  50  1  0.85224900  0.51702800  0.29623000  1
  C  53  1  0.87931200  0.48990500  0.24257700  1
  C  54  1  0.85287600  0.49023200  0.21556600  1
  C  55  1  0.85327100  0.46449100  0.18809900  1
  C  56  1  0.88074400  0.43870800  0.18764900  1
  C  57  1  0.90703000  0.43766100  0.21460400  1
  C  58  1  0.90620400  0.46358500  0.24170100  1
  C  67  1  0.62963700  0.49309600  0.77002400  1
  C  68  1  0.60340700  0.46606400  0.76961800  1
  C  69  1  0.60446700  0.43769600  0.79413100  1
  C  70  1  0.63188100  0.43718800  0.81994400  1
  C  71  1  0.65831300  0.46402100  0.82122100  1
  C  72  1  0.65675100  0.49221600  0.79633600  1
  C  75  1  0.62977500  0.51928000  0.74261500  1
  C  76  1  0.65625700  0.51898800  0.71565200  1
  C  77  1  0.65591900  0.54477700  0.68823200  1
  C  78  1  0.62846000  0.57057100  0.68777500  1
  C  79  1  0.60215000  0.57161200  0.71470900  1
  C  80  1  0.60287600  0.54559800  0.74172000  1
  C  89  1  0.23909400  0.12967500  0.01605400  1
  C  90  1  0.23955800  0.10348200  0.04311900  1
  C  91  1  0.21511900  0.10458700  0.07155100  1
  C  92  1  0.18936800  0.13205600  0.07213100  1
  C  93  1  0.18804700  0.15847300  0.04528200  1
  C  94  1  0.21280300  0.15681100  0.01697900  1
  C  97  1  0.26645100  0.12980000  0.98981500  1
  C  98  1  0.29341400  0.15628400  0.99006700  1
  C  99  1  0.32077800  0.15596100  0.96422000  1
  C  100  1  0.32112300  0.12857400  0.93834600  1
  C  101  1  0.29423200  0.10222100  0.93739500  1
  C  102  1  0.26730700  0.10290100  0.96350000  1
  C  111  1  0.73907900  0.37942700  0.99306900  1
  C  112  1  0.73946700  0.40565100  0.96603200  1
  C  113  1  0.71499900  0.40453000  0.93762700  1
  C  114  1  0.68923100  0.37707900  0.93710100  1
  C  115  1  0.68798000  0.35063600  0.96392800  1
  C  116  1  0.71280700  0.35227000  0.99217100  1
  C  119  1  0.76648300  0.37931800  0.01926600  1
  C  120  1  0.79344600  0.35283300  0.01899600  1
  C  121  1  0.82092900  0.35325600  0.04471700  1
  C  122  1  0.82142300  0.38077400  0.07044900  1
  C  123  1  0.79447400  0.40706200  0.07149300  1
  C  124  1  0.76741300  0.40626700  0.04553000  1
  C  133  1  0.26998700  0.87940500  0.51611900  1
  C  134  1  0.26959400  0.90564800  0.54313500  1
  C  135  1  0.29399800  0.90449500  0.57159900  1
  C  136  1  0.31975800  0.87703300  0.57215400  1
  C  137  1  0.32107600  0.85063600  0.54528900  1
  C  138  1  0.29624600  0.85224100  0.51705100  1
  C  141  1  0.24258500  0.87928600  0.48992400  1
  C  142  1  0.21557800  0.85284600  0.49024800  1
  C  143  1  0.18811500  0.85323700  0.46450500  1
  C  144  1  0.18766600  0.88070700  0.43871600  1
  C  145  1  0.21461800  0.90699500  0.43767200  1
  C  146  1  0.24170800  0.90617700  0.46359900  1
  C  155  1  0.77003700  0.62966600  0.49310600  1
  C  156  1  0.76964700  0.60342800  0.46608200  1
  C  157  1  0.79407300  0.60458100  0.43763700  1
  C  158  1  0.81987200  0.63200600  0.43713000  1
  C  159  1  0.82116000  0.65842200  0.46397900  1
  C  160  1  0.79630900  0.65682000  0.49220100  1
  C  163  1  0.74263300  0.62979100  0.51929900  1
  C  164  1  0.71566500  0.65626700  0.51900700  1
  C  165  1  0.68824300  0.65592500  0.54479500  1
  C  166  1  0.68779100  0.62846000  0.57058700  1
  C  167  1  0.71472500  0.60215600  0.57162300  1
  C  168  1  0.74173800  0.60288900  0.54560800  1
  C  177  1  0.01606300  0.23907300  0.12966700  1
  C  178  1  0.04312400  0.23948700  0.10346800  1
  C  179  1  0.07152900  0.21501800  0.10459100  1
  C  180  1  0.07201300  0.18920500  0.13200500  1
  C  181  1  0.04518000  0.18794800  0.15843800  1
  C  182  1  0.01695200  0.21279100  0.15681400  1
  C  185  1  0.98984900  0.26645400  0.12977600  1
  C  186  1  0.99011000  0.29342500  0.15625400  1
  C  187  1  0.96427600  0.32080200  0.15591800  1
  C  188  1  0.93840800  0.32115500  0.12852600  1
  C  189  1  0.93744300  0.29425300  0.10218300  1
  C  190  1  0.96353200  0.26731200  0.10287700  1
  C  199  1  0.99307700  0.73906900  0.37943500  1
  C  200  1  0.96605000  0.73945100  0.40567200  1
  C  201  1  0.93764200  0.71498500  0.40455100  1
  C  202  1  0.93712700  0.68919900  0.37711300  1
  C  203  1  0.96393900  0.68795900  0.35065800  1
  C  204  1  0.99216800  0.71280200  0.35227300  1
  C  207  1  0.01927400  0.76647500  0.37932600  1
  C  208  1  0.01900300  0.79344000  0.35284400  1
  C  209  1  0.04472500  0.82092400  0.35326900  1
  C  210  1  0.07045800  0.82141300  0.38078400  1
  C  211  1  0.07150300  0.79446100  0.40707200  1
  C  212  1  0.04554000  0.76739900  0.40627500  1
  C  221  1  0.51611400  0.26998400  0.87940000  1
  C  222  1  0.54314000  0.26959600  0.90563800  1
  C  223  1  0.57163300  0.29396400  0.90443700  1
  C  224  1  0.57215900  0.31973900  0.87698800  1
  C  225  1  0.54528400  0.32106000  0.85060400  1
  C  226  1  0.51704100  0.29623500  0.85222500  1
  C  229  1  0.48991900  0.24258300  0.87928900  1
  C  230  1  0.49025100  0.21557000  0.85285400  1
  C  231  1  0.46450700  0.18810500  0.85324700  1
  C  232  1  0.43871800  0.18766000  0.88071200  1
  C  233  1  0.43766700  0.21461800  0.90699500  1
  C  234  1  0.46359100  0.24171200  0.90617400  1
  C  243  1  0.49308800  0.77002700  0.62965000  1
  C  244  1  0.46605100  0.76960700  0.60342600  1
  C  245  1  0.43762400  0.79405700  0.60454400  1
  C  246  1  0.43707400  0.81981900  0.63200300  1
  C  247  1  0.46393600  0.82113400  0.65840300  1
  C  248  1  0.49218500  0.79631500  0.65678800  1
  C  251  1  0.51928600  0.74262800  0.62978000  1
  C  252  1  0.51899300  0.71566000  0.65625900  1
  C  253  1  0.54479000  0.68824600  0.65592500  1
  C  254  1  0.57058700  0.68779900  0.62846500  1
  C  255  1  0.57162300  0.71473300  0.60215800  1
  C  256  1  0.54560300  0.74173600  0.60288400  1
  C  265  1  0.07138500  0.84560200  0.30084700  1
  C  266  1  0.08663600  0.87581100  0.28500900  1
  C  267  1  0.07615000  0.91035000  0.29521800  1
  C  268  1  0.04877100  0.91346900  0.32074900  1
  C  269  1  0.03347900  0.88332400  0.33741300  1
  C  270  1  0.04524000  0.84860400  0.32773800  1
  C  277  1  0.43791600  0.16335400  0.80087600  1
  C  278  1  0.42264700  0.13303200  0.78525300  1
  C  279  1  0.43319800  0.09849400  0.79552600  1
  C  280  1  0.46059400  0.09557200  0.82105700  1
  C  281  1  0.47591700  0.12576300  0.83759300  1
  C  282  1  0.46406600  0.16037700  0.82773800  1
  C  289  1  0.93781800  0.34568500  0.20846400  1
  C  290  1  0.92267600  0.37603500  0.22414100  1
  C  291  1  0.93302000  0.41055000  0.21364600  1
  C  292  1  0.96030500  0.41337300  0.18795000  1
  C  293  1  0.97557400  0.38313800  0.17143200  1
  C  294  1  0.96377100  0.34852200  0.18141700  1
  C  301  1  0.57142600  0.66347700  0.70824100  1
  C  302  1  0.58670100  0.63319100  0.72392400  1
  C  303  1  0.57608300  0.59867800  0.71370800  1
  C  304  1  0.54866800  0.59566900  0.68821900  1
  C  305  1  0.53336700  0.62585900  0.67165900  1
  C  306  1  0.54521500  0.66051000  0.68141100  1
  C  313  1  0.30084100  0.07138500  0.84556500  1
  C  314  1  0.28499300  0.08664800  0.87576100  1
  C  315  1  0.29518100  0.07617200  0.91030800  1
  C  316  1  0.32070600  0.04879100  0.91345000  1
  C  317  1  0.33738600  0.03349000  0.88331600  1
  C  318  1  0.32773300  0.04524000  0.84859100  1
  C  325  1  0.80090000  0.43789500  0.16335500  1
  C  326  1  0.78526900  0.42262800  0.13303600  1
  C  327  1  0.79553400  0.43318000  0.09849600  1
  C  328  1  0.82106500  0.46057600  0.09556900  1
  C  329  1  0.83760600  0.47589800  0.12575700  1
  C  330  1  0.82776200  0.46404800  0.16037300  1
  C  337  1  0.20847200  0.93779900  0.34569800  1
  C  338  1  0.22414700  0.92265000  0.37604300  1
  C  339  1  0.21365800  0.93298800  0.41056300  1
  C  340  1  0.18796800  0.96027800  0.41339500  1
  C  341  1  0.17145000  0.97555500  0.38316400  1
  C  342  1  0.18143000  0.96375800  0.34854600  1
  C  349  1  0.70824600  0.57141000  0.66348000  1
  C  350  1  0.72393500  0.58669000  0.63319900  1
  C  351  1  0.71372300  0.57608300  0.59868100  1
  C  352  1  0.68823200  0.54866800  0.59566300  1
  C  353  1  0.67166700  0.53336200  0.62584900  1
  C  354  1  0.68141100  0.54520400  0.66050200  1
  C  361  1  0.84560200  0.30083100  0.07137700  1
  C  362  1  0.87581100  0.28499000  0.08662800  1
  C  363  1  0.91035000  0.29519400  0.07614300  1
  C  364  1  0.91347200  0.32072500  0.04876300  1
  C  365  1  0.88332600  0.33739100  0.03347000  1
  C  366  1  0.84860900  0.32772200  0.04523200  1
  C  373  1  0.16336600  0.80086800  0.43790600  1
  C  374  1  0.13304400  0.78524800  0.42263600  1
  C  375  1  0.09850500  0.79551500  0.43318800  1
  C  376  1  0.09558300  0.82104300  0.46058600  1
  C  377  1  0.12577400  0.83757700  0.47591100  1
  C  378  1  0.16038800  0.82772700  0.46406100  1
  C  385  1  0.34567700  0.20849600  0.93775400  1
  C  386  1  0.37603500  0.22416500  0.92262000  1
  C  387  1  0.41054400  0.21366800  0.93297800  1
  C  388  1  0.41335700  0.18797700  0.96026700  1
  C  389  1  0.38311400  0.17146700  0.97553100  1
  C  390  1  0.34850300  0.18145600  0.96371500  1
  C  397  1  0.66348500  0.70824900  0.57143100  1
  C  398  1  0.63320200  0.72394000  0.58670600  1
  C  399  1  0.59868600  0.71373100  0.57608800  1
  C  400  1  0.59567400  0.68824000  0.54867400  1
  C  401  1  0.62585900  0.67167200  0.53337500  1
  C  402  1  0.66051200  0.68141600  0.54522300  1
  C  409  1  0.59784200  0.31365600  0.95938800  1
  C  410  1  0.62816500  0.32885900  0.97525500  1
  C  411  1  0.66235300  0.32323800  0.96082800  1
  C  412  1  0.66528600  0.29997000  0.93146600  1
  C  413  1  0.63514900  0.28466900  0.91496400  1
  C  414  1  0.60058800  0.29235400  0.92850400  1
  C  421  1  0.91124000  0.69527400  0.45947600  1
  C  422  1  0.88087200  0.68007200  0.47527100  1
  C  423  1  0.84672300  0.68588400  0.46082000  1
  C  424  1  0.84387300  0.70917600  0.43151200  1
  C  425  1  0.87408700  0.72438600  0.41507900  1
  C  426  1  0.90866300  0.71658700  0.42856000  1
  C  433  1  0.09793500  0.19535700  0.04963900  1
  C  434  1  0.12831300  0.18021500  0.03381500  1
  C  435  1  0.16241900  0.18587800  0.04840300  1
  C  436  1  0.16527300  0.20910600  0.07778200  1
  C  437  1  0.13505400  0.22434800  0.09418800  1
  C  438  1  0.10051500  0.21661700  0.08057400  1
  C  445  1  0.41121900  0.81387100  0.54984800  1
  C  446  1  0.38083700  0.82911400  0.53411400  1
  C  447  1  0.34664400  0.82319500  0.54845300  1
  C  448  1  0.34383300  0.79976300  0.57765800  1
  C  449  1  0.37403400  0.78448600  0.59405400  1
  C  450  1  0.40858100  0.79232500  0.58060700  1
  C  457  1  0.81364800  0.54963000  0.41116900  1
  C  458  1  0.82876600  0.53384800  0.38075500  1
  C  459  1  0.82317900  0.54842900  0.34661700  1
  C  460  1  0.79992500  0.57782000  0.34389200  1
  C  461  1  0.78468500  0.59421600  0.37411700  1
  C  462  1  0.79242600  0.58058500  0.40863700  1
  C  469  1  0.19524100  0.04985900  0.09783700  1
  C  470  1  0.17996900  0.03408000  0.12817900  1
  C  471  1  0.18590200  0.04832600  0.16240900  1
  C  472  1  0.20935900  0.07750700  0.16529000  1
  C  473  1  0.22465100  0.09395900  0.13512700  1
  C  474  1  0.21681300  0.08059200  0.10054700  1
  C  481  1  0.69516300  0.45934800  0.91131700  1
  C  482  1  0.67995500  0.47526000  0.88102100  1
  C  483  1  0.68573000  0.46091300  0.84683700  1
  C  484  1  0.70906900  0.43164200  0.84385200  1
  C  485  1  0.72433600  0.41514500  0.87401000  1
  C  486  1  0.71661600  0.42852300  0.90863400  1
  C  493  1  0.31384700  0.95928400  0.59782000  1
  C  494  1  0.32911900  0.97505300  0.62817000  1
  C  495  1  0.32322200  0.96077200  0.66239800  1
  C  496  1  0.29980000  0.93155700  0.66528100  1
  C  497  1  0.28450200  0.91509500  0.63512700  1
  C  498  1  0.29233300  0.92853100  0.60057500  1
  C  505  1  0.04962200  0.09783500  0.19528100  1
  C  506  1  0.03376700  0.12819500  0.18013700  1
  C  507  1  0.04827500  0.16232600  0.18585100  1
  C  508  1  0.07762900  0.16521400  0.20910700  1
  C  509  1  0.09408100  0.13501200  0.22433600  1
  C  510  1  0.08052900  0.10045500  0.21657500  1
  C  517  1  0.54978900  0.41123000  0.81392200  1
  C  518  1  0.53406300  0.38082100  0.82912200  1
  C  519  1  0.54842900  0.34664400  0.82317400  1
  C  520  1  0.57764700  0.34387600  0.79975200  1
  C  521  1  0.59403000  0.37410300  0.78451500  1
  C  522  1  0.58055400  0.40863400  0.79238300  1
  C  529  1  0.95937700  0.59784700  0.31360000  1
  C  530  1  0.97525000  0.62815700  0.32883200  1
  C  531  1  0.96082300  0.66235100  0.32324600  1
  C  532  1  0.93145600  0.66530700  0.29998900  1
  C  533  1  0.91494900  0.63518600  0.28466600  1
  C  534  1  0.92848600  0.60061500  0.29231400  1
  C  541  1  0.45947300  0.91122200  0.69525300  1
  C  542  1  0.47525000  0.88084500  0.68004500  1
  C  543  1  0.46078000  0.84670700  0.68585700  1
  C  544  1  0.43148200  0.84386800  0.70916200  1
  C  545  1  0.41507400  0.87408700  0.72438600  1
  C  546  1  0.42856600  0.90865800  0.71657600  1
  N  274  1  0.00962200  0.88858600  0.36409100  1
  N  286  1  0.49983800  0.12062400  0.86423400  1
  N  298  1  0.99936700  0.38824900  0.14466400  1
  N  310  1  0.50943800  0.62069800  0.64502800  1
  N  322  1  0.36406500  0.00963500  0.88859900  1
  N  334  1  0.86424800  0.49981900  0.12061200  1
  N  346  1  0.14468800  0.99935400  0.38828300  1
  N  358  1  0.64503600  0.50943500  0.62067600  1
  N  370  1  0.88859400  0.36407000  0.00961300  1
  N  382  1  0.12063300  0.86421900  0.49983500  1
  N  394  1  0.38821400  0.14470300  0.99933300  1
  N  406  1  0.62069000  0.64504100  0.50944900  1
  N  418  1  0.63998600  0.26480900  0.88511100  1
  N  430  1  0.86931900  0.74431800  0.38525800  1
  N  442  1  0.13979400  0.24420700  0.12406200  1
  N  454  1  0.36929800  0.76446700  0.62381400  1
  N  466  1  0.76483100  0.62409800  0.36940100  1
  N  478  1  0.24468200  0.12370100  0.13993400  1
  N  490  1  0.74423800  0.38532100  0.86916200  1
  N  502  1  0.26448800  0.88534000  0.63993300  1
  N  514  1  0.12393600  0.13979000  0.24421600  1
  N  526  1  0.62380800  0.36940400  0.76451200  1
  N  538  1  0.88508800  0.64004200  0.26481700  1
  N  550  1  0.38526600  0.86933200  0.74433600  1
  O  8  1  0.13228600  0.09838900  0.16431400  1
  O  15  1  0.12812400  0.91324800  0.34734000  1
  O  17  1  0.18284000  0.99174300  0.21258000  1
  O  18  1  0.18236000  0.01524300  0.29325200  1
  O  30  1  0.37684200  0.91071900  0.66431400  1
  O  37  1  0.38130200  0.09547700  0.84769600  1
  O  39  1  0.32628700  0.01738200  0.71255200  1
  O  40  1  0.32669100  0.99392700  0.79314800  1
  O  52  1  0.87671200  0.59859100  0.34456400  1
  O  59  1  0.88120400  0.41363400  0.16141200  1
  O  61  1  0.82631400  0.49174900  0.29654300  1
  O  62  1  0.82676500  0.51535400  0.21581400  1
  O  74  1  0.63213400  0.41077800  0.84481600  1
  O  81  1  0.62798400  0.59562400  0.66151900  1
  O  83  1  0.68272300  0.51745300  0.79662300  1
  O  84  1  0.68235900  0.49385800  0.71591000  1
  O  96  1  0.16452200  0.13231000  0.09856700  1
  O  103  1  0.34728100  0.12816900  0.91318500  1
  O  105  1  0.21245200  0.18274700  0.99170600  1
  O  106  1  0.29322000  0.18236900  0.01521400  1
  O  118  1  0.66432400  0.37683700  0.91072200  1
  O  125  1  0.84770300  0.38128400  0.09547900  1
  O  127  1  0.71251700  0.32631700  0.01742600  1
  O  128  1  0.79315900  0.32667500  0.99392400  1
  O  140  1  0.34459000  0.87674400  0.59860100  1
  O  147  1  0.16143100  0.88116100  0.41363900  1
  O  149  1  0.29653300  0.82627100  0.49181000  1
  O  150  1  0.21582600  0.82674200  0.51537300  1
  O  162  1  0.84476800  0.63225600  0.41073800  1
  O  169  1  0.66153200  0.62798200  0.59563700  1
  O  171  1  0.79658600  0.68280000  0.51743100  1
  O  172  1  0.71591500  0.68237200  0.49387900  1
  O  184  1  0.09836500  0.16427000  0.13222700  1
  O  191  1  0.91325100  0.34731600  0.12811800  1
  O  193  1  0.99169000  0.21249500  0.18276200  1
  O  194  1  0.01524900  0.29322000  0.18234500  1
  O  206  1  0.91075400  0.66428200  0.37688500  1
  O  213  1  0.09548800  0.84769000  0.38129700  1
  O  215  1  0.01741400  0.71252500  0.32630900  1
  O  216  1  0.99393000  0.79315600  0.32668900  1
  O  228  1  0.59857800  0.34460600  0.87671200  1
  O  235  1  0.41363900  0.16142500  0.88116900  1
  O  237  1  0.49179100  0.29652200  0.82626600  1
  O  238  1  0.51537800  0.21581500  0.82675200  1
  O  250  1  0.41063500  0.84465900  0.63228500  1
  O  257  1  0.59564200  0.66154300  0.62799000  1
  O  259  1  0.51743100  0.79661500  0.68274900  1
  O  260  1  0.49386100  0.71590700  0.68235600  1
