# generated using pymatgen
data_H36C41(N4O)2
_symmetry_space_group_name_H-M   'P 1'
_cell_length_a   35.70369409
_cell_length_b   35.70394335
_cell_length_c   35.70406798
_cell_angle_alpha   109.47207472
_cell_angle_beta   109.47120226
_cell_angle_gamma   109.47066776
_symmetry_Int_Tables_number   1
_chemical_formula_structural   H36C41(N4O)2
_chemical_formula_sum   'H216 C246 N48 O12'
_cell_volume   35036.73524846
_cell_formula_units_Z   6
loop_
 _symmetry_equiv_pos_site_id
 _symmetry_equiv_pos_as_xyz
  1  'x, y, z'
loop_
 _atom_site_type_symbol
 _atom_site_label
 _atom_site_symmetry_multiplicity
 _atom_site_fract_x
 _atom_site_fract_y
 _atom_site_fract_z
 _atom_site_occupancy
  C  1  1  0.25197150  0.72331800  0.40823350  1
  C  2  1  0.21794650  0.68773300  0.40735950  1
  C  3  1  0.27940500  0.69019600  0.47128200  1
  C  4  1  0.31411850  0.72335150  0.47041300  1
  C  5  1  0.36070950  0.74096500  0.50212650  1
  C  6  1  0.37346100  0.72826050  0.53576350  1
  C  7  1  0.33828850  0.69542550  0.53610200  1
  C  8  1  0.29200150  0.67610250  0.50384000  1
  C  9  1  0.17129500  0.66776800  0.37479900  1
  C  10  1  0.15835700  0.68179300  0.34253700  1
  C  11  1  0.19153150  0.71730800  0.34287950  1
  C  12  1  0.23787150  0.73819500  0.37651950  1
  C  13  1  0.32219650  0.79324700  0.47069850  1
  C  14  1  0.35810850  0.82724550  0.47190000  1
  C  15  1  0.35438850  0.76581650  0.40675200  1
  C  16  1  0.32157900  0.73110800  0.40794800  1
  C  17  1  0.36727300  0.75319300  0.37314500  1
  C  18  1  0.34711800  0.70692150  0.34027550  1
  C  19  1  0.31521150  0.67175300  0.34144350  1
  C  20  1  0.30361750  0.68451150  0.37598000  1
  C  21  1  0.30754750  0.80724850  0.50264800  1
  C  22  1  0.32936800  0.85337250  0.53722350  1
  C  23  1  0.36571450  0.88644250  0.53839900  1
  C  24  1  0.37910050  0.87373400  0.50551450  1
  C  37  1  0.30247100  0.74275950  0.43932350  1
  C  38  1  0.37504750  0.81532800  0.43932750  1
  C  41  1  0.22988700  0.67017350  0.43931850  1
  C  44  1  0.17876750  0.73106550  0.30743200  1
  C  47  1  0.42266650  0.75093700  0.57120650  1
  C  50  1  0.29124650  0.62270900  0.30511250  1
  C  53  1  0.31668200  0.86572900  0.57357500  1
  C  56  1  0.86745100  0.27664350  0.47038550  1
  C  57  1  0.90147650  0.30980150  0.46883100  1
  C  58  1  0.84001750  0.31225950  0.40982900  1
  C  59  1  0.80530450  0.27667000  0.40826350  1
  C  60  1  0.75871350  0.26178150  0.37927600  1
  C  61  1  0.74596350  0.28268500  0.35383850  1
  C  62  1  0.78113500  0.31819700  0.35617700  1
  C  63  1  0.82742250  0.33222000  0.38313550  1
  C  64  1  0.94812750  0.32389050  0.49551700  1
  C  65  1  0.96106550  0.30457150  0.52248500  1
  C  66  1  0.92789350  0.27173750  0.52482100  1
  C  67  1  0.88154950  0.25903000  0.49936250  1
  C  68  1  0.79722050  0.26887700  0.47007750  1
  C  69  1  0.76131250  0.23416950  0.46817100  1
  C  70  1  0.76504250  0.17274450  0.41047100  1
  C  71  1  0.79784700  0.20674650  0.40856650  1
  C  72  1  0.75217300  0.12625450  0.38497850  1
  C  73  1  0.77234000  0.11354550  0.35887250  1
  C  74  1  0.80423300  0.14661600  0.35559800  1
  C  75  1  0.81580150  0.19274150  0.37992200  1
  C  76  1  0.81184650  0.31547500  0.49871050  1
  C  77  1  0.79006200  0.32823400  0.52305400  1
  C  78  1  0.75372650  0.29306300  0.51978850  1
  C  79  1  0.74033200  0.24679050  0.49368250  1
  C  92  1  0.81695250  0.25723150  0.43932300  1
  C  93  1  0.74437800  0.18465850  0.43931750  1
  C  96  1  0.88953650  0.32982350  0.43933400  1
  C  99  1  0.94065600  0.24905500  0.55134700  1
  C  102  1  0.69675750  0.26892650  0.32731200  1
  C  105  1  0.82821700  0.13426050  0.33053950  1
  C  108  1  0.80275950  0.37727300  0.54811850  1
  C  111  1  0.78307850  0.53109300  0.19374450  1
  C  112  1  0.74992750  0.53196400  0.15903050  1
  C  113  1  0.74744100  0.46802050  0.09757350  1
  C  114  1  0.78302850  0.46889500  0.13159950  1
  C  115  1  0.79790600  0.43717950  0.11749950  1
  C  116  1  0.77700450  0.40352850  0.07115800  1
  C  117  1  0.74149350  0.40318950  0.03798300  1
  C  118  1  0.72745950  0.43544250  0.05092500  1
  C  119  1  0.73586000  0.56454550  0.17162750  1
  C  120  1  0.75517150  0.59679700  0.21791350  1
  C  121  1  0.78800750  0.59645950  0.25308600  1
  C  122  1  0.80070000  0.56281050  0.24033750  1
  C  123  1  0.79083350  0.46862800  0.20121750  1
  C  124  1  0.82554450  0.46742500  0.23401350  1
  C  125  1  0.88696950  0.53256300  0.23772050  1
  C  126  1  0.85296500  0.53136300  0.20181300  1
  C  127  1  0.93345850  0.56617100  0.25870350  1
  C  128  1  0.94616750  0.59904300  0.24530350  1
  C  129  1  0.91309300  0.59786750  0.20896150  1
  C  130  1  0.86696750  0.56331200  0.18716250  1
  C  131  1  0.74423350  0.43668900  0.18328350  1
  C  132  1  0.73148000  0.40210850  0.19482450  1
  C  133  1  0.76665050  0.40093200  0.22671950  1
  C  134  1  0.81292400  0.43381350  0.24689050  1
  C  147  1  0.80248150  0.49999450  0.18209800  1
  C  148  1  0.87505450  0.49999350  0.25466200  1
  C  151  1  0.72989250  0.49999050  0.10951300  1
  C  154  1  0.81069500  0.63191000  0.30229200  1
  C  157  1  0.79076500  0.36808350  0.05839150  1
  C  160  1  0.92544750  0.63420550  0.19625600  1
  C  163  1  0.68244250  0.36575650  0.17082900  1
  C  166  1  0.33639800  0.46894750  0.68491950  1
  C  167  1  0.37198800  0.47051100  0.71963400  1
  C  168  1  0.36951400  0.52949550  0.78109150  1
  C  169  1  0.33636300  0.53105700  0.74706800  1
  C  170  1  0.31873900  0.56002600  0.76116400  1
  C  171  1  0.33145750  0.58550050  0.80751000  1
  C  172  1  0.36428750  0.58315600  0.84068050  1
  C  173  1  0.38358850  0.55616900  0.82774050  1
  C  174  1  0.39195900  0.44383100  0.70703800  1
  C  175  1  0.37792800  0.41686150  0.66075050  1
  C  176  1  0.34241750  0.41452250  0.62557900  1
  C  177  1  0.32152250  0.43997050  0.63832700  1
  C  178  1  0.26646800  0.46924050  0.67745850  1
  C  179  1  0.23246600  0.47115000  0.64466000  1
  C  180  1  0.29389050  0.52885100  0.64093150  1
  C  181  1  0.32860150  0.53076100  0.67684150  1
  C  182  1  0.30651000  0.55435000  0.61994100  1
  C  183  1  0.35278100  0.58045750  0.63333450  1
  C  184  1  0.38795150  0.58373050  0.66967700  1
  C  185  1  0.37519950  0.55941150  0.69148300  1
  C  186  1  0.25246850  0.44059650  0.69541600  1
  C  187  1  0.20633950  0.41625150  0.68383000  1
  C  188  1  0.17326600  0.41952600  0.65193800  1
  C  189  1  0.18598100  0.44566650  0.63180250  1
  C  202  1  0.31695400  0.50000150  0.69656950  1
  C  203  1  0.24438000  0.49999800  0.62399700  1
  C  206  1  0.38953950  0.50000250  0.76915300  1
  C  209  1  0.32865650  0.38799700  0.57637250  1
  C  212  1  0.30878850  0.61203800  0.82027450  1
  C  215  1  0.43699200  0.60878850  0.68237450  1
  C  218  1  0.19398050  0.39116900  0.70779050  1
  C  221  1  0.52865950  0.74558400  0.21600350  1
  C  222  1  0.53021900  0.78029700  0.25158700  1
  C  223  1  0.58922400  0.84175600  0.24913300  1
  C  224  1  0.59078000  0.80773050  0.21597450  1
  C  225  1  0.61976600  0.82183200  0.19836900  1
  C  226  1  0.64523000  0.86817650  0.21108250  1
  C  227  1  0.64289450  0.90134850  0.24391900  1
  C  228  1  0.61591100  0.88840900  0.26322400  1
  C  229  1  0.50353950  0.76770150  0.27155800  1
  C  230  1  0.47657200  0.72141450  0.25752950  1
  C  231  1  0.47423550  0.68624400  0.22201850  1
  C  232  1  0.49966650  0.69899150  0.20111000  1
  C  233  1  0.52896500  0.73812800  0.14607800  1
  C  234  1  0.53087550  0.70533100  0.11207850  1
  C  235  1  0.58856300  0.70159150  0.17350350  1
  C  236  1  0.59047300  0.73749950  0.20821150  1
  C  237  1  0.61404200  0.68058200  0.18612300  1
  C  238  1  0.64018500  0.69400600  0.23239800  1
  C  239  1  0.64344050  0.73033850  0.26756500  1
  C  240  1  0.61911750  0.75214150  0.25481200  1
  C  241  1  0.50031900  0.75608500  0.13207800  1
  C  242  1  0.47600100  0.74452000  0.08595300  1
  C  243  1  0.47926600  0.71261850  0.05287750  1
  C  244  1  0.50540000  0.69247850  0.06559350  1
  C  257  1  0.55971900  0.75723350  0.19656550  1
  C  258  1  0.55971750  0.68466100  0.12399050  1
  C  261  1  0.55972300  0.82981550  0.26914950  1
  C  264  1  0.44771900  0.63703700  0.20826900  1
  C  267  1  0.67176100  0.88094000  0.18840600  1
  C  270  1  0.66851200  0.74304200  0.31660500  1
  C  273  1  0.45093250  0.76849400  0.07359350  1
  C  276  1  0.59079600  0.25440100  0.66267900  1
  C  277  1  0.59167150  0.21968900  0.62953050  1
  C  278  1  0.52776300  0.15823000  0.62708100  1
  C  279  1  0.52863150  0.19225500  0.66266550  1
  C  280  1  0.49693850  0.17815550  0.67756600  1
  C  281  1  0.46329000  0.13181350  0.65666450  1
  C  282  1  0.46295150  0.09864100  0.62115550  1
  C  283  1  0.49519950  0.11157950  0.60711500  1
  C  284  1  0.62422850  0.23228450  0.61543400  1
  C  285  1  0.65648800  0.27857100  0.63475700  1
  C  286  1  0.65614650  0.31374350  0.66758600  1
  C  287  1  0.62249850  0.30099350  0.68028000  1
  C  288  1  0.52832650  0.26185250  0.67044600  1
  C  289  1  0.52712800  0.29465600  0.70515300  1
  C  290  1  0.59229600  0.29840000  0.76658200  1
  C  291  1  0.59109850  0.26249300  0.73258150  1
  C  292  1  0.62591550  0.31940300  0.81307150  1
  C  293  1  0.65878950  0.30600400  0.82578650  1
  C  294  1  0.65762050  0.26966300  0.79271650  1
  C  295  1  0.62306200  0.24785900  0.74659200  1
  C  296  1  0.49635600  0.24388100  0.62384700  1
  C  297  1  0.46181850  0.25547350  0.61108300  1
  C  298  1  0.46064350  0.28737100  0.64625250  1
  C  299  1  0.49349750  0.30751050  0.69252700  1
  C  312  1  0.55971250  0.24275250  0.68209500  1
  C  313  1  0.55971350  0.31532800  0.75466550  1
  C  316  1  0.55971800  0.17017050  0.60951850  1
  C  319  1  0.69159250  0.36294950  0.69026900  1
  C  322  1  0.42785350  0.11904800  0.67043550  1
  C  325  1  0.69396350  0.25696750  0.80507800  1
  C  328  1  0.42549750  0.23151800  0.56203950  1
  C  661  1  0.33064150  0.94496500  0.60102150  1
  C  663  1  0.39011850  0.00863850  0.67535400  1
  C  664  1  0.39492150  0.03852350  0.65745400  1
  C  666  1  0.33489250  0.97468400  0.58266250  1
  C  669  1  0.32727750  0.96829900  0.51202950  1
  C  677  1  0.78880700  0.39074750  0.61339950  1
  C  679  1  0.72934400  0.40562150  0.61761150  1
  C  680  1  0.72453250  0.38290600  0.64268250  1
  C  682  1  0.78454700  0.36812700  0.63885700  1
  C  685  1  0.79214250  0.30509500  0.64006750  1
  C  693  1  0.77642000  0.05502150  0.26526450  1
  C  695  1  0.78708750  0.99135350  0.26107000  1
  C  696  1  0.73930300  0.96146650  0.23599550  1
  C  698  1  0.72834150  0.02529950  0.23980000  1
  C  701  1  0.66409550  0.03168500  0.23857950  1
  C  709  1  0.34305850  0.60923950  0.27769300  1
  C  711  1  0.33239250  0.59435500  0.20335250  1
  C  712  1  0.38017650  0.61707750  0.22125300  1
  C  714  1  0.39113700  0.63186450  0.29604950  1
  C  717  1  0.45538000  0.69490750  0.36667250  1
  C  725  1  0.66895800  0.33831950  0.22262650  1
  C  727  1  0.65409750  0.26398950  0.21197500  1
  C  728  1  0.67680350  0.28189700  0.25976250  1
  C  730  1  0.69156950  0.35668450  0.27070400  1
  C  733  1  0.75458900  0.42731950  0.33494750  1
  C  741  1  0.11474050  0.32589450  0.65598100  1
  C  743  1  0.05107750  0.32169700  0.66666250  1
  C  744  1  0.02118700  0.29662950  0.61887850  1
  C  746  1  0.08501350  0.30044000  0.60790450  1
  C  749  1  0.09140050  0.29924500  0.54366750  1
  C  757  1  0.45046550  0.67406600  0.66841650  1
  C  759  1  0.46533200  0.67827250  0.60894750  1
  C  760  1  0.44262150  0.70334650  0.60414100  1
  C  762  1  0.42785100  0.69952950  0.66416050  1
  C  765  1  0.36482300  0.70074300  0.67176500  1
  C  773  1  0.00468300  0.66164200  0.21021200  1
  C  775  1  0.06835450  0.73598050  0.26967900  1
  C  776  1  0.09824100  0.71808200  0.27449000  1
  C  778  1  0.03440400  0.64328500  0.21447100  1
  C  781  1  0.02802600  0.57265900  0.20687300  1
  C  789  1  0.38565350  0.71669050  0.99435700  1
  C  791  1  0.38145500  0.72736050  0.93069050  1
  C  792  1  0.35637750  0.67957600  0.90080150  1
  C  794  1  0.36019050  0.66861350  0.96463400  1
  C  797  1  0.35897950  0.60437200  0.97102050  1
  C  805  1  0.39808250  0.28333950  0.54857900  1
  C  807  1  0.32374150  0.27267150  0.53369400  1
  C  808  1  0.34164200  0.32045600  0.55641400  1
  C  810  1  0.41643950  0.33141600  0.57120350  1
  C  813  1  0.48706600  0.39564550  0.63424750  1
  C  821  1  0.72138150  0.27090700  0.88430750  1
  C  823  1  0.79571200  0.33036800  0.94799600  1
  C  824  1  0.77780150  0.33516400  0.97787150  1
  C  826  1  0.70301400  0.27515400  0.91402000  1
  C  829  1  0.63237750  0.26754550  0.90761600  1
  C  837  1  0.73380350  0.72910200  0.33008050  1
  C  839  1  0.73803550  0.66965400  0.34496850  1
  C  840  1  0.76310500  0.66484300  0.32225200  1
  C  842  1  0.75926050  0.72484500  0.30746050  1
  C  845  1  0.76045800  0.73242800  0.24441800  1
  H  25  1  0.38328300  0.91999300  0.56367100  1
  H  26  1  0.40570850  0.89856100  0.50744650  1
  H  27  1  0.39018550  0.77787300  0.37123050  1
  H  28  1  0.35541450  0.69921600  0.31501550  1
  H  29  1  0.27946800  0.65939550  0.37632350  1
  H  30  1  0.28212500  0.78274950  0.50233850  1
  H  31  1  0.38585150  0.76538800  0.50206950  1
  H  32  1  0.34595750  0.68543200  0.55998350  1
  H  33  1  0.26731850  0.65255500  0.50519450  1
  H  34  1  0.26234950  0.76339400  0.37657450  1
  H  35  1  0.14639050  0.64172050  0.37343100  1
  H  36  1  0.12448150  0.66557200  0.31864650  1
  H  39  1  0.36918450  0.83239450  0.41940400  1
  H  40  1  0.41203600  0.82938250  0.45925450  1
  H  42  1  0.21535100  0.63315550  0.41887350  1
  H  43  1  0.21330600  0.67607000  0.45975600  1
  H  45  1  0.16615850  0.70238050  0.27403900  1
  H  46  1  0.20916000  0.75908200  0.31369800  1
  H  48  1  0.42737900  0.77172200  0.60460100  1
  H  49  1  0.44441700  0.77506400  0.56494100  1
  H  51  1  0.27193500  0.61947600  0.27205100  1
  H  52  1  0.26564450  0.60122800  0.31022050  1
  H  54  1  0.29009500  0.83501500  0.56846800  1
  H  55  1  0.34651950  0.87947000  0.60662650  1
  H  80  1  0.73615500  0.30076350  0.53577150  1
  H  81  1  0.71371600  0.22211350  0.49188950  1
  H  82  1  0.72925050  0.10142450  0.38673200  1
  H  83  1  0.76404050  0.07998700  0.34286750  1
  H  84  1  0.83997700  0.21724400  0.37898600  1
  H  85  1  0.83730950  0.34059150  0.49967800  1
  H  86  1  0.73357150  0.23659450  0.37856700  1
  H  87  1  0.77346750  0.33442550  0.33853500  1
  H  88  1  0.85210300  0.35827850  0.38429550  1
  H  89  1  0.85707200  0.23460400  0.50008100  1
  H  90  1  0.97303450  0.34745000  0.49439550  1
  H  91  1  0.99494300  0.31457200  0.54015400  1
  H  94  1  0.75024100  0.17060100  0.46224800  1
  H  95  1  0.70738950  0.16759600  0.41638150  1
  H  97  1  0.90408400  0.32392950  0.41686250  1
  H  98  1  0.90610700  0.36684100  0.46181600  1
  H  100  1  0.95325700  0.22826300  0.53526600  1
  H  101  1  0.91026350  0.22493400  0.54897350  1
  H  103  1  0.69205050  0.29761350  0.34338500  1
  H  104  1  0.67500750  0.24091550  0.32969300  1
  H  106  1  0.84753300  0.12051950  0.34662950  1
  H  107  1  0.85381800  0.16497350  0.33466050  1
  H  109  1  0.82934900  0.39875650  0.54399750  1
  H  110  1  0.77292750  0.38049750  0.53203300  1
  H  135  1  0.75894800  0.37565900  0.23499800  1
  H  136  1  0.83760150  0.43188650  0.26978900  1
  H  137  1  0.95828700  0.56809300  0.28530300  1
  H  138  1  0.97972350  0.62431000  0.26286350  1
  H  139  1  0.84246450  0.56298500  0.16172550  1
  H  140  1  0.71912200  0.43698650  0.15907850  1
  H  141  1  0.82309300  0.43722400  0.14197600  1
  H  142  1  0.72527500  0.37930200  0.00410900  1
  H  143  1  0.70143650  0.43410200  0.02601850  1
  H  144  1  0.82513350  0.56276300  0.26547550  1
  H  145  1  0.71228550  0.56588000  0.14694850  1
  H  146  1  0.74518050  0.62068200  0.22558350  1
  H  149  1  0.88911850  0.51992150  0.29165100  1
  H  150  1  0.89211350  0.48006400  0.24879050  1
  H  152  1  0.73579550  0.52042300  0.09292750  1
  H  153  1  0.69287600  0.47955800  0.09498400  1
  H  155  1  0.83147350  0.66530150  0.30699600  1
  H  156  1  0.83482700  0.62564800  0.32403900  1
  H  158  1  0.76207800  0.33468700  0.04577200  1
  H  159  1  0.81877400  0.37434350  0.08878550  1
  H  161  1  0.93918950  0.66726300  0.22608550  1
  H  162  1  0.89473250  0.62909250  0.16966600  1
  H  164  1  0.66096250  0.37086050  0.14522000  1
  H  165  1  0.67923000  0.33270550  0.15152250  1
  H  190  1  0.13970400  0.40350500  0.64362500  1
  H  191  1  0.16114300  0.44739050  0.60885250  1
  H  192  1  0.28182850  0.55257300  0.59333850  1
  H  193  1  0.36048150  0.59644650  0.61577000  1
  H  194  1  0.40030850  0.56034700  0.71692250  1
  H  195  1  0.27696600  0.43963950  0.71957150  1
  H  196  1  0.29433200  0.56076250  0.73668750  1
  H  197  1  0.37429450  0.60083350  0.87456000  1
  H  198  1  0.40716300  0.55506500  0.85265100  1
  H  199  1  0.29632500  0.43925400  0.61319100  1
  H  200  1  0.41799000  0.44495900  0.73171800  1
  H  201  1  0.39414300  0.39920150  0.65308150  1
  H  204  1  0.22731500  0.47706300  0.58700900  1
  H  205  1  0.23032200  0.52292850  0.62986250  1
  H  207  1  0.42655750  0.52248550  0.78573400  1
  H  208  1  0.38363550  0.47752050  0.78368600  1
  H  210  1  0.35734100  0.40407350  0.57166450  1
  H  211  1  0.30064050  0.39037550  0.55462400  1
  H  213  1  0.28799600  0.59596750  0.83287850  1
  H  214  1  0.28466950  0.60966700  0.78988150  1
  H  216  1  0.44021500  0.59270000  0.65254300  1
  H  217  1  0.45847300  0.60466550  0.70896250  1
  H  219  1  0.22469000  0.39527750  0.73338150  1
  H  220  1  0.18024000  0.40724450  0.72711550  1
  H  245  1  0.46326650  0.70432350  0.01932100  1
  H  246  1  0.50712900  0.66953250  0.04075550  1
  H  247  1  0.61231200  0.65401800  0.16144800  1
  H  248  1  0.65617600  0.67644300  0.24010000  1
  H  249  1  0.62005600  0.77757700  0.27992600  1
  H  250  1  0.49938450  0.78025950  0.15658100  1
  H  251  1  0.62048350  0.79735250  0.17394600  1
  H  252  1  0.66055600  0.93522450  0.25391150  1
  H  253  1  0.61478750  0.91331150  0.28678300  1
  H  254  1  0.49897000  0.67384850  0.17593550  1
  H  255  1  0.50467000  0.79238250  0.29759350  1
  H  256  1  0.45892300  0.71374750  0.27375350  1
  H  259  1  0.53677950  0.64767300  0.10692050  1
  H  260  1  0.58265500  0.69052750  0.10993950  1
  H  262  1  0.58220200  0.84639000  0.30616900  1
  H  263  1  0.53724650  0.84435900  0.26324950  1
  H  265  1  0.46380050  0.63233850  0.23695700  1
  H  266  1  0.45010050  0.61528900  0.18025750  1
  H  268  1  0.65568800  0.89354750  0.16761850  1
  H  269  1  0.66938800  0.85054800  0.16428500  1
  H  271  1  0.65243700  0.71320950  0.31983250  1
  H  272  1  0.66438600  0.76962700  0.33808800  1
  H  274  1  0.45505050  0.79409400  0.10430550  1
  H  275  1  0.46701700  0.78781000  0.05985100  1
  H  300  1  0.43539750  0.29568550  0.63854600  1
  H  301  1  0.49161050  0.33046000  0.71720050  1
  H  302  1  0.62782100  0.34598900  0.83789900  1
  H  303  1  0.68405150  0.32356550  0.85934100  1
  H  304  1  0.62273950  0.22242150  0.72209300  1
  H  305  1  0.49670650  0.21973500  0.59872950  1
  H  306  1  0.49697650  0.20263950  0.70274000  1
  H  307  1  0.43907200  0.06476300  0.60494500  1
  H  308  1  0.49385850  0.08667400  0.58109350  1
  H  309  1  0.62245050  0.32613450  0.70471200  1
  H  310  1  0.62559500  0.20760150  0.59189750  1
  H  311  1  0.68037600  0.28623950  0.62477050  1
  H  314  1  0.57962900  0.35231450  0.76871150  1
  H  315  1  0.53979450  0.30946100  0.77173350  1
  H  317  1  0.58016400  0.15359950  0.61542450  1
  H  318  1  0.53927350  0.15562600  0.57250050  1
  H  320  1  0.72498650  0.36765750  0.71105100  1
  H  321  1  0.68532600  0.38469750  0.71439450  1
  H  323  1  0.39445550  0.10643650  0.64175600  1
  H  324  1  0.43412300  0.14944050  0.69845350  1
  H  326  1  0.72702050  0.28680400  0.81883350  1
  H  327  1  0.68886300  0.23038450  0.77436650  1
  H  329  1  0.43060900  0.20591950  0.54055550  1
  H  330  1  0.39243050  0.21220150  0.55879500  1
  H  667  1  0.40966750  0.02043800  0.70946750  1
  H  670  1  0.30055900  0.95283500  0.47671600  1
  H  671  1  0.34932450  0.95323650  0.51187200  1
  H  672  1  0.34734300  0.00510500  0.52545900  1
  H  674  1  0.45874750  0.09150250  0.70502900  1
  H  676  1  0.27408800  0.88726100  0.54318600  1
  H  683  1  0.70980300  0.42019450  0.60987050  1
  H  686  1  0.81885300  0.29648750  0.65131050  1
  H  687  1  0.77008950  0.28289450  0.60295700  1
  H  688  1  0.77207950  0.29846000  0.65681050  1
  H  690  1  0.66070900  0.36667000  0.63184000  1
  H  692  1  0.84534700  0.38944300  0.61223000  1
  H  699  1  0.80940550  0.97955800  0.26881950  1
  H  702  1  0.64423950  0.04714250  0.22732200  1
  H  703  1  0.67900650  0.04675650  0.27568900  1
  H  704  1  0.64072350  0.99487950  0.22184900  1
  H  706  1  0.73390600  0.90848850  0.24684150  1
  H  708  1  0.77627800  0.11272500  0.26642200  1
  H  715  1  0.31007450  0.57977550  0.16923500  1
  H  718  1  0.47523550  0.70352050  0.40199300  1
  H  719  1  0.44046600  0.71710300  0.36681700  1
  H  720  1  0.47875450  0.70154000  0.35324050  1
  H  722  1  0.38556300  0.63330150  0.17365850  1
  H  724  1  0.34320150  0.61056200  0.33554250  1
  H  731  1  0.63953000  0.22987350  0.18966350  1
  H  734  1  0.76318950  0.46263850  0.35479500  1
  H  735  1  0.77679300  0.42747150  0.32004250  1
  H  736  1  0.76122350  0.41389450  0.35832800  1
  H  738  1  0.69303750  0.23431200  0.26516650  1
  H  740  1  0.67023800  0.39615150  0.22274950  1
  H  747  1  0.03928400  0.32944050  0.68898350  1
  H  750  1  0.10685050  0.28798650  0.52380200  1
  H  751  1  0.10648350  0.33635700  0.55859350  1
  H  752  1  0.05459650  0.28252850  0.52030000  1
  H  754  1  0.96821750  0.30748900  0.61349850  1
  H  756  1  0.17244350  0.32706600  0.65582550  1
  H  763  1  0.47990100  0.67052750  0.58940250  1
  H  766  1  0.35622100  0.71199450  0.69848050  1
  H  767  1  0.34262400  0.66363400  0.64972000  1
  H  768  1  0.35818300  0.71748000  0.65169700  1
  H  770  1  0.42638150  0.69250600  0.54031850  1
  H  772  1  0.44917050  0.67290550  0.72496100  1
  H  779  1  0.08015100  0.77009350  0.28922050  1
  H  782  1  0.01256200  0.53734150  0.18016150  1
  H  783  1  0.01296600  0.57250700  0.22892300  1
  H  784  1  0.06483100  0.58609000  0.22693800  1
  H  786  1  0.15121800  0.76566950  0.33831150  1
  H  788  1  0.94697750  0.60379700  0.15367050  1
  H  795  1  0.38920050  0.74967700  0.91889250  1
  H  798  1  0.34772350  0.58451150  0.98647600  1
  H  799  1  0.39609000  0.61928650  0.98609150  1
  H  800  1  0.34225050  0.58099800  0.93421450  1
  H  802  1  0.36722950  0.67417800  0.84782650  1
  H  804  1  0.38682150  0.71654800  0.05206250  1
  H  811  1  0.28962650  0.25035500  0.51911550  1
  H  814  1  0.52238650  0.41550700  0.64286050  1
  H  815  1  0.48721750  0.38072250  0.65643600  1
  H  816  1  0.47363600  0.41902150  0.64089850  1
  H  818  1  0.29405400  0.32584700  0.57264900  1
  H  820  1  0.45593650  0.28348250  0.54990700  1
  H  827  1  0.82982950  0.34991350  0.95980300  1
  H  830  1  0.59705900  0.24082950  0.89214550  1
  H  831  1  0.63223000  0.28959600  0.89255900  1
  H  832  1  0.64580050  0.28760850  0.94442200  1
  H  834  1  0.82538450  0.39898050  0.03086500  1
  H  836  1  0.66354750  0.21436750  0.82659100  1
  H  843  1  0.73030150  0.65011350  0.35954600  1
  H  846  1  0.77169300  0.75913450  0.23580350  1
  H  847  1  0.72334950  0.71036800  0.22222050  1
  H  848  1  0.77720900  0.71237150  0.23778850  1
  H  850  1  0.75227750  0.60102550  0.30602800  1
  H  852  1  0.73261800  0.78563300  0.32876600  1
  N  662  1  0.35833350  0.96357200  0.64677650  1
  N  665  1  0.36623300  0.02004500  0.61190300  1
  N  673  1  0.42633900  0.08608700  0.68746700  1
  N  675  1  0.29809700  0.89749650  0.57555450  1
  N  678  1  0.76112700  0.40882700  0.60432800  1
  N  681  1  0.75320850  0.36602950  0.65287900  1
  N  689  1  0.69311550  0.38150500  0.65883050  1
  N  691  1  0.82134800  0.39781950  0.59847050  1
  N  694  1  0.80357200  0.03641950  0.27434750  1
  N  697  1  0.71222550  0.97994150  0.22578600  1
  N  705  1  0.72175450  0.91390100  0.21984850  1
  N  707  1  0.79841450  0.10248850  0.28018500  1
  N  710  1  0.31590700  0.59115350  0.23193450  1
  N  713  1  0.40725500  0.63396000  0.26680700  1
  N  721  1  0.39772500  0.61847400  0.19123600  1
  N  723  1  0.32106250  0.60217300  0.30316450  1
  N  726  1  0.65089150  0.29256400  0.19548150  1
  N  729  1  0.69366950  0.32744900  0.28683050  1
  N  737  1  0.67820350  0.25188700  0.27731750  1
  N  739  1  0.66187850  0.36378150  0.20061900  1
  N  742  1  0.09614150  0.33497000  0.68313950  1
  N  745  1  0.03965650  0.28642650  0.59179400  1
  N  753  1  0.97362400  0.28049200  0.60133900  1
  N  755  1  0.16220850  0.34081450  0.67797000  1
  N  758  1  0.46853750  0.66498850  0.64073100  1
  N  761  1  0.42575150  0.71355100  0.63282250  1
  N  769  1  0.44122050  0.71949700  0.57272450  1
  N  771  1  0.45754300  0.65914250  0.70096050  1
  N  774  1  0.02328800  0.70739850  0.23789450  1
  N  777  1  0.07976300  0.67252750  0.24580950  1
  N  785  1  0.14580450  0.74809850  0.30590600  1
  N  787  1  0.95721400  0.63616950  0.17766950  1
  N  790  1  0.39473350  0.74384250  0.97575400  1
  N  793  1  0.34617150  0.65249900  0.91927550  1
  N  801  1  0.34023350  0.66202800  0.85323650  1
  N  803  1  0.40057950  0.73868600  0.04182650  1
  N  806  1  0.35232300  0.25618600  0.53049400  1
  N  809  1  0.38719650  0.34753300  0.57329550  1
  N  817  1  0.31162450  0.33800400  0.55781450  1
  N  819  1  0.42355500  0.26134050  0.54151050  1
  N  822  1  0.76714100  0.29859350  0.90292650  1
  N  825  1  0.73224750  0.30648300  0.95938250  1
  N  833  1  0.80781050  0.36657150  0.02544100  1
  N  835  1  0.69592150  0.23837150  0.83683800  1
  N  838  1  0.72474150  0.70142850  0.34816600  1
  N  841  1  0.77329300  0.69351500  0.30536800  1
  N  849  1  0.77926250  0.63343200  0.32085450  1
  N  851  1  0.71886650  0.76163800  0.33714750  1
  O  668  1  0.30548550  0.95918650  0.53779500  1
  O  684  1  0.81394600  0.35265500  0.65275400  1
  O  700  1  0.69896750  0.04079150  0.22589000  1
  O  716  1  0.42051250  0.64734600  0.34092250  1
  O  732  1  0.70703150  0.40155400  0.30007050  1
  O  748  1  0.10050100  0.28653350  0.57852250  1
  O  764  1  0.41238350  0.71343450  0.69356400  1
  O  780  1  0.01890750  0.59841500  0.18507050  1
  O  796  1  0.34628400  0.63923800  0.98012700  1
  O  812  1  0.46131150  0.36079200  0.58668250  1
  O  828  1  0.65814100  0.24574850  0.89850950  1
  O  844  1  0.77314900  0.75423800  0.29197800  1
