# generated using pymatgen
data_CuH10C10NO4
_symmetry_space_group_name_H-M   'P 1'
_cell_length_a   8.56119000
_cell_length_b   12.52120000
_cell_length_c   12.52122000
_cell_angle_alpha   64.14435000
_cell_angle_beta   80.77041000
_cell_angle_gamma   80.77039000
_symmetry_Int_Tables_number   1
_chemical_formula_structural   CuH10C10NO4
_chemical_formula_sum   'Cu4 H40 C40 N4 O16'
_cell_volume   1186.03216058
_cell_formula_units_Z   4
loop_
 _symmetry_equiv_pos_site_id
 _symmetry_equiv_pos_as_xyz
  1  'x, y, z'
loop_
 _atom_site_type_symbol
 _atom_site_label
 _atom_site_symmetry_multiplicity
 _atom_site_fract_x
 _atom_site_fract_y
 _atom_site_fract_z
 _atom_site_occupancy
  Cu  Cu1  1  0.07425000  0.40425000  0.99239000  1.0
  Cu  Cu2  1  0.42575000  0.00762000  0.59576000  1.0
  Cu  Cu3  1  0.92575000  0.59575000  0.00761000  1.0
  Cu  Cu4  1  0.57425000  0.99238000  0.40425000  1.0
  H  H1  1  0.25728000  0.73737000  0.65724000  1.0
  H  H2  1  0.20413000  0.63621000  0.60838000  1.0
  H  H3  1  0.93449000  0.75909000  0.56816000  1.0
  H  H4  1  0.99059000  0.85194000  0.62515000  1.0
  H  H5  1  0.02349000  0.94512000  0.40477000  1.0
  H  H6  1  0.15307000  0.82157000  0.40043000  1.0
  H  H7  1  0.15843000  0.14764000  0.17049000  1.0
  H  H8  1  0.34804000  0.97318000  0.18634000  1.0
  H  H9  1  0.50410000  0.16829000  0.81106000  1.0
  H  H10  1  0.31038000  0.33704000  0.81499000  1.0
  H  H11  1  0.24272000  0.34276000  0.26263000  1.0
  H  H12  1  0.29586000  0.39162000  0.36379000  1.0
  H  H13  1  0.56550000  0.43184000  0.24091000  1.0
  H  H14  1  0.50941000  0.37485000  0.14806000  1.0
  H  H15  1  0.47650000  0.59523000  0.05488000  1.0
  H  H16  1  0.34692000  0.59957000  0.17843000  1.0
  H  H17  1  0.34156000  0.82951000  0.85236000  1.0
  H  H18  1  0.15196000  0.81366000  0.02682000  1.0
  H  H19  1  0.99590000  0.18895000  0.83172000  1.0
  H  H20  1  0.18962000  0.18501000  0.66296000  1.0
  H  H21  1  0.74272000  0.26263000  0.34276000  1.0
  H  H22  1  0.79586000  0.36379000  0.39162000  1.0
  H  H23  1  0.06550000  0.24091000  0.43184000  1.0
  H  H24  1  0.00941000  0.14806000  0.37485000  1.0
  H  H25  1  0.97650000  0.05488000  0.59523000  1.0
  H  H26  1  0.84692000  0.17843000  0.59957000  1.0
  H  H27  1  0.84156000  0.85236000  0.82951000  1.0
  H  H28  1  0.65196000  0.02682000  0.81366000  1.0
  H  H29  1  0.49590000  0.83171000  0.18894000  1.0
  H  H30  1  0.68962000  0.66296000  0.18501000  1.0
  H  H31  1  0.75728000  0.65724000  0.73738000  1.0
  H  H32  1  0.70413000  0.60838000  0.63621000  1.0
  H  H33  1  0.43449000  0.56816000  0.75909000  1.0
  H  H34  1  0.49059000  0.62515000  0.85194000  1.0
  H  H35  1  0.52350000  0.40477000  0.94512000  1.0
  H  H36  1  0.65307000  0.40043000  0.82157000  1.0
  H  H37  1  0.65843000  0.17049000  0.14764000  1.0
  H  H38  1  0.84804000  0.18634000  0.97318000  1.0
  H  H39  1  0.00410000  0.81105000  0.16829000  1.0
  H  H40  1  0.81038000  0.81499000  0.33704000  1.0
  C  C1  1  0.09372000  0.62204000  0.77901000  1.0
  C  C2  1  0.15640000  0.69616000  0.65130000  1.0
  C  C3  1  0.03655000  0.79598000  0.57769000  1.0
  C  C4  1  0.11276000  0.87326000  0.45325000  1.0
  C  C5  1  0.25339000  0.92996000  0.45940000  1.0
  C  C6  1  0.23693000  0.14763000  0.09295000  1.0
  C  C7  1  0.34320000  0.04905000  0.09990000  1.0
  C  C8  1  0.44333000  0.05188000  0.99836000  1.0
  C  C9  1  0.43131000  0.15841000  0.89375000  1.0
  C  C10  1  0.32219000  0.25325000  0.89437000  1.0
  C  C11  1  0.40627000  0.22100000  0.37796000  1.0
  C  C12  1  0.34360000  0.34870000  0.30384000  1.0
  C  C13  1  0.46345000  0.42231000  0.20402000  1.0
  C  C14  1  0.38723000  0.54675000  0.12674000  1.0
  C  C15  1  0.24661000  0.54060000  0.07004000  1.0
  C  C16  1  0.26306000  0.90705000  0.85237000  1.0
  C  C17  1  0.15680000  0.90010000  0.95095000  1.0
  C  C18  1  0.05667000  0.00164000  0.94812000  1.0
  C  C19  1  0.06868000  0.10625000  0.84159000  1.0
  C  C20  1  0.17780000  0.10563000  0.74675000  1.0
  C  C21  1  0.90628000  0.37796000  0.22100000  1.0
  C  C22  1  0.84360000  0.30384000  0.34870000  1.0
  C  C23  1  0.96345000  0.20402000  0.42231000  1.0
  C  C24  1  0.88724000  0.12674000  0.54675000  1.0
  C  C25  1  0.74661000  0.07004000  0.54060000  1.0
  C  C26  1  0.76306000  0.85236000  0.90706000  1.0
  C  C27  1  0.65680000  0.95095000  0.90010000  1.0
  C  C28  1  0.55667000  0.94812000  0.00164000  1.0
  C  C29  1  0.56868000  0.84159000  0.10625000  1.0
  C  C30  1  0.67780000  0.74675000  0.10563000  1.0
  C  C31  1  0.59372000  0.77900000  0.62204000  1.0
  C  C32  1  0.65640000  0.65130000  0.69616000  1.0
  C  C33  1  0.53655000  0.57769000  0.79598000  1.0
  C  C34  1  0.61276000  0.45325000  0.87326000  1.0
  C  C35  1  0.75339000  0.45940000  0.92997000  1.0
  C  C36  1  0.73693000  0.09295000  0.14763000  1.0
  C  C37  1  0.84320000  0.09990000  0.04905000  1.0
  C  C38  1  0.94333000  0.99836000  0.05188000  1.0
  C  C39  1  0.93131000  0.89375000  0.15841000  1.0
  C  C40  1  0.82219000  0.89437000  0.25325000  1.0
  N  N1  1  0.22467000  0.24854000  0.99180000  1.0
  N  N2  1  0.27532000  0.00820000  0.75146000  1.0
  N  N3  1  0.77532000  0.75146000  0.00820000  1.0
  N  N4  1  0.72467000  0.99180000  0.24854000  1.0
  O  O1  1  0.13375000  0.50952000  0.82087000  1.0
  O  O2  1  0.00807000  0.67761000  0.83599000  1.0
  O  O3  1  0.24278000  0.96067000  0.54498000  1.0
  O  O4  1  0.37230000  0.94110000  0.38064000  1.0
  O  O5  1  0.36624000  0.17913000  0.49048000  1.0
  O  O6  1  0.49192000  0.16401000  0.32239000  1.0
  O  O7  1  0.25722000  0.45502000  0.03933000  1.0
  O  O8  1  0.12769000  0.61936000  0.05890000  1.0
  O  O9  1  0.86624000  0.49047000  0.17913000  1.0
  O  O10  1  0.99192000  0.32239000  0.16401000  1.0
  O  O11  1  0.75722000  0.03933000  0.45502000  1.0
  O  O12  1  0.62770000  0.05890000  0.61936000  1.0
  O  O13  1  0.63375000  0.82087000  0.50953000  1.0
  O  O14  1  0.50807000  0.83599000  0.67761000  1.0
  O  O15  1  0.74278000  0.54498000  0.96067000  1.0
  O  O16  1  0.87230000  0.38064000  0.94110000  1.0
