# generated using pymatgen
data_UH6C12ClO6
_symmetry_space_group_name_H-M   'P 1'
_cell_length_a   9.95108530
_cell_length_b   9.95257000
_cell_length_c   24.41115000
_cell_angle_alpha   84.47230000
_cell_angle_beta   84.49967380
_cell_angle_gamma   60.83350026
_symmetry_Int_Tables_number   1
_chemical_formula_structural   UH6C12ClO6
_chemical_formula_sum   'U4 H24 C48 Cl4 O24'
_cell_volume   2097.96527905
_cell_formula_units_Z   4
loop_
 _symmetry_equiv_pos_site_id
 _symmetry_equiv_pos_as_xyz
  1  'x, y, z'
loop_
 _atom_site_type_symbol
 _atom_site_label
 _atom_site_symmetry_multiplicity
 _atom_site_fract_x
 _atom_site_fract_y
 _atom_site_fract_z
 _atom_site_occupancy
  U  U0  1  0.96839000  0.17625000  0.14695000  1
  U  U1  1  0.83266000  0.02405000  0.35355000  1
  U  U2  1  0.02259000  0.83405000  0.85367000  1
  U  U3  1  0.17395000  0.96865000  0.64651000  1
  H  H4  1  0.51410000  0.89838000  0.09811000  1
  H  H5  1  0.59607000  0.63538000  0.05167000  1
  H  H6  1  0.30601000  0.76144000  0.16301000  1
  H  H7  1  0.55321000  0.51267000  0.16275000  1
  H  H8  1  0.61637000  0.21518000  0.01033000  1
  H  H9  1  0.23640000  0.17792000  0.96469000  1
  H  H10  1  0.10732000  0.47791000  0.40184000  1
  H  H11  1  0.36726000  0.40194000  0.44647000  1
  H  H12  1  0.24351000  0.69574000  0.33873000  1
  H  H13  1  0.48833000  0.44521000  0.33816000  1
  H  H14  1  0.78747000  0.38228000  0.48758000  1
  H  H15  1  0.82515000  0.75296000  0.53554000  1
  H  H16  1  0.47711000  0.10589000  0.90269000  1
  H  H17  1  0.40158000  0.36785000  0.94647000  1
  H  H18  1  0.69539000  0.24390000  0.83902000  1
  H  H19  1  0.44436000  0.48819000  0.83829000  1
  H  H20  1  0.38203000  0.78819000  0.98758000  1
  H  H21  1  0.75468000  0.82453000  0.03596000  1
  H  H22  1  0.89816000  0.51107000  0.59685000  1
  H  H23  1  0.63511000  0.59620000  0.55166000  1
  H  H24  1  0.76176000  0.30820000  0.66341000  1
  H  H25  1  0.51260000  0.55494000  0.66305000  1
  H  H26  1  0.21477000  0.61677000  0.51018000  1
  H  H27  1  0.17857000  0.23620000  0.46301000  1
  C  C28  1  0.22123000  0.08324000  0.07008000  1
  C  C29  1  0.74237000  0.33279000  0.07298000  1
  C  C30  1  0.50810000  0.94188000  0.05527000  1
  C  C31  1  0.36324000  0.04143000  0.03439000  1
  C  C32  1  0.61744000  0.41770000  0.03449000  1
  C  C33  1  0.55200000  0.57896000  0.02840000  1
  C  C34  1  0.34648000  0.69147000  0.20101000  1
  C  C35  1  0.48398000  0.55284000  0.20086000  1
  C  C36  1  0.56449000  0.34001000  0.00500000  1
  C  C37  1  0.35051000  0.10144000  0.97954000  1
  C  C38  1  0.92264000  0.76966000  0.42983000  1
  C  C39  1  0.67164000  0.25201000  0.42666000  1
  C  C40  1  0.06296000  0.48319000  0.44456000  1
  C  C41  1  0.96312000  0.62782000  0.46566000  1
  C  C42  1  0.58527000  0.38011000  0.46379000  1
  C  C43  1  0.42393000  0.44612000  0.46960000  1
  C  C44  1  0.31206000  0.65512000  0.30053000  1
  C  C45  1  0.44852000  0.51540000  0.30017000  1
  C  C46  1  0.66278000  0.43392000  0.49295000  1
  C  C47  1  0.90219000  0.63944000  0.52036000  1
  C  C48  1  0.76899000  0.92266000  0.93006000  1
  C  C49  1  0.25218000  0.67193000  0.92642000  1
  C  C50  1  0.48313000  0.06189000  0.94548000  1
  C  C51  1  0.62819000  0.96231000  0.96634000  1
  C  C52  1  0.38002000  0.58591000  0.96368000  1
  C  C53  1  0.44573000  0.42449000  0.96964000  1
  C  C54  1  0.65493000  0.31274000  0.80081000  1
  C  C55  1  0.51507000  0.44902000  0.80041000  1
  C  C56  1  0.43352000  0.66342000  0.99296000  1
  C  C57  1  0.64079000  0.90161000  0.02108000  1
  C  C58  1  0.08132000  0.21961000  0.56860000  1
  C  C59  1  0.33202000  0.74188000  0.57312000  1
  C  C60  1  0.94199000  0.50604000  0.55409000  1
  C  C61  1  0.04124000  0.36149000  0.53295000  1
  C  C62  1  0.41728000  0.61758000  0.53449000  1
  C  C63  1  0.57847000  0.55234000  0.52839000  1
  C  C64  1  0.69141000  0.34842000  0.70134000  1
  C  C65  1  0.55263000  0.48580000  0.70118000  1
  C  C66  1  0.33955000  0.56487000  0.50491000  1
  C  C67  1  0.10211000  0.34980000  0.47824000  1
  C  C68  1  0.11368000  0.89215000  0.25115000  1
  C  C69  1  0.68052000  0.31461000  0.24956000  1
  C  C70  1  0.26008000  0.74337000  0.25092000  1
  C  C71  1  0.53526000  0.46368000  0.25033000  1
  C  C72  1  0.89147000  0.11467000  0.75117000  1
  C  C73  1  0.31401000  0.68165000  0.75016000  1
  C  C74  1  0.74316000  0.26146000  0.75119000  1
  C  C75  1  0.46330000  0.53638000  0.75063000  1
  Cl  Cl76  1  0.06088000  0.30637000  0.20619000  1
  Cl  Cl77  1  0.72371000  0.90432000  0.29682000  1
  Cl  Cl78  1  0.90447000  0.72342000  0.79689000  1
  Cl  Cl79  1  0.30154000  0.06703000  0.70438000  1
  O  O80  1  0.74956000  0.26338000  0.20301000  1
  O  O81  1  0.05248000  0.95476000  0.20541000  1
  O  O82  1  0.79268000  0.40648000  0.09749000  1
  O  O83  1  0.09176000  0.19446000  0.05585000  1
  O  O84  1  0.22739000  0.00714000  0.11674000  1
  O  O85  1  0.80037000  0.18513000  0.08313000  1
  O  O86  1  0.73306000  0.24039000  0.29500000  1
  O  O87  1  0.05342000  0.95306000  0.29746000  1
  O  O88  1  0.59985000  0.19863000  0.40292000  1
  O  O89  1  0.80349000  0.89771000  0.44149000  1
  O  O90  1  0.00705000  0.76514000  0.38588000  1
  O  O91  1  0.81983000  0.19400000  0.41696000  1
  O  O92  1  0.24060000  0.73277000  0.79587000  1
  O  O93  1  0.95293000  0.05345000  0.79737000  1
  O  O94  1  0.19928000  0.59975000  0.90270000  1
  O  O95  1  0.89840000  0.80482000  0.94152000  1
  O  O96  1  0.76187000  0.00691000  0.88582000  1
  O  O97  1  0.19336000  0.82033000  0.91688000  1
  O  O98  1  0.26192000  0.75200000  0.70384000  1
  O  O99  1  0.95335000  0.05365000  0.70539000  1
  O  O100  1  0.40529000  0.79224000  0.59781000  1
  O  O101  1  0.19473000  0.09016000  0.55552000  1
  O  O102  1  0.00147000  0.22618000  0.61433000  1
  O  O103  1  0.18428000  0.79938000  0.58319000  1
