# generated using pymatgen
data_H9C13(N2O)2
_symmetry_space_group_name_H-M   'P 1'
_cell_length_a   25.97690000
_cell_length_b   25.97690000
_cell_length_c   27.40740000
_cell_angle_alpha   90.00000000
_cell_angle_beta   90.00000000
_cell_angle_gamma   120.00000000
_symmetry_Int_Tables_number   1
_chemical_formula_structural   H9C13(N2O)2
_chemical_formula_sum   'H54 C78 N24 O12'
_cell_volume   16016.70272185
_cell_formula_units_Z   6
loop_
 _symmetry_equiv_pos_site_id
 _symmetry_equiv_pos_as_xyz
  1  'x, y, z'
loop_
 _atom_site_type_symbol
 _atom_site_label
 _atom_site_symmetry_multiplicity
 _atom_site_fract_x
 _atom_site_fract_y
 _atom_site_fract_z
 _atom_site_occupancy
  C  1  1  0.43818550  0.44251250  0.98887900  1
  C  2  1  0.44164600  0.40468200  0.95269600  1
  C  3  1  0.47049300  0.37137500  0.96113200  1
  C  4  1  0.50234300  0.38201100  0.00527400  1
  C  5  1  0.50367950  0.42111750  0.04170200  1
  C  6  1  0.46755450  0.44756450  0.03439400  1
  C  9  1  0.40773350  0.47498050  0.97927000  1
  C  10  1  0.41522600  0.50607200  0.93424900  1
  C  11  1  0.39096350  0.54413450  0.92709400  1
  C  12  1  0.35225300  0.54393500  0.96332000  1
  C  13  1  0.33865700  0.51007600  0.00663900  1
  C  14  1  0.36936000  0.47852900  0.01489200  1
  C  21  1  0.29410050  0.50934650  0.03718500  1
  C  22  1  0.53971500  0.43126900  0.08370900  1
  C  23  1  0.46907100  0.32736300  0.92949700  1
  C  24  1  0.40228950  0.58052950  0.88514300  1
  C  29  1  0.88692400  0.43639200  0.32217800  1
  C  30  1  0.84563650  0.43288150  0.28596500  1
  C  31  1  0.78349100  0.40408500  0.29443800  1
  C  32  1  0.76226950  0.37217150  0.33855000  1
  C  33  1  0.80004200  0.37082200  0.37496700  1
  C  34  1  0.86260700  0.40698600  0.36768100  1
  C  37  1  0.94984700  0.46687900  0.31257100  1
  C  38  1  0.97345600  0.45941500  0.26754300  1
  C  39  1  0.03578750  0.48373450  0.26037400  1
  C  40  1  0.07429000  0.52242800  0.29661200  1
  C  41  1  0.05401650  0.53599250  0.33994000  1
  C  42  1  0.99176400  0.50530300  0.34817100  1
  C  49  1  0.09782850  0.58052650  0.37050800  1
  C  50  1  0.77417200  0.33467600  0.41691600  1
  C  51  1  0.74091050  0.40555350  0.26282200  1
  C  52  1  0.06086800  0.47246500  0.21840000  1
  C  57  1  0.43208550  0.98767050  0.65553800  1
  C  58  1  0.46991500  0.02896300  0.61935800  1
  C  59  1  0.50319150  0.09111850  0.62778200  1
  C  60  1  0.49251150  0.11233250  0.67190700  1
  C  61  1  0.45341250  0.07455850  0.70833400  1
  C  62  1  0.42701100  0.01198700  0.70104300  1
  C  65  1  0.39962500  0.92475000  0.64592800  1
  C  66  1  0.36853950  0.90115650  0.60090600  1
  C  67  1  0.33047900  0.83883000  0.59374400  1
  C  68  1  0.33067950  0.80031850  0.62996800  1
  C  69  1  0.36452600  0.82057600  0.67329400  1
  C  70  1  0.39606850  0.88282750  0.68154900  1
  C  77  1  0.36524150  0.77674750  0.70384800  1
  C  78  1  0.44318150  0.10043950  0.75030500  1
  C  79  1  0.54721050  0.13371550  0.59615900  1
  C  80  1  0.29408200  0.81376600  0.55179500  1
  C  85  1  0.45042350  0.19450950  0.78272200  1
  C  87  1  0.44924750  0.22259350  0.86577400  1
  C  88  1  0.45148600  0.27600800  0.85115900  1
  C  90  1  0.45351250  0.24819450  0.76748100  1
  C  92  1  0.45659950  0.26515750  0.71542800  1
  C  99  1  0.62660300  0.42410600  0.11608400  1
  C  101  1  0.65592250  0.42535450  0.19912700  1
  C  102  1  0.70712300  0.42316700  0.18450000  1
  C  104  1  0.67720550  0.42103150  0.10082900  1
  C  106  1  0.69104300  0.41789800  0.04877400  1
  C  113  1  0.68008050  0.24789650  0.44938100  1
  C  115  1  0.65201900  0.21863000  0.53243200  1
  C  116  1  0.59858800  0.16746800  0.51782300  1
  C  118  1  0.62638050  0.19731250  0.43414500  1
  C  120  1  0.60940500  0.18343700  0.38209300  1
  C  127  1  0.39043200  0.74188500  0.77906200  1
  C  129  1  0.39070400  0.71567000  0.86328900  1
  C  130  1  0.39445850  0.66529650  0.85008700  1
  C  132  1  0.39453500  0.69085100  0.76542400  1
  C  134  1  0.40034250  0.67359750  0.71506000  1
  C  141  1  0.23399350  0.48407650  0.11238100  1
  C  143  1  0.20753300  0.48388300  0.19661000  1
  C  144  1  0.15340300  0.48012300  0.18340200  1
  C  146  1  0.17889300  0.48005400  0.09874200  1
  C  148  1  0.15584700  0.47428100  0.04837600  1
  C  155  1  0.13269250  0.64057250  0.44572200  1
  C  157  1  0.15895350  0.66702450  0.52994700  1
  C  158  1  0.20930000  0.72117400  0.51674300  1
  C  160  1  0.18376400  0.69567800  0.43207900  1
  C  162  1  0.20094700  0.71878800  0.38172100  1
  H  7  1  0.41780300  0.39665000  0.92114400  1
  H  8  1  0.52505700  0.35975900  0.01138600  1
  H  15  1  0.33168900  0.56829800  0.95723800  1
  H  16  1  0.35931950  0.45331750  0.04584000  1
  H  19  1  0.44555850  0.46478750  0.09554900  1
  H  20  1  0.43272150  0.48446750  0.87301400  1
  H  25  1  0.27333150  0.53099650  0.02417800  1
  H  26  1  0.53491550  0.45206050  0.11358500  1
  H  27  1  0.48559550  0.30184050  0.94317000  1
  H  28  1  0.42216150  0.57450050  0.85520000  1
  H  35  1  0.86145800  0.45688200  0.25448800  1
  H  36  1  0.71730150  0.34942250  0.34464700  1
  H  43  1  0.11921500  0.54303000  0.29051500  1
  H  44  1  0.97655900  0.51523700  0.37915600  1
  H  47  1  0.90180750  0.42895050  0.42884700  1
  H  48  1  0.93433400  0.44191000  0.20631900  1
  H  53  1  0.14026300  0.60126700  0.35753000  1
  H  54  1  0.79972000  0.33964700  0.44686400  1
  H  55  1  0.69887150  0.38904350  0.27651200  1
  H  56  1  0.03492750  0.45242650  0.18851300  1
  H  63  1  0.47796950  0.01315350  0.58781500  1
  H  64  1  0.51472850  0.15730150  0.67800100  1
  H  71  1  0.30631700  0.75539300  0.62388600  1
  H  72  1  0.42126900  0.89799800  0.71250300  1
  H  75  1  0.40978050  0.97276650  0.76219900  1
  H  76  1  0.39014750  0.94026250  0.53967100  1
  H  81  1  0.34359400  0.73433400  0.69082500  1
  H  82  1  0.42255650  0.07484850  0.78022000  1
  H  83  1  0.57272950  0.17577050  0.60981600  1
  H  84  1  0.30010250  0.83967150  0.52185800  1
  H  91  1  0.44697950  0.21131950  0.90168100  1
  H  94  1  0.45546850  0.30652650  0.71164100  1
  H  95  1  0.41771750  0.23043850  0.69650900  1
  H  96  1  0.54369400  0.30587400  0.70626900  1
  H  105  1  0.64695200  0.42766600  0.23503700  1
  H  108  1  0.73354750  0.41904450  0.04497500  1
  H  109  1  0.69517200  0.45675400  0.02983300  1
  H  110  1  0.64468750  0.33079350  0.03967700  1
  H  119  1  0.66327200  0.22766300  0.56834200  1
  H  122  1  0.56802650  0.14094450  0.37831300  1
  H  123  1  0.64411150  0.17925750  0.36316700  1
  H  124  1  0.56871400  0.22984100  0.37294200  1
  H  133  1  0.38896350  0.72571250  0.89908100  1
  H  136  1  0.35809100  0.65681200  0.69589800  1
  H  137  1  0.41056350  0.63750450  0.71561900  1
  H  138  1  0.44880800  0.71014200  0.65647500  1
  H  147  1  0.21931750  0.48563750  0.23240300  1
  H  150  1  0.18133350  0.51654050  0.02922800  1
  H  151  1  0.10953800  0.46407700  0.04893000  1
  H  152  1  0.14391850  0.42583650  0.98977200  1
  H  161  1  0.14891200  0.65524800  0.56574100  1
  H  164  1  0.21771400  0.69334700  0.36249600  1
  H  165  1  0.23703600  0.76510800  0.38228600  1
  H  166  1  0.16432250  0.73075550  0.32320700  1
  N  86  1  0.44783250  0.18395750  0.83152000  1
  N  89  1  0.45284550  0.28544250  0.80228700  1
  N  97  1  0.45243150  0.15676750  0.74948300  1
  N  98  1  0.45489200  0.31945600  0.88135400  1
  N  100  1  0.61867500  0.42673500  0.16488100  1
  N  103  1  0.71515000  0.42174600  0.13562600  1
  N  111  1  0.58682100  0.42205800  0.08285900  1
  N  112  1  0.74716000  0.41973300  0.21467800  1
  N  114  1  0.69064450  0.25585750  0.49817500  1
  N  117  1  0.58913750  0.15940250  0.46895300  1
  N  125  1  0.71782600  0.28762400  0.41613100  1
  N  126  1  0.55512950  0.12744150  0.54801900  1
  N  128  1  0.38984950  0.75174750  0.82776600  1
  N  131  1  0.39707300  0.65604200  0.80166000  1
  N  139  1  0.38489200  0.78197100  0.75039300  1
  N  140  1  0.39274100  0.62745700  0.88499300  1
  N  142  1  0.24444900  0.48469900  0.16109000  1
  N  145  1  0.14155450  0.47753950  0.13497300  1
  N  153  1  0.27964350  0.48966150  0.08372400  1
  N  154  1  0.11731750  0.48193750  0.21829700  1
  N  156  1  0.12285250  0.63011050  0.49442800  1
  N  159  1  0.21855750  0.73303650  0.46831800  1
  N  167  1  0.09260400  0.59495200  0.41705400  1
  N  168  1  0.24715450  0.75729050  0.55164600  1
  O  17  1  0.47097600  0.48788200  0.06804900  1
  O  18  1  0.45566600  0.50885900  0.90101200  1
  O  45  1  0.89955550  0.40361050  0.40131000  1
  O  46  1  0.93581750  0.41896950  0.23430400  1
  O  73  1  0.38669000  0.97508600  0.73469600  1
  O  74  1  0.36575150  0.93880950  0.56767100  1
  O  93  1  0.50864800  0.27159700  0.69171500  1
  O  107  1  0.64542650  0.36581550  0.02510500  1
  O  121  1  0.60298150  0.22905650  0.35838400  1
  O  135  1  0.44725150  0.72311950  0.68991100  1
  O  149  1  0.15844250  0.42736950  0.02321100  1
  O  163  1  0.15138650  0.71618550  0.35664300  1
