# generated using pymatgen
data_LuH3C8NO6
_symmetry_space_group_name_H-M   'P 1'
_cell_length_a   6.78667000
_cell_length_b   12.98656099
_cell_length_c   13.03097000
_cell_angle_alpha   90.53640951
_cell_angle_beta   90.04333000
_cell_angle_gamma   103.97738542
_symmetry_Int_Tables_number   1
_chemical_formula_structural   LuH3C8NO6
_chemical_formula_sum   'Lu4 H12 C32 N4 O24'
_cell_volume   1114.43136120
_cell_formula_units_Z   4
loop_
 _symmetry_equiv_pos_site_id
 _symmetry_equiv_pos_as_xyz
  1  'x, y, z'
loop_
 _atom_site_type_symbol
 _atom_site_label
 _atom_site_symmetry_multiplicity
 _atom_site_fract_x
 _atom_site_fract_y
 _atom_site_fract_z
 _atom_site_occupancy
  Lu  Lu0  1  0.48074000  0.71218000  0.06289000  1
  Lu  Lu1  1  0.00982000  0.28752000  0.56774000  1
  Lu  Lu2  1  0.51926000  0.28782000  0.93711000  1
  Lu  Lu3  1  0.99019000  0.71249000  0.43226000  1
  H  H4  1  0.85027000  0.95241000  0.05235000  1
  H  H5  1  0.89810000  0.97842000  0.38250000  1
  H  H6  1  0.99467000  0.25241000  0.18757000  1
  H  H7  1  0.64972000  0.04688000  0.55256000  1
  H  H8  1  0.60304000  0.02174000  0.88218000  1
  H  H9  1  0.50526000  0.74721000  0.68303000  1
  H  H10  1  0.14973000  0.04759000  0.94765000  1
  H  H11  1  0.10191000  0.02159000  0.61750000  1
  H  H12  1  0.00533000  0.74759000  0.81243000  1
  H  H13  1  0.35028000  0.95312000  0.44744000  1
  H  H14  1  0.39697000  0.97826000  0.11782000  1
  H  H15  1  0.49474000  0.25279000  0.31697000  1
  C  C16  1  0.87937000  0.99972000  0.12254000  1
  C  C17  1  0.87014000  0.94891000  0.21800000  1
  C  C18  1  0.90363000  0.01246000  0.30613000  1
  C  C19  1  0.94730000  0.12232000  0.29523000  1
  C  C20  1  0.95781000  0.16616000  0.19650000  1
  C  C21  1  0.82200000  0.83092000  0.22673000  1
  C  C22  1  0.98414000  0.18846000  0.38957000  1
  C  C23  1  0.61842000  0.51758000  0.99710000  1
  C  C24  1  0.61885000  0.99941000  0.62167000  1
  C  C25  1  0.62794000  0.05032000  0.71770000  1
  C  C26  1  0.59654000  0.98728000  0.80526000  1
  C  C27  1  0.55543000  0.87742000  0.79297000  1
  C  C28  1  0.54290000  0.83347000  0.69349000  1
  C  C29  1  0.67609000  0.16843000  0.72855000  1
  C  C30  1  0.51998000  0.81142000  0.88640000  1
  C  C31  1  0.88168000  0.48382000  0.49738000  1
  C  C32  1  0.12064000  0.00028000  0.87746000  1
  C  C33  1  0.12987000  0.05109000  0.78200000  1
  C  C34  1  0.09638000  0.98754000  0.69387000  1
  C  C35  1  0.05271000  0.87768000  0.70477000  1
  C  C36  1  0.04220000  0.83384000  0.80350000  1
  C  C37  1  0.17802000  0.16909000  0.77327000  1
  C  C38  1  0.01588000  0.81155000  0.61043000  1
  C  C39  1  0.38158000  0.48242000  0.00290000  1
  C  C40  1  0.38116000  0.00060000  0.37833000  1
  C  C41  1  0.37208000  0.94969000  0.28230000  1
  C  C42  1  0.40346000  0.01272000  0.19474000  1
  C  C43  1  0.44458000  0.12258000  0.20703000  1
  C  C44  1  0.45711000  0.16653000  0.30651000  1
  C  C45  1  0.32393000  0.83158000  0.27145000  1
  C  C46  1  0.48002000  0.18858000  0.11360000  1
  C  C47  1  0.11833000  0.51618000  0.50263000  1
  N  N48  1  0.92522000  0.10598000  0.11079000  1
  N  N49  1  0.57429000  0.89311000  0.60869000  1
  N  N50  1  0.07478000  0.89402000  0.88921000  1
  N  N51  1  0.42572000  0.10689000  0.39131000  1
  O  O52  1  0.75697000  0.77673000  0.14702000  1
  O  O53  1  0.84874000  0.78831000  0.31236000  1
  O  O54  1  0.97886000  0.14039000  0.47658000  1
  O  O55  1  0.01870000  0.28941000  0.38846000  1
  O  O56  1  0.70021000  0.61008000  0.02766000  1
  O  O57  1  0.71145000  0.45047000  0.96125000  1
  O  O58  1  0.73005000  0.22583000  0.65029000  1
  O  O59  1  0.66195000  0.20835000  0.81772000  1
  O  O60  1  0.52519000  0.86031000  0.97361000  1
  O  O61  1  0.48476000  0.71058000  0.88372000  1
  O  O62  1  0.79667000  0.39486000  0.53431000  1
  O  O63  1  0.79366000  0.54956000  0.45566000  1
  O  O64  1  0.24304000  0.22328000  0.85298000  1
  O  O65  1  0.15126000  0.21169000  0.68764000  1
  O  O66  1  0.02115000  0.85961000  0.52342000  1
  O  O67  1  0.98130000  0.71059000  0.61154000  1
  O  O68  1  0.29980000  0.38993000  0.97233000  1
  O  O69  1  0.28856000  0.54954000  0.03875000  1
  O  O70  1  0.26996000  0.77417000  0.34971000  1
  O  O71  1  0.33806000  0.79165000  0.18228000  1
  O  O72  1  0.47481000  0.13969000  0.02639000  1
  O  O73  1  0.51524000  0.28942000  0.11627000  1
  O  O74  1  0.20335000  0.60515000  0.46568000  1
  O  O75  1  0.20634000  0.45044000  0.54434000  1
