# generated using pymatgen
data_H10C16N5
_symmetry_space_group_name_H-M   'P 1'
_cell_length_a   21.13750000
_cell_length_b   34.31950000
_cell_length_c   34.31950000
_cell_angle_alpha   90.00000000
_cell_angle_beta   90.00000000
_cell_angle_gamma   90.00000000
_symmetry_Int_Tables_number   1
_chemical_formula_structural   H10C16N5
_chemical_formula_sum   'H160 C256 N80'
_cell_volume   24896.34104628
_cell_formula_units_Z   16
loop_
 _symmetry_equiv_pos_site_id
 _symmetry_equiv_pos_as_xyz
  1  'x, y, z'
loop_
 _atom_site_type_symbol
 _atom_site_label
 _atom_site_symmetry_multiplicity
 _atom_site_fract_x
 _atom_site_fract_y
 _atom_site_fract_z
 _atom_site_occupancy
  C  1  1  0.15996700  0.05692600  0.26662400  1
  C  2  1  0.15351100  0.08646800  0.23812500  1
  C  3  1  0.11649900  0.08132400  0.20415500  1
  C  4  1  0.08347900  0.04553100  0.19790700  1
  C  5  1  0.09142100  0.01475500  0.22558100  1
  C  6  1  0.12901900  0.02105100  0.25919100  1
  C  9  1  0.19303700  0.06434900  0.30271700  1
  C  10  1  0.24959700  0.08654600  0.30432000  1
  C  11  1  0.27858500  0.09761300  0.34001700  1
  C  12  1  0.24809700  0.08720700  0.37581300  1
  C  13  1  0.19571100  0.06091900  0.37470300  1
  C  14  1  0.16858100  0.05060700  0.33854200  1
  C  23  1  0.17020900  0.04363000  0.40781800  1
  C  24  1  0.06159900  0.97873800  0.22192600  1
  C  25  1  0.11639300  0.11153100  0.17728000  1
  C  26  1  0.33601500  0.11821400  0.33910200  1
  C  31  1  0.16538500  0.94873500  0.74135400  1
  C  32  1  0.15300300  0.91911300  0.76911400  1
  C  33  1  0.11135700  0.92452400  0.80090900  1
  C  34  1  0.07864100  0.96064100  0.80541100  1
  C  35  1  0.09177900  0.99144200  0.77850500  1
  C  36  1  0.13430300  0.98488900  0.74718800  1
  C  39  1  0.20693700  0.94149700  0.70853000  1
  C  40  1  0.26130100  0.91752200  0.71221900  1
  C  41  1  0.29948700  0.90690400  0.67996100  1
  C  42  1  0.28191700  0.91986200  0.64192100  1
  C  43  1  0.23322700  0.94852500  0.63831400  1
  C  44  1  0.19640900  0.95839700  0.67137600  1
  C  53  1  0.22993300  0.97310900  0.60600800  1
  C  54  1  0.06359900  0.02806700  0.78129900  1
  C  55  1  0.10850100  0.89485300  0.82836000  1
  C  56  1  0.35502300  0.88554600  0.68593700  1
  C  61  1  0.85577900  0.26640600  0.94888300  1
  C  62  1  0.86228100  0.23805700  0.91919200  1
  C  63  1  0.89976300  0.20422000  0.92402000  1
  C  64  1  0.93305900  0.19792400  0.95971700  1
  C  65  1  0.92521500  0.22548300  0.99060600  1
  C  66  1  0.88717900  0.25895300  0.98459800  1
  C  69  1  0.82207700  0.30235900  0.94182600  1
  C  70  1  0.76521500  0.30377200  0.91990000  1
  C  71  1  0.73544300  0.33936100  0.90925900  1
  C  72  1  0.76544700  0.37526200  0.91983000  1
  C  73  1  0.81806100  0.37428900  0.94592600  1
  C  74  1  0.84600100  0.33824200  0.95579500  1
  C  83  1  0.84272300  0.40743300  0.96351400  1
  C  84  1  0.95549900  0.22188600  0.02647600  1
  C  85  1  0.89962100  0.17741300  0.89365500  1
  C  86  1  0.67779700  0.33835600  0.88880700  1
  C  91  1  0.84521500  0.74126700  0.05716400  1
  C  92  1  0.85762500  0.76923000  0.08658100  1
  C  93  1  0.89888900  0.80113900  0.08083200  1
  C  94  1  0.93131300  0.80552200  0.04461000  1
  C  95  1  0.91801500  0.77846700  0.01396300  1
  C  96  1  0.87583500  0.74703600  0.02084200  1
  C  99  1  0.80420700  0.70828800  0.06485400  1
  C  100  1  0.75027500  0.71182900  0.08921800  1
  C  101  1  0.71290500  0.67941600  0.10046700  1
  C  102  1  0.73094900  0.64138500  0.08771300  1
  C  103  1  0.77893500  0.63787100  0.05858300  1
  C  104  1  0.81495700  0.67108200  0.04813700  1
  C  113  1  0.78201900  0.60539600  0.03422600  1
  C  114  1  0.94574700  0.78126400  0.97720300  1
  C  115  1  0.90181100  0.82873900  0.11036300  1
  C  116  1  0.65783700  0.68517600  0.12242600  1
  C  121  1  0.16413750  0.55777900  0.24465600  1
  C  122  1  0.15767950  0.58746500  0.27298900  1
  C  123  1  0.12010150  0.58259900  0.30677900  1
  C  124  1  0.08667750  0.54693400  0.31302300  1
  C  125  1  0.09457950  0.51604800  0.28547700  1
  C  126  1  0.13272350  0.52205900  0.25206700  1
  C  129  1  0.19716350  0.56494400  0.20852100  1
  C  130  1  0.25431300  0.58655300  0.20666000  1
  C  131  1  0.28327100  0.59697600  0.17079000  1
  C  132  1  0.25220700  0.58680900  0.13509800  1
  C  133  1  0.19878150  0.56135200  0.13654100  1
  C  134  1  0.17175350  0.55150300  0.17283600  1
  C  143  1  0.17169350  0.54467000  0.10361700  1
  C  144  1  0.06395950  0.48027200  0.28890500  1
  C  145  1  0.11950150  0.61304200  0.33338800  1
  C  146  1  0.34110300  0.61698500  0.17179500  1
  C  151  1  0.16562750  0.45063000  0.76753200  1
  C  152  1  0.15480750  0.42094400  0.73962300  1
  C  153  1  0.11385750  0.42603800  0.70743800  1
  C  154  1  0.08041950  0.46186600  0.70262400  1
  C  155  1  0.09215150  0.49274900  0.72967300  1
  C  156  1  0.13401550  0.48655100  0.76136900  1
  C  159  1  0.20496900  0.44331700  0.80130000  1
  C  160  1  0.25975900  0.41946700  0.79903900  1
  C  161  1  0.29443100  0.40823200  0.83249800  1
  C  162  1  0.27205500  0.41979100  0.87006500  1
  C  163  1  0.22454700  0.44925200  0.87239100  1
  C  164  1  0.19142550  0.46001300  0.83819400  1
  C  173  1  0.22106900  0.47420600  0.90440700  1
  C  174  1  0.06278150  0.52899400  0.72688100  1
  C  175  1  0.11166750  0.39612500  0.68025500  1
  C  176  1  0.35179900  0.38840600  0.82804000  1
  C  181  1  0.85096900  0.76567300  0.55983600  1
  C  182  1  0.85720300  0.73741500  0.58961500  1
  C  183  1  0.89515100  0.70373400  0.58507000  1
  C  184  1  0.92913700  0.69751000  0.54959400  1
  C  185  1  0.92157300  0.72500200  0.51862700  1
  C  186  1  0.88302500  0.75828900  0.52432900  1
  C  189  1  0.81736900  0.80167600  0.56669800  1
  C  190  1  0.76000700  0.80333100  0.58812100  1
  C  191  1  0.73044300  0.83908600  0.59827500  1
  C  192  1  0.76100500  0.87489300  0.58796600  1
  C  193  1  0.81456900  0.87361400  0.56263100  1
  C  194  1  0.84229100  0.83743700  0.55309700  1
  C  203  1  0.84091900  0.90660400  0.54573700  1
  C  204  1  0.95285900  0.72166000  0.48306100  1
  C  205  1  0.89515500  0.67712800  0.61559800  1
  C  206  1  0.67258300  0.83785300  0.61822900  1
  C  211  1  0.84587700  0.24306800  0.45259100  1
  C  212  1  0.85688100  0.27108400  0.42303700  1
  C  213  1  0.89753900  0.30336100  0.42843300  1
  C  214  1  0.93046700  0.30816000  0.46444500  1
  C  215  1  0.91843700  0.28103200  0.49521100  1
  C  216  1  0.87690300  0.24923100  0.48870500  1
  C  219  1  0.80699900  0.20917500  0.44494200  1
  C  220  1  0.75243700  0.21131500  0.42088000  1
  C  221  1  0.71822700  0.17775900  0.40940000  1
  C  222  1  0.74087500  0.14023700  0.42090400  1
  C  223  1  0.78812700  0.13799000  0.45054000  1
  C  224  1  0.82077100  0.17227600  0.46154200  1
  C  233  1  0.79150100  0.10588200  0.47536500  1
  C  234  1  0.94719500  0.28387400  0.53163700  1
  C  235  1  0.90010900  0.33058800  0.39855500  1
  C  236  1  0.66090300  0.18206600  0.38949600  1
  C  241  1  0.21964700  0.97963900  0.53797100  1
  C  242  1  0.27649500  0.98230500  0.51597200  1
  C  243  1  0.27299700  0.99560300  0.47659500  1
  C  244  1  0.21353100  0.00746800  0.46160900  1
  C  247  1  0.32872700  0.99630600  0.45357000  1
  C  248  1  0.38703500  0.98424800  0.46901900  1
  C  249  1  0.39101100  0.97252000  0.50805800  1
  C  250  1  0.33636900  0.97178900  0.53133900  1
  C  257  1  0.79327500  0.53743200  0.02796200  1
  C  258  1  0.73668900  0.51510100  0.02610200  1
  C  259  1  0.74030300  0.47573500  0.01278000  1
  C  260  1  0.79954900  0.46109100  0.00008800  1
  C  263  1  0.68489900  0.45239900  0.01286500  1
  C  264  1  0.62680300  0.46753300  0.02569400  1
  C  265  1  0.62265300  0.50656900  0.03741500  1
  C  266  1  0.67697500  0.53014500  0.03740300  1
  C  273  1  0.21328100  0.48082300  0.97254100  1
  C  274  1  0.27117900  0.48240800  0.99359600  1
  C  275  1  0.27007700  0.49597200  0.03292800  1
  C  276  1  0.21173900  0.50858000  0.04893900  1
  C  279  1  0.32692900  0.49611700  0.05490400  1
  C  280  1  0.38396500  0.48302900  0.03852800  1
  C  281  1  0.38548300  0.47054600  0.99965600  1
  C  282  1  0.32974300  0.47044400  0.97736900  1
  C  289  1  0.79994100  0.03780400  0.48184900  1
  C  290  1  0.74194500  0.01684500  0.48345400  1
  C  291  1  0.74288100  0.97752600  0.49706700  1
  C  292  1  0.80117500  0.96141300  0.50962900  1
  C  295  1  0.68591500  0.95566400  0.49731800  1
  C  296  1  0.62892300  0.97212400  0.48425500  1
  C  297  1  0.62759300  0.01095300  0.47164200  1
  C  298  1  0.68344100  0.03313600  0.47145500  1
  C  305  1  0.43660300  0.12135700  0.37307400  1
  C  306  1  0.46229100  0.11151700  0.41002600  1
  C  307  1  0.52224500  0.12729000  0.42091500  1
  C  308  1  0.55434300  0.15195600  0.39428600  1
  C  311  1  0.54804700  0.11776800  0.45791200  1
  C  312  1  0.51489700  0.09386900  0.48407500  1
  C  313  1  0.45599100  0.07844000  0.47346300  1
  C  314  1  0.43023900  0.08684000  0.43667600  1
  C  321  1  0.45804500  0.89403100  0.65908000  1
  C  322  1  0.48709900  0.91991200  0.63227000  1
  C  323  1  0.54462100  0.90829100  0.61374700  1
  C  324  1  0.57145500  0.87157500  0.62337500  1
  C  327  1  0.57393500  0.93428500  0.58713300  1
  C  328  1  0.54752700  0.97097900  0.57913400  1
  C  329  1  0.49099700  0.98228100  0.59725500  1
  C  330  1  0.46084300  0.95692000  0.62344200  1
  C  337  1  0.57694300  0.37176200  0.88728300  1
  C  338  1  0.55123100  0.40853800  0.89774900  1
  C  339  1  0.49103500  0.41954300  0.88240800  1
  C  340  1  0.45870900  0.39317900  0.85757400  1
  C  343  1  0.46522300  0.45637600  0.89252200  1
  C  344  1  0.49859500  0.48229200  0.91657200  1
  C  345  1  0.55772700  0.47156300  0.93158400  1
  C  346  1  0.58348700  0.43490700  0.92262100  1
  C  353  1  0.55499300  0.65784200  0.11439900  1
  C  354  1  0.52569300  0.63088600  0.08878300  1
  C  355  1  0.46822300  0.61248300  0.10068700  1
  C  356  1  0.44176300  0.62229600  0.13745500  1
  C  359  1  0.43859700  0.58578100  0.07491900  1
  C  360  1  0.46471700  0.57752600  0.03820100  1
  C  361  1  0.52126100  0.59546900  0.02665200  1
  C  362  1  0.55166100  0.62178700  0.05176100  1
  C  369  1  0.03858500  0.15163100  0.14623600  1
  C  370  1  0.99729100  0.18390700  0.15098300  1
  C  371  1  0.96556500  0.19934800  0.11753300  1
  C  372  1  0.97652700  0.18170900  0.08075900  1
  C  375  1  0.92365900  0.23119600  0.12213700  1
  C  376  1  0.91374700  0.24796900  0.15898200  1
  C  377  1  0.94515100  0.23303500  0.19177400  1
  C  378  1  0.98648100  0.20120200  0.18786800  1
  C  385  1  0.03054100  0.85443300  0.85869000  1
  C  386  1  0.98966500  0.82200500  0.85358800  1
  C  387  1  0.95831300  0.80588900  0.88687800  1
  C  388  1  0.96930300  0.82299300  0.92391800  1
  C  391  1  0.91659100  0.77402400  0.88179600  1
  C  392  1  0.90666500  0.75781100  0.84470400  1
  C  393  1  0.93787100  0.77332700  0.81211300  1
  C  394  1  0.97891700  0.80523300  0.81645700  1
  C  401  1  0.97791300  0.14670100  0.85364600  1
  C  402  1  0.02016300  0.15180600  0.82188900  1
  C  403  1  0.05171500  0.11846400  0.80604000  1
  C  404  1  0.03956500  0.08138200  0.82273900  1
  C  407  1  0.09472700  0.12350600  0.77482800  1
  C  408  1  0.10578300  0.16064200  0.75899400  1
  C  409  1  0.07445300  0.19330500  0.77426300  1
  C  410  1  0.03211500  0.18898400  0.80553100  1
  C  417  1  0.97951300  0.85920600  0.15063900  1
  C  418  1  0.01939300  0.85444200  0.18357700  1
  C  419  1  0.05089300  0.88782200  0.19934600  1
  C  420  1  0.04110100  0.92456200  0.18136600  1
  C  423  1  0.09145100  0.88316600  0.23184100  1
  C  424  1  0.10019700  0.84635900  0.24893700  1
  C  425  1  0.06894500  0.81364800  0.23370300  1
  C  426  1  0.02896900  0.81759700  0.20123000  1
  C  433  1  0.04033350  0.65261500  0.36387500  1
  C  434  1  0.99815300  0.68440400  0.35880200  1
  C  435  1  0.96522900  0.69944500  0.39199600  1
  C  436  1  0.97592100  0.68190400  0.42884400  1
  C  439  1  0.92247700  0.73081500  0.38707400  1
  C  440  1  0.91284900  0.74750200  0.35016300  1
  C  441  1  0.94538900  0.73295100  0.31761800  1
  C  442  1  0.98758900  0.70159500  0.32184000  1
  C  449  1  0.03335950  0.35581800  0.65013200  1
  C  450  1  0.99226300  0.32351000  0.65528600  1
  C  451  1  0.96026300  0.30772600  0.62208100  1
  C  452  1  0.97083500  0.32505400  0.58510800  1
  C  455  1  0.91837900  0.27594200  0.62716800  1
  C  456  1  0.90887100  0.25951100  0.66420600  1
  C  457  1  0.94065300  0.27472800  0.69672900  1
  C  458  1  0.98189700  0.30653700  0.69236700  1
  C  465  1  0.97428500  0.64709300  0.65547900  1
  C  466  1  0.01687349  0.65253300  0.68700900  1
  C  467  1  0.04943550  0.61945300  0.70260700  1
  C  468  1  0.03794950  0.58231300  0.68587600  1
  C  471  1  0.09271950  0.62478800  0.73363000  1
  C  472  1  0.10312350  0.66197900  0.74949200  1
  C  473  1  0.07086150  0.69440100  0.73444000  1
  C  474  1  0.02820350  0.68977700  0.70338200  1
  C  481  1  0.97870300  0.36088500  0.35875800  1
  C  482  1  0.01939549  0.35603100  0.32621400  1
  C  483  1  0.05178350  0.38930400  0.31091100  1
  C  484  1  0.04204150  0.42601700  0.32895000  1
  C  487  1  0.09311750  0.38457200  0.27879900  1
  C  488  1  0.10180350  0.34779100  0.26163300  1
  C  489  1  0.06971350  0.31518200  0.27642400  1
  C  490  1  0.02894550  0.31920600  0.30851300  1
  H  7  1  0.17480900  0.11290100  0.24277900  1
  H  16  1  0.12831300  0.03396700  0.33850400  1
  H  17  1  0.29645700  0.12446400  0.41165200  1
  H  18  1  0.24463300  0.09750500  0.43469200  1
  H  19  1  0.01690700  0.01884600  0.16330900  1
  H  20  1  0.03736100  0.06211500  0.14783600  1
  H  21  1  0.13416900  0.99877300  0.27882700  1
  H  22  1  0.27032100  0.09482300  0.27864200  1
  H  27  1  0.14404100  0.06111000  0.42435700  1
  H  28  1  0.03232300  0.97007000  0.24293200  1
  H  29  1  0.13803100  0.10603300  0.15213500  1
  H  30  1  0.34896900  0.13172800  0.31474500  1
  H  37  1  0.17421100  0.89246400  0.76582400  1
  H  46  1  0.16001100  0.97776800  0.66788000  1
  H  47  1  0.34031700  0.88277500  0.61199000  1
  H  48  1  0.29326300  0.90784800  0.58406200  1
  H  49  1  0.00770300  0.98774200  0.83617200  1
  H  50  1  0.02470900  0.94422700  0.85249800  1
  H  51  1  0.14379900  0.00742700  0.72852200  1
  H  52  1  0.27404900  0.90781900  0.73932000  1
  H  57  1  0.24584500  0.00022700  0.60923700  1
  H  58  1  0.03812300  0.03785400  0.75896200  1
  H  59  1  0.12941700  0.90045900  0.85371300  1
  H  60  1  0.35777500  0.86883000  0.70951200  1
  H  67  1  0.84068300  0.24275300  0.89286000  1
  H  76  1  0.88637100  0.33835000  0.97234000  1
  H  77  1  0.71577700  0.41120100  0.88321200  1
  H  78  1  0.76767500  0.43430700  0.91002500  1
  H  79  1  0.99963300  0.16318200  0.98625900  1
  H  80  1  0.97904500  0.14784600  0.94296600  1
  H  81  1  0.88201700  0.27845800  0.00698900  1
  H  82  1  0.74485900  0.27802500  0.91149700  1
  H  87  1  0.86984100  0.42407700  0.94664900  1
  H  88  1  0.98471700  0.24297500  0.03502700  1
  H  89  1  0.87871500  0.15222300  0.89983800  1
  H  90  1  0.66517100  0.31371100  0.87574700  1
  H  97  1  0.83680500  0.76599600  0.11335400  1
  H  106  1  0.85097300  0.66765600  0.02848700  1
  H  107  1  0.67421100  0.61137800  0.12570100  1
  H  108  1  0.72160100  0.58369200  0.10053500  1
  H  109  1  0.00223500  0.83605800  0.01730400  1
  H  110  1  0.98549700  0.85257100  0.06079100  1
  H  111  1  0.86628300  0.72821900  0.99844100  1
  H  112  1  0.73728500  0.73892100  0.09881200  1
  H  117  1  0.76503100  0.60833900  0.00731900  1
  H  118  1  0.97129100  0.75898600  0.96735400  1
  H  119  1  0.88099100  0.85401900  0.10420600  1
  H  120  1  0.65504100  0.70913600  0.13852200  1
  H  127  1  0.17927550  0.61379700  0.26827700  1
  H  136  1  0.13083550  0.53546500  0.17309100  1
  H  137  1  0.30065700  0.62358400  0.09880700  1
  H  138  1  0.24822900  0.59685900  0.07618800  1
  H  139  1  0.01972149  0.52047400  0.34753700  1
  H  140  1  0.04043750  0.56369400  0.36299200  1
  H  141  1  0.13776750  0.49971900  0.23248500  1
  H  142  1  0.27550700  0.59480200  0.23221300  1
  H  147  1  0.14542150  0.56259300  0.08762200  1
  H  148  1  0.03467950  0.47193600  0.26776500  1
  H  149  1  0.14089950  0.60780300  0.35866500  1
  H  150  1  0.34661300  0.63940000  0.18981800  1
  H  157  1  0.17634350  0.39442900  0.74321900  1
  H  166  1  0.15526150  0.47968900  0.84072000  1
  H  167  1  0.32146300  0.37893300  0.90101000  1
  H  168  1  0.27425500  0.40502300  0.92778200  1
  H  169  1  0.00972949  0.48844000  0.67117300  1
  H  170  1  0.02813750  0.44510300  0.65496300  1
  H  171  1  0.14230350  0.50911300  0.78022100  1
  H  172  1  0.27525300  0.41028600  0.77229300  1
  H  177  1  0.23830300  0.50101300  0.90109700  1
  H  178  1  0.03627950  0.53822200  0.74900600  1
  H  179  1  0.13247350  0.40167800  0.65485500  1
  H  180  1  0.35452900  0.36409000  0.81246200  1
  H  187  1  0.83518100  0.74212300  0.61581300  1
  H  196  1  0.88327100  0.83734600  0.53712600  1
  H  197  1  0.71161500  0.91122600  0.62433900  1
  H  198  1  0.76394700  0.93394200  0.59768400  1
  H  199  1  0.99643100  0.66295600  0.52349000  1
  H  200  1  0.97520300  0.64756200  0.56663400  1
  H  201  1  0.87815300  0.77779100  0.50190700  1
  H  202  1  0.73912500  0.77771000  0.59645700  1
  H  207  1  0.86837900  0.92255200  0.56306200  1
  H  208  1  0.98206700  0.74291000  0.47489900  1
  H  209  1  0.87472300  0.65177500  0.60948700  1
  H  210  1  0.66746500  0.82010500  0.64089800  1
  H  217  1  0.83578300  0.26748000  0.39639000  1
  H  226  1  0.85674900  0.16981400  0.48135000  1
  H  227  1  0.69209500  0.10926500  0.37977500  1
  H  228  1  0.73964100  0.08268600  0.40592400  1
  H  229  1  0.00078300  0.33955900  0.49139700  1
  H  230  1  0.98294700  0.35583900  0.44799300  1
  H  231  1  0.86843500  0.23029600  0.51117300  1
  H  232  1  0.73674500  0.23803700  0.41175700  1
  H  237  1  0.77337100  0.10902400  0.50197100  1
  H  238  1  0.97379700  0.26184500  0.54097800  1
  H  239  1  0.87914100  0.35588200  0.40444400  1
  H  240  1  0.65841500  0.19707100  0.36481600  1
  H  251  1  0.32755300  0.00525800  0.42515800  1
  H  252  1  0.42685100  0.98489200  0.45211000  1
  H  253  1  0.43369300  0.96447200  0.51947200  1
  H  254  1  0.34139900  0.96409600  0.55981900  1
  H  267  1  0.68618100  0.42398400  0.00393100  1
  H  268  1  0.58722300  0.45040900  0.02558300  1
  H  269  1  0.58008900  0.51777300  0.04599300  1
  H  270  1  0.67179300  0.55860400  0.04512800  1
  H  283  1  0.32747300  0.50535100  0.08323300  1
  H  284  1  0.42456500  0.48313700  0.05472800  1
  H  285  1  0.42715300  0.46140500  0.98766300  1
  H  286  1  0.33295500  0.46190700  0.94901200  1
  H  299  1  0.68524300  0.92735600  0.50661000  1
  H  300  1  0.58824500  0.95599600  0.48442100  1
  H  301  1  0.58597900  0.02299100  0.46246600  1
  H  302  1  0.68034300  0.06145900  0.46280400  1
  H  315  1  0.59079500  0.12865500  0.46664200  1
  H  316  1  0.53374500  0.08760400  0.51078800  1
  H  317  1  0.43180100  0.06121600  0.49262700  1
  H  318  1  0.38745700  0.07489400  0.42982300  1
  H  331  1  0.61502700  0.92693400  0.57330400  1
  H  332  1  0.56948300  0.98955400  0.56020900  1
  H  333  1  0.47168900  0.00894100  0.59130000  1
  H  334  1  0.41964300  0.96603700  0.63612200  1
  H  347  1  0.42230900  0.46518500  0.88194200  1
  H  348  1  0.47975700  0.50890900  0.92324200  1
  H  349  1  0.58209100  0.49055800  0.94889800  1
  H  350  1  0.62642500  0.42795500  0.93429100  1
  H  363  1  0.39748500  0.57207700  0.08245500  1
  H  364  1  0.44253300  0.55855100  0.01978200  1
  H  365  1  0.54035500  0.58932400  0.99997700  1
  H  366  1  0.59283500  0.63435700  0.04244800  1
  H  379  1  0.89974900  0.24252000  0.09886100  1
  H  380  1  0.88346500  0.27100600  0.16195300  1
  H  381  1  0.93773300  0.24525500  0.21855500  1
  H  382  1  0.00853300  0.19088500  0.21230700  1
  H  395  1  0.89268500  0.76232200  0.90487400  1
  H  396  1  0.87649100  0.73476600  0.84140200  1
  H  397  1  0.93042900  0.76151500  0.78515100  1
  H  398  1  0.00074100  0.81602600  0.79214500  1
  H  411  1  0.11870700  0.10036000  0.76331500  1
  H  412  1  0.13686700  0.16392000  0.73640900  1
  H  413  1  0.08272100  0.22029600  0.76273300  1
  H  414  1  0.01020700  0.21334400  0.81614300  1
  H  427  1  0.11525100  0.90636800  0.24339600  1
  H  428  1  0.12952300  0.84335200  0.27243400  1
  H  429  1  0.07551500  0.78689700  0.24616400  1
  H  430  1  0.00702300  0.79321400  0.19069600  1
  H  443  1  0.89775700  0.74185200  0.41016900  1
  H  444  1  0.88195100  0.77019500  0.34696000  1
  H  445  1  0.93817300  0.74510700  0.29078800  1
  H  446  1  0.01047749  0.69155500  0.29758000  1
  H  459  1  0.89409500  0.26445100  0.60413200  1
  H  460  1  0.87857900  0.23652500  0.66752200  1
  H  461  1  0.93350900  0.26276000  0.72365000  1
  H  462  1  0.00416949  0.31710000  0.71662500  1
  H  475  1  0.11731950  0.60181000  0.74498800  1
  H  476  1  0.13440750  0.66547900  0.77194000  1
  H  477  1  0.07865950  0.72143800  0.74599000  1
  H  478  1  0.00558549  0.71396500  0.69293600  1
  H  491  1  0.11751950  0.40769800  0.26757400  1
  H  492  1  0.13168750  0.34472500  0.23841300  1
  H  493  1  0.07624150  0.28844800  0.26391500  1
  H  494  1  0.00638549  0.29489900  0.31872300  1
  N  8  1  0.04404300  0.04137400  0.16654100  1
  N  15  1  0.26719300  0.10271900  0.41061200  1
  N  38  1  0.03485300  0.96505800  0.83447300  1
  N  45  1  0.31080500  0.90434600  0.60979600  1
  N  68  1  0.97265300  0.16661300  0.96368800  1
  N  75  1  0.74573900  0.41005000  0.90459400  1
  N  98  1  0.97503300  0.83459600  0.03998300  1
  N  105  1  0.70306100  0.60920200  0.10381000  1
  N  128  1  0.04692350  0.54296500  0.34425900  1
  N  135  1  0.27133100  0.60191400  0.10010100  1
  N  158  1  0.03724350  0.46594800  0.67316800  1
  N  165  1  0.29480500  0.40190900  0.90284800  1
  N  188  1  0.96910500  0.66634700  0.54590300  1
  N  195  1  0.74142900  0.90985000  0.60292300  1
  N  218  1  0.97347100  0.33767100  0.46879800  1
  N  225  1  0.71847300  0.10744500  0.40285300  1
  N  245  1  0.16190500  0.00401300  0.48495500  1
  N  246  1  0.16472700  0.99037900  0.52052300  1
  N  255  1  0.21593500  0.96073700  0.57173000  1
  N  256  1  0.20836300  0.01979900  0.42509100  1
  N  261  1  0.85091700  0.48474800  0.00280000  1
  N  262  1  0.84805500  0.52030500  0.01645600  1
  N  271  1  0.79709700  0.57131100  0.04663900  1
  N  272  1  0.80473700  0.42465100  0.98750900  1
  N  277  1  0.15893750  0.50591900  0.02650400  1
  N  278  1  0.15959150  0.49237600  0.99087400  1
  N  287  1  0.20757100  0.46209300  0.93884300  1
  N  288  1  0.20856900  0.52065700  0.08560500  1
  N  293  1  0.85407700  0.98374700  0.50691900  1
  N  294  1  0.85355700  0.01937700  0.49337600  1
  N  303  1  0.80582100  0.07157200  0.46325900  1
  N  304  1  0.80416100  0.92475700  0.52175000  1
  N  309  1  0.52639300  0.15950900  0.35943100  1
  N  310  1  0.47089100  0.14544400  0.34968500  1
  N  319  1  0.38127100  0.10650800  0.36187300  1
  N  320  1  0.61349500  0.16219200  0.40185000  1
  N  325  1  0.54042100  0.84900400  0.64975300  1
  N  326  1  0.48714100  0.85942700  0.66630900  1
  N  335  1  0.40638300  0.90471900  0.67846900  1
  N  336  1  0.62819300  0.86198500  0.60950500  1
  N  341  1  0.48668700  0.35847300  0.84942400  1
  N  342  1  0.54242300  0.34863900  0.86306900  1
  N  351  1  0.63246100  0.36037800  0.90172400  1
  N  352  1  0.39934500  0.40072000  0.84781000  1
  N  357  1  0.47304300  0.64877700  0.15978000  1
  N  358  1  0.52623700  0.66526300  0.14907300  1
  N  367  1  0.60657900  0.67712800  0.10338700  1
  N  368  1  0.38510900  0.60848500  0.14732200  1
  N  373  1  0.01581700  0.15054000  0.07929500  1
  N  374  1  0.04487700  0.13658300  0.10980100  1
  N  383  1  0.06761100  0.13463000  0.17636300  1
  N  384  1  0.94872900  0.19105100  0.04737300  1
  N  389  1  0.00810900  0.85438000  0.92566600  1
  N  390  1  0.03675700  0.86899300  0.89532200  1
  N  399  1  0.05949100  0.87191800  0.82877700  1
  N  400  1  0.94267700  0.81314100  0.95754900  1
  N  405  1  0.99942900  0.07960800  0.85348600  1
  N  406  1  0.97057500  0.11000300  0.86783600  1
  N  415  1  0.94890900  0.17667700  0.87096900  1
  N  416  1  0.06651300  0.04778200  0.81314100  1
  N  421  1  0.00318100  0.92602500  0.14956000  1
  N  422  1  0.97435100  0.89558400  0.13529000  1
  N  431  1  0.95048300  0.82916700  0.13347600  1
  N  432  1  0.06856100  0.95797500  0.19101400  1
  N  437  1  0.01616749  0.65122200  0.43063000  1
  N  438  1  0.04631750  0.63763800  0.40035800  1
  N  447  1  0.07040750  0.63591000  0.33396800  1
  N  448  1  0.94701500  0.69089000  0.46196800  1
  N  453  1  0.00993349  0.35629300  0.58329000  1
  N  454  1  0.03918950  0.37058500  0.61355800  1
  N  463  1  0.06280950  0.37306800  0.67997500  1
  N  464  1  0.94343500  0.31548300  0.55165700  1
  N  469  1  0.99738500  0.58020100  0.65537100  1
  N  470  1  0.96759100  0.61035900  0.64126500  1
  N  479  1  0.94438500  0.67682500  0.63833400  1
  N  480  1  0.06599350  0.54902000  0.69525800  1
  N  485  1  0.00325349  0.42757600  0.36034900  1
  N  486  1  0.97360900  0.39723500  0.37418700  1
  N  495  1  0.94896900  0.33092600  0.37558800  1
  N  496  1  0.07031750  0.45927800  0.31970500  1
