# generated using pymatgen
data_CuH7C9NO3
_symmetry_space_group_name_H-M   'P 1'
_cell_length_a   7.02687000
_cell_length_b   26.82953000
_cell_length_c   26.86146200
_cell_angle_alpha   60.15152270
_cell_angle_beta   90.25428699
_cell_angle_gamma   90.04289000
_symmetry_Int_Tables_number   1
_chemical_formula_structural   CuH7C9NO3
_chemical_formula_sum   'Cu18 H126 C162 N18 O54'
_cell_volume   4392.29444384
_cell_formula_units_Z   18
loop_
 _symmetry_equiv_pos_site_id
 _symmetry_equiv_pos_as_xyz
  1  'x, y, z'
loop_
 _atom_site_type_symbol
 _atom_site_label
 _atom_site_symmetry_multiplicity
 _atom_site_fract_x
 _atom_site_fract_y
 _atom_site_fract_z
 _atom_site_occupancy
  Cu  Cu1  1  0.93651000  0.88782000  0.32479000  1.0
  Cu  Cu2  1  0.93484000  0.32254000  0.78887000  1.0
  Cu  Cu3  1  0.92249000  0.79146000  0.88806000  1.0
  Cu  Cu4  1  0.58952000  0.55754000  0.98515000  1.0
  Cu  Cu5  1  0.59730000  0.98895000  0.45619000  1.0
  Cu  Cu6  1  0.59379000  0.45521000  0.55517000  1.0
  Cu  Cu7  1  0.26574000  0.22104000  0.65651000  1.0
  Cu  Cu8  1  0.25314000  0.65729000  0.12037000  1.0
  Cu  Cu9  1  0.26939000  0.12028000  0.22039000  1.0
  Cu  Cu10  1  0.06819000  0.11009000  0.67997000  1.0
  Cu  Cu11  1  0.06464000  0.68321000  0.20767000  1.0
  Cu  Cu12  1  0.08042000  0.20969000  0.10777000  1.0
  Cu  Cu13  1  0.74032000  0.77725000  0.34729000  1.0
  Cu  Cu14  1  0.73898000  0.34701000  0.87511000  1.0
  Cu  Cu15  1  0.73012000  0.87744000  0.77665000  1.0
  Cu  Cu16  1  0.39937000  0.44505000  0.01029000  1.0
  Cu  Cu17  1  0.39929000  0.01457000  0.54238000  1.0
  Cu  Cu18  1  0.39793000  0.54286000  0.44301000  1.0
  H  H1  1  0.95015000  0.69939000  0.46162000  1.0
  H  H2  1  0.95197000  0.45984000  0.84051000  1.0
  H  H3  1  0.95228000  0.84256000  0.69984000  1.0
  H  H4  1  0.61862000  0.36782000  0.12152000  1.0
  H  H5  1  0.60749000  0.12724000  0.50710000  1.0
  H  H6  1  0.60133000  0.50585000  0.36695000  1.0
  H  H7  1  0.28843000  0.03236000  0.79144000  1.0
  H  H8  1  0.27366000  0.79697000  0.16913000  1.0
  H  H9  1  0.30643000  0.17737000  0.03066000  1.0
  H  H10  1  0.04763000  0.29930000  0.54430000  1.0
  H  H11  1  0.03361000  0.54626000  0.15476000  1.0
  H  H12  1  0.05567000  0.15508000  0.29755000  1.0
  H  H13  1  0.74175000  0.96353000  0.20816000  1.0
  H  H14  1  0.73165000  0.20786000  0.82568000  1.0
  H  H15  1  0.70923000  0.82831000  0.96483000  1.0
  H  H16  1  0.36404000  0.63395000  0.87520000  1.0
  H  H17  1  0.38367000  0.87598000  0.49268000  1.0
  H  H18  1  0.38458000  0.49255000  0.63173000  1.0
  H  H19  1  0.20088000  0.64979000  0.53500000  1.0
  H  H20  1  0.20223000  0.53304000  0.81696000  1.0
  H  H21  1  0.20428000  0.81663000  0.65277000  1.0
  H  H22  1  0.87555000  0.31878000  0.19240000  1.0
  H  H23  1  0.85833000  0.19962000  0.48571000  1.0
  H  H24  1  0.84594000  0.48099000  0.31708000  1.0
  H  H25  1  0.54308000  0.98256000  0.86328000  1.0
  H  H26  1  0.52534000  0.86989000  0.14484000  1.0
  H  H27  1  0.56703000  0.15686000  0.98190000  1.0
  H  H28  1  0.79280000  0.34928000  0.47261000  1.0
  H  H29  1  0.77556000  0.47596000  0.17607000  1.0
  H  H30  1  0.80163000  0.17715000  0.34712000  1.0
  H  H31  1  0.49952000  0.01376000  0.13206000  1.0
  H  H32  1  0.48992000  0.13180000  0.85249000  1.0
  H  H33  1  0.45711000  0.85291000  0.01279000  1.0
  H  H34  1  0.10987000  0.68140000  0.80263000  1.0
  H  H35  1  0.13648000  0.80146000  0.51843000  1.0
  H  H36  1  0.13303000  0.51574000  0.68123000  1.0
  H  H37  1  0.50695000  0.69989000  0.53023000  1.0
  H  H38  1  0.50591000  0.52836000  0.77091000  1.0
  H  H39  1  0.50399000  0.76854000  0.70603000  1.0
  H  H40  1  0.17802000  0.37073000  0.18727000  1.0
  H  H41  1  0.16821000  0.19345000  0.44328000  1.0
  H  H42  1  0.15302000  0.43524000  0.36659000  1.0
  H  H43  1  0.84799000  0.03337000  0.85824000  1.0
  H  H44  1  0.83033000  0.86331000  0.10061000  1.0
  H  H45  1  0.86907000  0.11066000  0.03473000  1.0
  H  H46  1  0.48511000  0.29955000  0.47875000  1.0
  H  H47  1  0.47305000  0.48263000  0.22160000  1.0
  H  H48  1  0.49756000  0.22330000  0.29589000  1.0
  H  H49  1  0.18763000  0.96641000  0.13658000  1.0
  H  H50  1  0.18357000  0.13560000  0.89773000  1.0
  H  H51  1  0.15117000  0.89724000  0.96151000  1.0
  H  H52  1  0.81057000  0.62816000  0.80753000  1.0
  H  H53  1  0.83313000  0.80601000  0.56469000  1.0
  H  H54  1  0.82620000  0.56020000  0.63091000  1.0
  H  H55  1  0.55155000  0.80139000  0.45161000  1.0
  H  H56  1  0.54637000  0.45093000  0.74580000  1.0
  H  H57  1  0.53905000  0.74468000  0.80824000  1.0
  H  H58  1  0.21116000  0.47368000  0.11069000  1.0
  H  H59  1  0.21287000  0.11585000  0.41855000  1.0
  H  H60  1  0.20290000  0.41232000  0.46803000  1.0
  H  H61  1  0.88554000  0.13601000  0.78161000  1.0
  H  H62  1  0.87072000  0.78424000  0.07774000  1.0
  H  H63  1  0.89660000  0.08192000  0.13844000  1.0
  H  H64  1  0.44707000  0.19671000  0.55517000  1.0
  H  H65  1  0.44261000  0.55910000  0.24845000  1.0
  H  H66  1  0.46109000  0.25046000  0.19278000  1.0
  H  H67  1  0.13410000  0.86543000  0.21540000  1.0
  H  H68  1  0.13278000  0.21518000  0.91948000  1.0
  H  H69  1  0.11090000  0.91956000  0.85985000  1.0
  H  H70  1  0.77848000  0.52565000  0.88505000  1.0
  H  H71  1  0.79059000  0.88454000  0.58813000  1.0
  H  H72  1  0.78390000  0.58444000  0.52880000  1.0
  H  H73  1  0.46211000  0.88176000  0.37507000  1.0
  H  H74  1  0.45558000  0.37475000  0.74124000  1.0
  H  H75  1  0.44285000  0.74112000  0.88763000  1.0
  H  H76  1  0.11206000  0.55418000  0.03664000  1.0
  H  H77  1  0.12094000  0.04079000  0.41149000  1.0
  H  H78  1  0.11699000  0.40923000  0.54900000  1.0
  H  H79  1  0.78812000  0.21748000  0.70812000  1.0
  H  H80  1  0.77482000  0.70852000  0.07286000  1.0
  H  H81  1  0.79403000  0.07335000  0.21918000  1.0
  H  H82  1  0.54496000  0.11517000  0.62814000  1.0
  H  H83  1  0.54388000  0.63220000  0.25638000  1.0
  H  H84  1  0.55927000  0.25878000  0.11124000  1.0
  H  H85  1  0.21898000  0.78412000  0.29282000  1.0
  H  H86  1  0.21850000  0.29291000  0.92237000  1.0
  H  H87  1  0.20699000  0.92473000  0.77972000  1.0
  H  H88  1  0.87765000  0.44587000  0.95996000  1.0
  H  H89  1  0.88154000  0.96066000  0.59257000  1.0
  H  H90  1  0.87621000  0.59015000  0.44815000  1.0
  H  H91  1  0.36572000  0.96582000  0.26745000  1.0
  H  H92  1  0.36002000  0.26649000  0.76485000  1.0
  H  H93  1  0.34032000  0.76296000  0.97204000  1.0
  H  H94  1  0.01781000  0.63938000  0.93446000  1.0
  H  H95  1  0.03103000  0.93617000  0.43080000  1.0
  H  H96  1  0.02842000  0.42869000  0.63396000  1.0
  H  H97  1  0.69133000  0.30412000  0.60508000  1.0
  H  H98  1  0.68150000  0.60575000  0.08991000  1.0
  H  H99  1  0.69241000  0.09081000  0.30536000  1.0
  H  H100  1  0.63989000  0.02852000  0.73075000  1.0
  H  H101  1  0.64331000  0.73830000  0.23497000  1.0
  H  H102  1  0.64899000  0.24348000  0.02521000  1.0
  H  H103  1  0.31397000  0.69749000  0.39987000  1.0
  H  H104  1  0.30621000  0.39815000  0.90227000  1.0
  H  H105  1  0.30206000  0.90702000  0.69405000  1.0
  H  H106  1  0.98137000  0.36043000  0.06429000  1.0
  H  H107  1  0.97561000  0.06683000  0.57244000  1.0
  H  H108  1  0.97418000  0.56853000  0.36264000  1.0
  H  H109  1  0.30526000  0.98385000  0.32068000  1.0
  H  H110  1  0.29601000  0.32029000  0.69418000  1.0
  H  H111  1  0.27463000  0.69279000  0.98741000  1.0
  H  H112  1  0.93742000  0.65488000  0.98797000  1.0
  H  H113  1  0.95947000  0.98920000  0.36057000  1.0
  H  H114  1  0.95435000  0.35873000  0.65089000  1.0
  H  H115  1  0.61403000  0.31878000  0.65939000  1.0
  H  H116  1  0.60224000  0.65935000  0.02082000  1.0
  H  H117  1  0.62040000  0.02156000  0.31941000  1.0
  H  H118  1  0.71575000  0.01390000  0.67627000  1.0
  H  H119  1  0.70836000  0.68365000  0.30507000  1.0
  H  H120  1  0.73476000  0.31163000  0.01051000  1.0
  H  H121  1  0.37448000  0.68252000  0.34442000  1.0
  H  H122  1  0.37970000  0.34485000  0.97219000  1.0
  H  H123  1  0.37842000  0.97628000  0.67917000  1.0
  H  H124  1  0.05182000  0.34607000  0.00917000  1.0
  H  H125  1  0.04774000  0.01235000  0.64198000  1.0
  H  H126  1  0.02771000  0.63939000  0.34763000  1.0
  C  C1  1  0.27496000  0.80855000  0.41414000  1.0
  C  C2  1  0.27190000  0.41297000  0.77712000  1.0
  C  C3  1  0.26451000  0.77762000  0.81235000  1.0
  C  C4  1  0.93296000  0.47928000  0.07467000  1.0
  C  C5  1  0.93443000  0.07936000  0.44654000  1.0
  C  C6  1  0.92926000  0.44391000  0.47547000  1.0
  C  C7  1  0.60743000  0.14277000  0.74505000  1.0
  C  C8  1  0.59423000  0.74759000  0.10835000  1.0
  C  C9  1  0.61717000  0.11147000  0.14359000  1.0
  C  C10  1  0.72625000  0.18957000  0.59121000  1.0
  C  C11  1  0.72140000  0.59427000  0.21902000  1.0
  C  C12  1  0.73852000  0.22045000  0.18638000  1.0
  C  C13  1  0.40735000  0.85715000  0.25519000  1.0
  C  C14  1  0.40437000  0.25465000  0.88712000  1.0
  C  C15  1  0.38815000  0.88896000  0.85433000  1.0
  C  C16  1  0.05380000  0.52131000  0.92208000  1.0
  C  C17  1  0.06376000  0.92307000  0.55581000  1.0
  C  C18  1  0.06091000  0.55442000  0.52202000  1.0
  C  C19  1  0.10147000  0.77934000  0.41614000  1.0
  C  C20  1  0.10067000  0.41449000  0.80531000  1.0
  C  C21  1  0.09547000  0.80679000  0.78140000  1.0
  C  C22  1  0.76201000  0.44917000  0.07653000  1.0
  C  C23  1  0.76008000  0.08149000  0.47305000  1.0
  C  C24  1  0.75579000  0.47148000  0.44656000  1.0
  C  C25  1  0.43579000  0.11299000  0.74659000  1.0
  C  C26  1  0.42279000  0.74993000  0.13586000  1.0
  C  C27  1  0.44711000  0.13992000  0.11277000  1.0
  C  C28  1  0.89869000  0.21898000  0.58962000  1.0
  C  C29  1  0.89185000  0.59171000  0.19112000  1.0
  C  C30  1  0.90913000  0.19166000  0.21641000  1.0
  C  C31  1  0.58094000  0.88560000  0.25459000  1.0
  C  C32  1  0.57594000  0.25409000  0.85873000  1.0
  C  C33  1  0.56018000  0.86155000  0.88439000  1.0
  C  C34  1  0.22253000  0.55226000  0.92036000  1.0
  C  C35  1  0.23406000  0.92197000  0.52701000  1.0
  C  C36  1  0.23357000  0.52680000  0.55153000  1.0
  C  C37  1  0.08023000  0.72176000  0.46064000  1.0
  C  C38  1  0.08072000  0.45892000  0.81875000  1.0
  C  C39  1  0.07927000  0.82008000  0.72357000  1.0
  C  C40  1  0.74684000  0.39102000  0.12019000  1.0
  C  C41  1  0.73833000  0.12589000  0.48647000  1.0
  C  C42  1  0.73140000  0.48423000  0.38913000  1.0
  C  C43  1  0.41787000  0.05500000  0.79039000  1.0
  C  C44  1  0.40302000  0.79515000  0.14815000  1.0
  C  C45  1  0.43440000  0.15548000  0.05422000  1.0
  C  C46  1  0.91748000  0.27687000  0.54561000  1.0
  C  C47  1  0.90566000  0.54802000  0.17637000  1.0
  C  C48  1  0.92704000  0.17708000  0.27461000  1.0
  C  C49  1  0.60992000  0.94213000  0.20877000  1.0
  C  C50  1  0.60226000  0.20847000  0.84732000  1.0
  C  C51  1  0.57963000  0.84930000  0.94183000  1.0
  C  C52  1  0.23721000  0.61027000  0.87631000  1.0
  C  C53  1  0.25526000  0.87685000  0.51461000  1.0
  C  C54  1  0.25454000  0.51380000  0.60918000  1.0
  C  C55  1  0.22324000  0.69409000  0.50128000  1.0
  C  C56  1  0.22335000  0.49956000  0.80580000  1.0
  C  C57  1  0.22307000  0.80576000  0.69735000  1.0
  C  C58  1  0.89347000  0.36368000  0.15961000  1.0
  C  C59  1  0.88181000  0.16593000  0.47498000  1.0
  C  C60  1  0.87130000  0.47067000  0.36126000  1.0
  C  C61  1  0.56296000  0.02727000  0.83024000  1.0
  C  C62  1  0.54661000  0.83558000  0.13489000  1.0
  C  C63  1  0.58276000  0.14420000  0.02705000  1.0
  C  C64  1  0.77199000  0.30477000  0.50596000  1.0
  C  C65  1  0.75851000  0.50900000  0.18805000  1.0
  C  C66  1  0.78213000  0.18913000  0.30225000  1.0
  C  C67  1  0.47141000  0.97021000  0.16664000  1.0
  C  C68  1  0.46392000  0.16626000  0.86194000  1.0
  C  C69  1  0.43554000  0.86273000  0.96863000  1.0
  C  C70  1  0.09217000  0.63672000  0.83605000  1.0
  C  C71  1  0.11422000  0.83550000  0.52874000  1.0
  C  C72  1  0.11113000  0.52646000  0.63680000  1.0
  C  C73  1  0.39503000  0.72202000  0.49876000  1.0
  C  C74  1  0.39354000  0.49720000  0.77985000  1.0
  C  C75  1  0.39101000  0.77876000  0.72701000  1.0
  C  C76  1  0.06312000  0.39260000  0.15689000  1.0
  C  C77  1  0.05529000  0.16280000  0.45093000  1.0
  C  C78  1  0.04342000  0.44501000  0.38888000  1.0
  C  C79  1  0.73392000  0.05559000  0.82763000  1.0
  C  C80  1  0.71766000  0.83216000  0.10992000  1.0
  C  C81  1  0.75194000  0.11812000  0.05651000  1.0
  C  C82  1  0.59966000  0.27692000  0.50900000  1.0
  C  C83  1  0.58910000  0.51243000  0.21374000  1.0
  C  C84  1  0.61163000  0.21514000  0.27368000  1.0
  C  C85  1  0.29689000  0.94366000  0.16883000  1.0
  C  C86  1  0.29216000  0.16811000  0.88748000  1.0
  C  C87  1  0.26412000  0.88769000  0.94001000  1.0
  C  C88  1  0.92448000  0.60708000  0.83856000  1.0
  C  C89  1  0.94420000  0.83777000  0.55482000  1.0
  C  C90  1  0.93909000  0.55155000  0.60872000  1.0
  C  C91  1  0.41958000  0.77837000  0.45524000  1.0
  C  C92  1  0.41616000  0.45415000  0.76605000  1.0
  C  C93  1  0.41051000  0.76542000  0.78371000  1.0
  C  C94  1  0.08144000  0.44964000  0.11450000  1.0
  C  C95  1  0.07999000  0.11969000  0.43732000  1.0
  C  C96  1  0.07111000  0.43238000  0.44515000  1.0
  C  C97  1  0.75469000  0.11253000  0.78515000  1.0
  C  C98  1  0.74012000  0.78831000  0.09727000  1.0
  C  C99  1  0.76748000  0.10231000  0.11400000  1.0
  C  C100  1  0.57846000  0.22002000  0.55144000  1.0
  C  C101  1  0.57216000  0.55491000  0.22855000  1.0
  C  C102  1  0.59141000  0.23022000  0.21650000  1.0
  C  C103  1  0.26678000  0.88777000  0.21274000  1.0
  C  C104  1  0.26387000  0.21218000  0.89951000  1.0
  C  C105  1  0.24183000  0.90012000  0.88365000  1.0
  C  C106  1  0.90658000  0.55020000  0.88150000  1.0
  C  C107  1  0.92052000  0.88138000  0.56776000  1.0
  C  C108  1  0.91557000  0.56494000  0.55211000  1.0
  C  C109  1  0.31678000  0.86764000  0.37298000  1.0
  C  C110  1  0.31196000  0.37218000  0.75842000  1.0
  C  C111  1  0.29986000  0.75854000  0.87199000  1.0
  C  C112  1  0.96818000  0.53902000  0.03490000  1.0
  C  C113  1  0.97575000  0.03890000  0.42753000  1.0
  C  C114  1  0.97168000  0.42540000  0.53471000  1.0
  C  C115  1  0.64418000  0.20266000  0.70581000  1.0
  C  C116  1  0.63080000  0.70694000  0.08935000  1.0
  C  C117  1  0.65074000  0.09060000  0.20373000  1.0
  C  C118  1  0.68925000  0.12977000  0.63038000  1.0
  C  C119  1  0.68673000  0.63438000  0.23887000  1.0
  C  C120  1  0.70280000  0.24138000  0.12638000  1.0
  C  C121  1  0.36378000  0.79802000  0.29576000  1.0
  C  C122  1  0.36277000  0.29542000  0.90563000  1.0
  C  C123  1  0.35108000  0.90799000  0.79474000  1.0
  C  C124  1  0.02042000  0.46142000  0.96200000  1.0
  C  C125  1  0.02476000  0.96342000  0.57506000  1.0
  C  C126  1  0.02085000  0.57345000  0.46259000  1.0
  C  C127  1  0.25189000  0.96343000  0.29664000  1.0
  C  C128  1  0.24516000  0.29594000  0.73861000  1.0
  C  C129  1  0.22550000  0.73754000  0.96742000  1.0
  C  C130  1  0.89656000  0.63517000  0.96212000  1.0
  C  C131  1  0.91231000  0.96431000  0.40541000  1.0
  C  C132  1  0.90858000  0.40385000  0.63093000  1.0
  C  C133  1  0.57143000  0.29938000  0.63338000  1.0
  C  C134  1  0.56043000  0.63366000  0.06610000  1.0
  C  C135  1  0.57487000  0.06667000  0.30005000  1.0
  C  C136  1  0.75944000  0.03304000  0.70242000  1.0
  C  C137  1  0.75869000  0.70870000  0.26064000  1.0
  C  C138  1  0.77291000  0.26596000  0.02987000  1.0
  C  C139  1  0.42769000  0.70127000  0.37004000  1.0
  C  C140  1  0.42554000  0.37015000  0.92729000  1.0
  C  C141  1  0.42176000  0.93104000  0.69855000  1.0
  C  C142  1  0.09796000  0.36543000  0.03489000  1.0
  C  C143  1  0.09354000  0.03783000  0.59710000  1.0
  C  C144  1  0.08538000  0.59563000  0.36623000  1.0
  C  C145  1  0.08034000  0.99741000  0.26089000  1.0
  C  C146  1  0.07360000  0.26012000  0.74069000  1.0
  C  C147  1  0.05207000  0.74036000  0.99968000  1.0
  C  C148  1  0.72901000  0.66834000  0.92387000  1.0
  C  C149  1  0.74557000  0.92632000  0.40918000  1.0
  C  C150  1  0.74207000  0.40795000  0.66489000  1.0
  C  C151  1  0.40110000  0.33223000  0.59612000  1.0
  C  C152  1  0.39238000  0.59581000  0.07055000  1.0
  C  C153  1  0.40227000  0.07028000  0.33231000  1.0
  C  C154  1  0.92811000  0.99945000  0.73971000  1.0
  C  C155  1  0.93130000  0.74411000  0.25865000  1.0
  C  C156  1  0.93846000  0.26022000  0.99667000  1.0
  C  C157  1  0.59897000  0.66661000  0.40538000  1.0
  C  C158  1  0.59169000  0.40800000  0.92407000  1.0
  C  C159  1  0.59129000  0.92712000  0.66556000  1.0
  C  C160  1  0.27174000  0.33297000  0.07034000  1.0
  C  C161  1  0.26400000  0.07432000  0.59412000  1.0
  C  C162  1  0.25715000  0.59556000  0.33180000  1.0
  N  N1  1  0.19704000  0.90401000  0.33577000  1.0
  N  N2  1  0.19250000  0.33466000  0.75976000  1.0
  N  N3  1  0.17677000  0.75961000  0.90726000  1.0
  N  N4  1  0.84477000  0.57513000  0.99915000  1.0
  N  N5  1  0.85576000  0.00240000  0.42702000  1.0
  N  N6  1  0.85206000  0.42542000  0.57133000  1.0
  N  N7  1  0.52118000  0.23907000  0.67016000  1.0
  N  N8  1  0.50819000  0.67101000  0.08894000  1.0
  N  N9  1  0.52639000  0.08992000  0.23958000  1.0
  N  N10  1  0.81190000  0.09313000  0.66593000  1.0
  N  N11  1  0.80917000  0.67087000  0.23823000  1.0
  N  N12  1  0.82554000  0.24218000  0.09006000  1.0
  N  N13  1  0.48248000  0.76116000  0.33295000  1.0
  N  N14  1  0.48202000  0.33246000  0.90533000  1.0
  N  N15  1  0.47360000  0.90814000  0.75871000  1.0
  N  N16  1  0.14492000  0.42587000  0.99778000  1.0
  N  N17  1  0.14511000  0.00045000  0.57429000  1.0
  N  N18  1  0.14087000  0.57332000  0.42610000  1.0
  O  O1  1  0.96317000  0.80455000  0.37718000  1.0
  O  O2  1  0.96391000  0.37498000  0.81990000  1.0
  O  O3  1  0.95787000  0.82236000  0.80518000  1.0
  O  O4  1  0.62114000  0.47419000  0.03829000  1.0
  O  O5  1  0.62088000  0.04305000  0.48551000  1.0
  O  O6  1  0.62015000  0.48586000  0.47188000  1.0
  O  O7  1  0.29663000  0.13784000  0.70777000  1.0
  O  O8  1  0.28545000  0.71064000  0.15047000  1.0
  O  O9  1  0.30430000  0.15265000  0.13730000  1.0
  O  O10  1  0.03746000  0.19362000  0.62847000  1.0
  O  O11  1  0.03447000  0.62910000  0.17848000  1.0
  O  O12  1  0.04726000  0.17784000  0.19134000  1.0
  O  O13  1  0.71101000  0.86070000  0.29637000  1.0
  O  O14  1  0.70541000  0.29586000  0.84215000  1.0
  O  O15  1  0.69864000  0.84734000  0.85976000  1.0
  O  O16  1  0.36156000  0.52819000  0.95938000  1.0
  O  O17  1  0.36799000  0.96254000  0.51073000  1.0
  O  O18  1  0.37079000  0.51253000  0.52657000  1.0
  O  O19  1  0.92151000  0.97005000  0.26970000  1.0
  O  O20  1  0.91775000  0.26738000  0.76170000  1.0
  O  O21  1  0.90033000  0.76446000  0.97016000  1.0
  O  O22  1  0.57603000  0.63973000  0.92794000  1.0
  O  O23  1  0.59104000  0.93072000  0.43259000  1.0
  O  O24  1  0.58487000  0.42987000  0.63736000  1.0
  O  O25  1  0.24888000  0.30312000  0.60127000  1.0
  O  O26  1  0.24029000  0.60005000  0.09508000  1.0
  O  O27  1  0.24908000  0.09257000  0.30276000  1.0
  O  O28  1  0.08257000  0.02760000  0.73507000  1.0
  O  O29  1  0.08292000  0.73920000  0.23440000  1.0
  O  O30  1  0.09123000  0.23528000  0.02523000  1.0
  O  O31  1  0.75383000  0.69457000  0.40090000  1.0
  O  O32  1  0.74914000  0.40253000  0.90240000  1.0
  O  O33  1  0.74344000  0.90267000  0.69474000  1.0
  O  O34  1  0.42311000  0.36259000  0.06489000  1.0
  O  O35  1  0.41629000  0.06972000  0.56994000  1.0
  O  O36  1  0.40914000  0.57006000  0.36037000  1.0
  O  O37  1  0.09322000  0.04992000  0.22474000  1.0
  O  O38  1  0.08391000  0.22527000  0.72249000  1.0
  O  O39  1  0.05764000  0.71958000  0.05313000  1.0
  O  O40  1  0.74046000  0.72149000  0.89026000  1.0
  O  O41  1  0.75894000  0.89223000  0.39013000  1.0
  O  O42  1  0.75837000  0.39009000  0.71762000  1.0
  O  O43  1  0.40821000  0.38543000  0.56220000  1.0
  O  O44  1  0.40237000  0.56249000  0.05047000  1.0
  O  O45  1  0.40918000  0.05201000  0.38534000  1.0
  O  O46  1  0.91647000  0.94629000  0.77323000  1.0
  O  O47  1  0.92503000  0.77653000  0.27987000  1.0
  O  O48  1  0.92592000  0.27978000  0.94347000  1.0
  O  O49  1  0.58901000  0.61309000  0.43723000  1.0
  O  O50  1  0.57505000  0.44266000  0.94231000  1.0
  O  O51  1  0.58303000  0.94744000  0.61224000  1.0
  O  O52  1  0.26742000  0.27948000  0.10293000  1.0
  O  O53  1  0.25613000  0.10720000  0.61476000  1.0
  O  O54  1  0.25019000  0.61902000  0.27810000  1.0
