# generated using pymatgen
data_H6C12N5O3
_symmetry_space_group_name_H-M   'P 1'
_cell_length_a   29.24940000
_cell_length_b   29.24940000
_cell_length_c   32.94260000
_cell_angle_alpha   89.74280000
_cell_angle_beta   90.27300000
_cell_angle_gamma   90.00000000
_symmetry_Int_Tables_number   1
_chemical_formula_structural   H6C12N5O3
_chemical_formula_sum   'H96 C192 N80 O48'
_cell_volume   28182.69305579
_cell_formula_units_Z   16
loop_
 _symmetry_equiv_pos_site_id
 _symmetry_equiv_pos_as_xyz
  1  'x, y, z'
loop_
 _atom_site_type_symbol
 _atom_site_label
 _atom_site_symmetry_multiplicity
 _atom_site_fract_x
 _atom_site_fract_y
 _atom_site_fract_z
 _atom_site_occupancy
  H  7  1  0.73203700  0.82400000  0.87927900  1
  H  16  1  0.73759100  0.97920500  0.87541300  1
  H  17  1  0.60723800  0.84261000  0.78109400  1
  H  18  1  0.86477700  0.98035800  0.96986500  1
  H  19  1  0.66700800  0.95246100  0.87495800  1
  H  20  1  0.75980900  0.85721100  0.93991700  1
  H  25  1  0.81227300  0.05060400  0.93713100  1
  H  26  1  0.60765800  0.95849900  0.81478500  1
  H  27  1  0.64124100  0.76954300  0.81659400  1
  H  28  1  0.82463700  0.85557800  0.98783200  1
  H  35  1  0.24491600  0.14852300  0.88108200  1
  H  44  1  0.23937600  0.99342100  0.87753000  1
  H  45  1  0.36898700  0.12998700  0.78357800  1
  H  46  1  0.11178600  0.99133400  0.97045600  1
  H  47  1  0.30994800  0.02012900  0.87815400  1
  H  48  1  0.21674400  0.11488000  0.94153400  1
  H  53  1  0.16458300  0.92137100  0.93843600  1
  H  54  1  0.36833700  0.01289600  0.81980000  1
  H  55  1  0.33560600  0.20313400  0.81874200  1
  H  56  1  0.15148000  0.11610300  0.98843500  1
  H  63  1  0.32617700  0.74246000  0.38062500  1
  H  72  1  0.48133400  0.73680200  0.37697900  1
  H  73  1  0.34403900  0.86686200  0.28216400  1
  H  74  1  0.48315300  0.60952400  0.47129100  1
  H  75  1  0.45465000  0.80737000  0.37637200  1
  H  76  1  0.35982600  0.71456600  0.44118300  1
  H  81  1  0.55321800  0.66204900  0.43870900  1
  H  82  1  0.46034700  0.86642100  0.31612400  1
  H  83  1  0.27121300  0.83306800  0.31771500  1
  H  84  1  0.35858000  0.64923500  0.48868800  1
  H  91  1  0.65070200  0.22959600  0.37974200  1
  H  100  1  0.49554700  0.23505500  0.37595600  1
  H  101  1  0.63143100  0.10514200  0.28249800  1
  H  102  1  0.49409800  0.36251800  0.46905400  1
  H  103  1  0.52232100  0.16446900  0.37671200  1
  H  104  1  0.61748800  0.25764600  0.44027300  1
  H  109  1  0.42396800  0.30974000  0.43687600  1
  H  110  1  0.51478400  0.10581500  0.31836700  1
  H  111  1  0.70480800  0.13871900  0.31762300  1
  H  112  1  0.61908900  0.32238600  0.48760400  1
  H  119  1  0.23158800  0.64862900  0.81143700  1
  H  128  1  0.24076400  0.49430300  0.81773100  1
  H  129  1  0.10755300  0.63041500  0.90979600  1
  H  130  1  0.35543500  0.48691500  0.71296500  1
  H  131  1  0.16872900  0.51926400  0.81854500  1
  H  132  1  0.25384000  0.61420000  0.74867000  1
  H  137  1  0.30902900  0.42149200  0.75208700  1
  H  138  1  0.10883100  0.51348700  0.87719000  1
  H  139  1  0.14090100  0.70315100  0.87355100  1
  H  140  1  0.28320500  0.60725900  0.68112100  1
  H  147  1  0.74600500  0.32446400  0.81027700  1
  H  156  1  0.73702000  0.47869100  0.81597100  1
  H  157  1  0.87087800  0.34210400  0.90871900  1
  H  158  1  0.62138100  0.48642300  0.71089000  1
  H  159  1  0.80912000  0.45365800  0.81675300  1
  H  160  1  0.72345900  0.35919700  0.74730400  1
  H  165  1  0.66792600  0.55179200  0.75007800  1
  H  166  1  0.86938400  0.46003900  0.87403400  1
  H  167  1  0.83701900  0.26943300  0.87276100  1
  H  168  1  0.69375800  0.36634800  0.67985200  1
  H  175  1  0.82594900  0.72837200  0.31137900  1
  H  184  1  0.98026400  0.73732600  0.31751700  1
  H  185  1  0.84398400  0.60354900  0.41004700  1
  H  186  1  0.98746400  0.85249800  0.21218900  1
  H  187  1  0.95521700  0.66526500  0.31867100  1
  H  188  1  0.86029100  0.75072800  0.24847800  1
  H  193  1  0.05294600  0.80599200  0.25152200  1
  H  194  1  0.96074800  0.60472900  0.37758700  1
  H  195  1  0.77127300  0.63747700  0.37383800  1
  H  196  1  0.86697000  0.78044900  0.18090700  1
  H  203  1  0.15010100  0.24279200  0.31033500  1
  H  212  1  0.99587300  0.23360300  0.31617500  1
  H  213  1  0.13227500  0.36684900  0.40849200  1
  H  214  1  0.98795300  0.11846500  0.21165500  1
  H  215  1  0.02081900  0.30568100  0.31661300  1
  H  216  1  0.11528400  0.22036400  0.24748500  1
  H  221  1  0.92264400  0.16490800  0.25063900  1
  H  222  1  0.01420600  0.36532200  0.37364900  1
  H  223  1  0.20497600  0.33358000  0.37249300  1
  H  224  1  0.10785900  0.19103300  0.18004500  1
  H  231  1  0.50509600  0.06713800  0.84166400  1
  H  243  1  0.56897600  0.96930500  0.34254300  1
  H  255  1  0.00524100  0.40544100  0.85074600  1
  H  267  1  0.06889500  0.50158600  0.35095500  1
  H  279  1  0.92475800  0.91032100  0.12881800  1
  H  291  1  0.05118300  0.06052700  0.12878800  1
  H  303  1  0.41372900  0.55029700  0.63061400  1
  H  315  1  0.56394200  0.42390600  0.62697400  1
  H  327  1  0.71830700  0.10794600  0.83683900  1
  H  339  1  0.25878500  0.86550100  0.83882100  1
  H  351  1  0.60934100  0.75605600  0.33832400  1
  H  363  1  0.36690000  0.21560200  0.33732500  1
  H  375  1  0.22008300  0.36596800  0.85592100  1
  H  387  1  0.75749100  0.60667500  0.85411900  1
  H  399  1  0.10880600  0.71697200  0.35590000  1
  H  411  1  0.86809200  0.25440700  0.35413000  1
  C  1  1  0.70731500  0.89230800  0.87994500  1
  C  2  1  0.70565400  0.84464400  0.87028100  1
  C  3  1  0.67022000  0.82510000  0.84596700  1
  C  4  1  0.63432100  0.85457200  0.83236900  1
  C  5  1  0.63392500  0.90130000  0.84271000  1
  C  6  1  0.67006700  0.91914600  0.86587200  1
  C  9  1  0.74207200  0.91431900  0.90383700  1
  C  10  1  0.76673200  0.89106700  0.93477200  1
  C  11  1  0.79703600  0.91385000  0.96177800  1
  C  12  1  0.80482100  0.96153400  0.95599500  1
  C  13  1  0.78212700  0.98649200  0.92465700  1
  C  14  1  0.75179100  0.96186100  0.89931900  1
  C  21  1  0.59946800  0.93088600  0.83100700  1
  C  22  1  0.66886500  0.77857400  0.83345600  1
  C  23  1  0.81778000  0.88840100  0.99296100  1
  C  24  1  0.78921000  0.03424200  0.91882100  1
  C  29  1  0.26963100  0.08022200  0.88233500  1
  C  30  1  0.27132900  0.12792000  0.87247100  1
  C  31  1  0.30670700  0.14747600  0.84824200  1
  C  32  1  0.34250600  0.11800700  0.83496000  1
  C  33  1  0.34299800  0.07127500  0.84567800  1
  C  34  1  0.30694000  0.05346900  0.86881800  1
  C  37  1  0.23474100  0.05804800  0.90583000  1
  C  38  1  0.20981700  0.08107700  0.93633300  1
  C  39  1  0.17942600  0.05803900  0.96302200  1
  C  40  1  0.17176500  0.01037200  0.95726600  1
  C  41  1  0.19461400  0.98567800  0.92623900  1
  C  42  1  0.22502400  0.01055600  0.90122600  1
  C  49  1  0.37719100  0.04145500  0.83428100  1
  C  50  1  0.30807100  0.19405400  0.83554100  1
  C  51  1  0.15840300  0.08327800  0.99382300  1
  C  52  1  0.18765200  0.93795700  0.92036000  1
  C  57  1  0.39451100  0.76712300  0.38134500  1
  C  58  1  0.34676900  0.76880400  0.37161500  1
  C  59  1  0.32705500  0.80418500  0.34720900  1
  C  60  1  0.35643100  0.84000200  0.33354500  1
  C  61  1  0.40324700  0.84039800  0.34396100  1
  C  62  1  0.42125300  0.80431700  0.36724400  1
  C  65  1  0.41668100  0.73235900  0.40528100  1
  C  66  1  0.39364600  0.70765600  0.43611700  1
  C  67  1  0.41661200  0.67728400  0.46311600  1
  C  68  1  0.46425400  0.66950600  0.45746000  1
  C  69  1  0.48898900  0.69222400  0.42619900  1
  C  70  1  0.46417600  0.72260400  0.40084600  1
  C  77  1  0.43279800  0.87473300  0.33216400  1
  C  78  1  0.28041500  0.80551900  0.33467500  1
  C  79  1  0.39132800  0.65640700  0.49411900  1
  C  80  1  0.53668600  0.68512400  0.42040400  1
  C  85  1  0.58242700  0.20483400  0.38093200  1
  C  86  1  0.63004700  0.20315000  0.37113600  1
  C  87  1  0.64943600  0.16772000  0.34699900  1
  C  88  1  0.61987000  0.13184700  0.33377600  1
  C  89  1  0.57322900  0.13136300  0.34441000  1
  C  90  1  0.55558100  0.16748000  0.36742900  1
  C  93  1  0.56040900  0.23971500  0.40438800  1
  C  94  1  0.58365000  0.26458600  0.43499400  1
  C  95  1  0.56078800  0.29490600  0.46169200  1
  C  96  1  0.51308000  0.30257000  0.45581500  1
  C  97  1  0.48816400  0.27974900  0.42470600  1
  C  98  1  0.51286500  0.24939700  0.39969800  1
  C  105  1  0.54336900  0.09706400  0.33308400  1
  C  106  1  0.69589900  0.16632700  0.33433200  1
  C  107  1  0.58619300  0.31578900  0.49268300  1
  C  108  1  0.44038800  0.28669200  0.41878900  1
  C  113  1  0.20776600  0.58003600  0.81214500  1
  C  114  1  0.20567400  0.62784800  0.82104500  1
  C  115  1  0.17032900  0.64739800  0.84514000  1
  C  116  1  0.13475400  0.61780700  0.85891600  1
  C  117  1  0.13493300  0.57081100  0.84949500  1
  C  118  1  0.17130800  0.55285600  0.82698400  1
  C  121  1  0.24165900  0.55820800  0.78752900  1
  C  122  1  0.26242700  0.58079300  0.75427500  1
  C  123  1  0.28996900  0.55756700  0.72550000  1
  C  124  1  0.29918400  0.51019700  0.73196300  1
  C  125  1  0.28038600  0.48599200  0.76559100  1
  C  126  1  0.25265000  0.51106000  0.79261600  1
  C  133  1  0.10054300  0.54119300  0.86106100  1
  C  134  1  0.16869400  0.69406800  0.85718000  1
  C  135  1  0.30281900  0.58125100  0.69015200  1
  C  136  1  0.28772400  0.43828300  0.77153300  1
  C  141  1  0.76999400  0.39298000  0.81065400  1
  C  142  1  0.77210300  0.34513500  0.81973700  1
  C  143  1  0.80762000  0.32544600  0.84398500  1
  C  144  1  0.84337700  0.35489900  0.85768200  1
  C  145  1  0.84323700  0.40193300  0.84799000  1
  C  146  1  0.80666400  0.42001700  0.82533900  1
  C  149  1  0.73583900  0.41496800  0.78599100  1
  C  150  1  0.71476100  0.39252000  0.75283300  1
  C  151  1  0.68704900  0.41590800  0.72387400  1
  C  152  1  0.67783600  0.46323400  0.73015900  1
  C  153  1  0.69684700  0.48726000  0.76377000  1
  C  154  1  0.72485900  0.46207200  0.79092000  1
  C  161  1  0.87776600  0.43158300  0.85925800  1
  C  162  1  0.80922100  0.27870700  0.85616700  1
  C  163  1  0.67417900  0.39238000  0.68853100  1
  C  164  1  0.68944900  0.53492000  0.76959200  1
  C  169  1  0.89449100  0.70441200  0.31214100  1
  C  170  1  0.84668600  0.70235100  0.32105700  1
  C  171  1  0.82709100  0.66689200  0.34526900  1
  C  172  1  0.85661000  0.63115100  0.35912400  1
  C  173  1  0.90360300  0.63131800  0.34969200  1
  C  174  1  0.92162900  0.66783100  0.32710100  1
  C  177  1  0.91632200  0.73839900  0.28736400  1
  C  178  1  0.89370100  0.75929700  0.25401800  1
  C  179  1  0.91689600  0.78693200  0.22507600  1
  C  180  1  0.96426500  0.79613900  0.23148100  1
  C  181  1  0.98850200  0.77721900  0.26519800  1
  C  182  1  0.96347900  0.74934500  0.29236700  1
  C  189  1  0.93314200  0.59675700  0.36126400  1
  C  190  1  0.78043300  0.66531700  0.35733300  1
  C  191  1  0.89315500  0.79989400  0.18967700  1
  C  192  1  0.03620300  0.78459600  0.27109300  1
  C  197  1  0.08153700  0.26665700  0.31065400  1
  C  198  1  0.12939200  0.26878600  0.31972400  1
  C  199  1  0.14903300  0.30417900  0.34386700  1
  C  200  1  0.11950600  0.33977300  0.35749100  1
  C  201  1  0.07247200  0.33963300  0.34779800  1
  C  202  1  0.05445900  0.30320700  0.32521600  1
  C  205  1  0.05955200  0.23260000  0.28614700  1
  C  206  1  0.08197000  0.21165200  0.25308000  1
  C  207  1  0.05854700  0.18403300  0.22429000  1
  C  208  1  0.01121900  0.17481400  0.23063400  1
  C  209  1  0.98722700  0.19370100  0.26415400  1
  C  210  1  0.01246000  0.22157600  0.29116200  1
  C  217  1  0.04274300  0.37399100  0.35906300  1
  C  218  1  0.19578000  0.30583100  0.35603000  1
  C  219  1  0.08201600  0.17127800  0.18899400  1
  C  220  1  0.93956300  0.18634200  0.27002800  1
  C  225  1  0.52496100  0.95584400  0.84453600  1
  C  227  1  0.49766200  0.03301300  0.84273700  1
  C  228  1  0.45231600  0.01731200  0.84491700  1
  C  230  1  0.47961500  0.93984000  0.84800300  1
  C  237  1  0.45769100  0.94948200  0.34489000  1
  C  239  1  0.53484600  0.97675900  0.34321100  1
  C  240  1  0.51914300  0.02214700  0.34451000  1
  C  242  1  0.44167700  0.99489000  0.34747900  1
  C  249  1  0.02569600  0.51661400  0.84761900  1
  C  251  1  0.99798300  0.43960800  0.84962200  1
  C  252  1  0.95269200  0.45556300  0.84767100  1
  C  254  1  0.98037900  0.53286000  0.84427600  1
  C  261  1  0.95773600  0.52208900  0.34763700  1
  C  263  1  0.03473100  0.49434400  0.34975900  1
  C  264  1  0.01877800  0.44907500  0.34770100  1
  C  266  1  0.94148900  0.47682000  0.34418800  1
  C  273  1  0.84492000  0.88474900  0.06117500  1
  C  275  1  0.89911900  0.89170200  0.11569800  1
  C  276  1  0.88379200  0.85050700  0.13329300  1
  C  278  1  0.82886400  0.84348900  0.07876700  1
  C  285  1  0.13092000  0.08669600  0.06168200  1
  C  287  1  0.07668300  0.07934900  0.11575300  1
  C  288  1  0.09169300  0.12063900  0.13319300  1
  C  290  1  0.14668300  0.12804100  0.07914000  1
  C  297  1  0.38771800  0.62955900  0.56237200  1
  C  299  1  0.39492900  0.57569500  0.61718100  1
  C  300  1  0.35352200  0.59073400  0.63425300  1
  C  302  1  0.34623300  0.64531600  0.57943300  1
  C  309  1  0.58965000  0.34356700  0.56049300  1
  C  311  1  0.58257500  0.39815400  0.61426100  1
  C  312  1  0.62364000  0.38283900  0.63223800  1
  C  314  1  0.63075300  0.32748900  0.57849500  1
  C  321  1  0.77893300  0.19966800  0.86181400  1
  C  323  1  0.74237900  0.12645000  0.85220500  1
  C  324  1  0.77033000  0.10571100  0.88199000  1
  C  326  1  0.80671800  0.17887300  0.89248200  1
  C  333  1  0.19867600  0.77314600  0.86318000  1
  C  335  1  0.23484600  0.84668200  0.85399200  1
  C  336  1  0.20684000  0.86691500  0.88361500  1
  C  338  1  0.17088000  0.79342300  0.89372400  1
  C  345  1  0.70147700  0.69558900  0.36313700  1
  C  347  1  0.62807600  0.73202600  0.35366600  1
  C  348  1  0.60775700  0.70406200  0.38349700  1
  C  350  1  0.68111400  0.66781300  0.39386700  1
  C  357  1  0.27494800  0.27584100  0.36186500  1
  C  359  1  0.34830800  0.23957300  0.35253000  1
  C  360  1  0.36895200  0.26756100  0.38211600  1
  C  362  1  0.29564200  0.30363700  0.39235800  1
  C  369  1  0.27829700  0.27327000  0.82986800  1
  C  371  1  0.24328800  0.34706300  0.84010000  1
  C  372  1  0.27026600  0.36725200  0.80955300  1
  C  374  1  0.30517900  0.29353800  0.79852600  1
  C  381  1  0.69881100  0.69947200  0.82791200  1
  C  383  1  0.73411000  0.62566500  0.83823500  1
  C  384  1  0.70696200  0.60569300  0.80762400  1
  C  386  1  0.67176200  0.67942600  0.79650100  1
  C  393  1  0.20128100  0.77550300  0.32932900  1
  C  395  1  0.12761300  0.74025500  0.33989300  1
  C  396  1  0.10729400  0.76721600  0.30917800  1
  C  398  1  0.18088200  0.80236300  0.29781600  1
  C  405  1  0.77508100  0.19603300  0.32845500  1
  C  407  1  0.84900800  0.23109800  0.33843600  1
  C  408  1  0.86884800  0.20393500  0.30799700  1
  C  410  1  0.79499500  0.16895600  0.29721800  1
  N  226  1  0.53200100  0.00187100  0.84265200  1
  N  229  1  0.44538600  0.97140800  0.84804400  1
  N  232  1  0.47022300  0.89277800  0.85178500  1
  N  235  1  0.55987600  0.92718800  0.84730900  1
  N  236  1  0.41797000  0.04644900  0.84815400  1
  N  238  1  0.50371500  0.94241500  0.34345700  1
  N  241  1  0.47323900  0.02912800  0.34720000  1
  N  244  1  0.39461300  0.00433300  0.35076100  1
  N  247  1  0.42907800  0.91458300  0.34795000  1
  N  248  1  0.54831500  0.05651200  0.34750600  1
  N  250  1  0.03250300  0.47055600  0.84954300  1
  N  253  1  0.94596100  0.50149100  0.84446800  1
  N  256  1  0.97118200  0.57996100  0.84043100  1
  N  259  1  0.06072800  0.54510000  0.84487000  1
  N  260  1  0.91811900  0.42662400  0.84475100  1
  N  262  1  0.00379000  0.52886900  0.34967400  1
  N  265  1  0.97285400  0.44239800  0.34438000  1
  N  268  1  0.89439200  0.46768800  0.34022700  1
  N  271  1  0.92929300  0.55718700  0.34490500  1
  N  272  1  0.04775400  0.41457000  0.34474700  1
  N  274  1  0.87903500  0.90722200  0.08095900  1
  N  277  1  0.84909100  0.82842600  0.11382200  1
  N  280  1  0.79201300  0.81940200  0.06142400  1
  N  283  1  0.82699200  0.90483000  0.02831700  1
  N  284  1  0.90302600  0.83497500  0.16755600  1
  N  286  1  0.09692900  0.06398400  0.08132300  1
  N  289  1  0.12630100  0.14293200  0.11389200  1
  N  292  1  0.18343200  0.15237400  0.06201900  1
  N  295  1  0.14907100  0.06672600  0.02916400  1
  N  296  1  0.07243300  0.13597100  0.16725000  1
  N  298  1  0.41041500  0.59574700  0.58254700  1
  N  301  1  0.33121000  0.62512900  0.61439400  1
  N  304  1  0.32186400  0.68184500  0.56167700  1
  N  307  1  0.40776900  0.64751300  0.52966900  1
  N  308  1  0.33803000  0.57153800  0.66842000  1
  N  310  1  0.56717200  0.37787700  0.57972700  1
  N  313  1  0.64568600  0.34791200  0.61334100  1
  N  316  1  0.65479000  0.29040400  0.56179900  1
  N  319  1  0.56964900  0.32544800  0.52782100  1
  N  320  1  0.63900900  0.40213700  0.66638900  1
  N  322  1  0.74772800  0.17176300  0.84362800  1
  N  325  1  0.80091500  0.13342800  0.90084400  1
  N  328  1  0.83871800  0.20315800  0.91604300  1
  N  331  1  0.77957300  0.24404600  0.84814600  1
  N  332  1  0.76653400  0.06036600  0.89092200  1
  N  334  1  0.22970100  0.80145100  0.84527500  1
  N  337  1  0.17644700  0.83879900  0.90220700  1
  N  340  1  0.13908700  0.76868900  0.91706600  1
  N  343  1  0.19821900  0.72892100  0.84941300  1
  N  344  1  0.21041000  0.91217500  0.89265200  1
  N  346  1  0.67328800  0.72674000  0.34499900  1
  N  349  1  0.63576300  0.67354600  0.40231500  1
  N  352  1  0.70575500  0.63592300  0.41745100  1
  N  355  1  0.74569400  0.69499800  0.34939100  1
  N  356  1  0.56251900  0.70779000  0.39249800  1
  N  358  1  0.30297500  0.24477600  0.34390000  1
  N  361  1  0.34111700  0.29800400  0.40075500  1
  N  364  1  0.27125700  0.33551900  0.41569300  1
  N  367  1  0.23055900  0.27634500  0.34817700  1
  N  368  1  0.41432100  0.26392600  0.39108000  1
  N  370  1  0.24826000  0.30170200  0.84867200  1
  N  373  1  0.29965600  0.33901800  0.79007700  1
  N  376  1  0.33593500  0.26867200  0.77441300  1
  N  379  1  0.27891100  0.22898000  0.84377300  1
  N  380  1  0.26655600  0.41257000  0.80046000  1
  N  382  1  0.72907200  0.67093100  0.84679000  1
  N  385  1  0.67734400  0.63403900  0.78807400  1
  N  388  1  0.64074000  0.70443800  0.77231300  1
  N  391  1  0.69818500  0.74364300  0.84178700  1
  N  392  1  0.71072900  0.56046600  0.79855400  1
  N  394  1  0.17297600  0.74535100  0.34837800  1
  N  397  1  0.13540800  0.79671500  0.28945900  1
  N  400  1  0.20562000  0.83320000  0.27343400  1
  N  403  1  0.24560200  0.77623000  0.34315600  1
  N  404  1  0.06196900  0.76340400  0.30015000  1
  N  406  1  0.80374300  0.22618200  0.34708100  1
  N  409  1  0.84038300  0.17441800  0.28869400  1
  N  412  1  0.76985800  0.13801000  0.27330600  1
  N  415  1  0.73094200  0.19551800  0.34240600  1
  N  416  1  0.91406800  0.20760100  0.29885700  1
  O  8  1  0.59843400  0.83868500  0.80968500  1
  O  15  1  0.83405600  0.98402300  0.98141500  1
  O  36  1  0.37813500  0.13387700  0.81213200  1
  O  43  1  0.14245900  0.98765500  0.98239000  1
  O  64  1  0.34037000  0.87579700  0.31072000  1
  O  71  1  0.48689700  0.64022500  0.48290200  1
  O  92  1  0.63556400  0.09612200  0.31108800  1
  O  99  1  0.49051000  0.33181800  0.48092000  1
  O  120  1  0.09873500  0.63379100  0.88108100  1
  O  127  1  0.32343900  0.48660000  0.70364500  1
  O  148  1  0.87948200  0.33874100  0.88005300  1
  O  155  1  0.65332600  0.48694500  0.70169700  1
  O  176  1  0.84055100  0.59499000  0.38134800  1
  O  183  1  0.98783400  0.82053300  0.20304300  1
  O  204  1  0.13558800  0.37572200  0.37981800  1
  O  211  1  0.98748000  0.15044400  0.20229300  1
  O  233  1  0.44974200  0.88499400  0.88451200  1
  O  234  1  0.44483800  0.88001100  0.82316000  1
  O  245  1  0.38685200  0.02548700  0.38309300  1
  O  246  1  0.38180400  0.02911700  0.32164000  1
  O  257  1  0.95024100  0.58776700  0.80776000  1
  O  258  1  0.94629900  0.59293800  0.86911400  1
  O  269  1  0.88665800  0.44715900  0.30750600  1
  O  270  1  0.88133900  0.44244900  0.36884100  1
  O  281  1  0.75963200  0.81665800  0.08620700  1
  O  282  1  0.80421100  0.77953300  0.05257500  1
  O  293  1  0.21574200  0.15526200  0.08711800  1
  O  294  1  0.17102700  0.19218900  0.05278800  1
  O  305  1  0.31869600  0.71432300  0.58630200  1
  O  306  1  0.28215100  0.66921700  0.55241500  1
  O  317  1  0.65723600  0.25820000  0.58705500  1
  O  318  1  0.69477000  0.30235900  0.55299500  1
  O  329  1  0.87808200  0.18665800  0.91203500  1
  O  330  1  0.82837200  0.20184300  0.95299300  1
  O  341  1  0.09962100  0.78502900  0.91286500  1
  O  342  1  0.14956200  0.76960200  0.95407700  1
  O  353  1  0.68928300  0.59651600  0.41354100  1
  O  354  1  0.70488100  0.64636900  0.45438200  1
  O  365  1  0.28761400  0.37495000  0.41141000  1
  O  366  1  0.27261500  0.32512300  0.45271600  1
  O  377  1  0.37566900  0.28460500  0.77759300  1
  O  378  1  0.32430200  0.27002300  0.73767400  1
  O  389  1  0.60107700  0.68835600  0.77540500  1
  O  390  1  0.65209200  0.70348800  0.73560200  1
  O  401  1  0.18957400  0.87288800  0.27631700  1
  O  402  1  0.20423700  0.82157900  0.23678700  1
  O  413  1  0.78583800  0.09830300  0.27669700  1
  O  414  1  0.77077200  0.14936900  0.23650200  1
