# generated using pymatgen
data_MnH7C9NO4
_symmetry_space_group_name_H-M   'P 1'
_cell_length_a   7.16070000
_cell_length_b   7.47308000
_cell_length_c   24.29305000
_cell_angle_alpha   90.00000000
_cell_angle_beta   90.00000000
_cell_angle_gamma   92.83629000
_symmetry_Int_Tables_number   1
_chemical_formula_structural   MnH7C9NO4
_chemical_formula_sum   'Mn4 H28 C36 N4 O16'
_cell_volume   1298.38896658
_cell_formula_units_Z   4
loop_
 _symmetry_equiv_pos_site_id
 _symmetry_equiv_pos_as_xyz
  1  'x, y, z'
loop_
 _atom_site_type_symbol
 _atom_site_label
 _atom_site_symmetry_multiplicity
 _atom_site_fract_x
 _atom_site_fract_y
 _atom_site_fract_z
 _atom_site_occupancy
  Mn  Mn1  1  0.14306000  0.62003000  0.28823000  1.0
  Mn  Mn2  1  0.35697000  0.87998000  0.78824000  1.0
  Mn  Mn3  1  0.85694000  0.37998000  0.71176000  1.0
  Mn  Mn4  1  0.64303000  0.12003000  0.21176000  1.0
  H  H1  1  0.15590000  0.33086000  0.12582000  1.0
  H  H2  1  0.16363000  0.55835000  0.14916000  1.0
  H  H3  1  0.94755000  0.58274000  0.40648000  1.0
  H  H4  1  0.89762000  0.35413000  0.47963000  1.0
  H  H5  1  0.19841000  0.99252000  0.37747000  1.0
  H  H6  1  0.23806000  0.23585000  0.30937000  1.0
  H  H7  1  0.10632000  0.88465000  0.45936000  1.0
  H  H8  1  0.34410000  0.16915000  0.62582000  1.0
  H  H9  1  0.33637000  0.94163000  0.64916000  1.0
  H  H10  1  0.55246000  0.91723000  0.90648000  1.0
  H  H11  1  0.60239000  0.14587000  0.97964000  1.0
  H  H12  1  0.30158000  0.50751000  0.87747000  1.0
  H  H13  1  0.26192000  0.26416000  0.80936000  1.0
  H  H14  1  0.39368000  0.61535000  0.95936000  1.0
  H  H15  1  0.84410000  0.66915000  0.87418000  1.0
  H  H16  1  0.83637000  0.44162000  0.85083000  1.0
  H  H17  1  0.05246000  0.41724000  0.59352000  1.0
  H  H18  1  0.10239000  0.64587000  0.52036000  1.0
  H  H19  1  0.80159000  0.00751000  0.62253000  1.0
  H  H20  1  0.76192000  0.76416000  0.69064000  1.0
  H  H21  1  0.89368000  0.11535000  0.54064000  1.0
  H  H22  1  0.65590000  0.83086000  0.37417000  1.0
  H  H23  1  0.66364000  0.05835000  0.35083000  1.0
  H  H24  1  0.44755000  0.08275000  0.09352000  1.0
  H  H25  1  0.39761000  0.85413000  0.02036000  1.0
  H  H26  1  0.69841000  0.49252000  0.12252000  1.0
  H  H27  1  0.73806000  0.73585000  0.19063000  1.0
  H  H28  1  0.60632000  0.38465000  0.04064000  1.0
  C  C1  1  0.32544000  0.38726000  0.19793000  1.0
  C  C2  1  0.15533000  0.41751000  0.16182000  1.0
  C  C3  1  0.97501000  0.38739000  0.19416000  1.0
  C  C4  1  0.00376000  0.45071000  0.40244000  1.0
  C  C5  1  0.97558000  0.32122000  0.44297000  1.0
  C  C6  1  0.04886000  0.15052000  0.43604000  1.0
  C  C7  1  0.14314000  0.12207000  0.38617000  1.0
  C  C8  1  0.16500000  0.25791000  0.34773000  1.0
  C  C9  1  0.03905000  0.00214000  0.47462000  1.0
  C  C10  1  0.17458000  0.11272000  0.69793000  1.0
  C  C11  1  0.34467000  0.08251000  0.66183000  1.0
  C  C12  1  0.52498000  0.11260000  0.69417000  1.0
  C  C13  1  0.49624000  0.04930000  0.90244000  1.0
  C  C14  1  0.52443000  0.17879000  0.94298000  1.0
  C  C15  1  0.45114000  0.34948000  0.93604000  1.0
  C  C16  1  0.35687000  0.37794000  0.88618000  1.0
  C  C17  1  0.33500000  0.24208000  0.84773000  1.0
  C  C18  1  0.46095000  0.49786000  0.97462000  1.0
  C  C19  1  0.67458000  0.61274000  0.80208000  1.0
  C  C20  1  0.84467000  0.58250000  0.83817000  1.0
  C  C21  1  0.02498000  0.61262000  0.80584000  1.0
  C  C22  1  0.99624000  0.54930000  0.59755000  1.0
  C  C23  1  0.02443000  0.67878000  0.55702000  1.0
  C  C24  1  0.95115000  0.84948000  0.56395000  1.0
  C  C25  1  0.85687000  0.87793000  0.61382000  1.0
  C  C26  1  0.83501000  0.74209000  0.65226000  1.0
  C  C27  1  0.96095000  0.99786000  0.52538000  1.0
  C  C28  1  0.82544000  0.88726000  0.30206000  1.0
  C  C29  1  0.65533000  0.91750000  0.33817000  1.0
  C  C30  1  0.47500000  0.88739000  0.30583000  1.0
  C  C31  1  0.50376000  0.95071000  0.09755000  1.0
  C  C32  1  0.47558000  0.82122000  0.05702000  1.0
  C  C33  1  0.54887000  0.65052000  0.06396000  1.0
  C  C34  1  0.64314000  0.62207000  0.11382000  1.0
  C  C35  1  0.66500000  0.75792000  0.15226000  1.0
  C  C36  1  0.53905000  0.50214000  0.02538000  1.0
  N  N1  1  0.09885000  0.42242000  0.35509000  1.0
  N  N2  1  0.40114000  0.07757000  0.85509000  1.0
  N  N3  1  0.90116000  0.57756000  0.64491000  1.0
  N  N4  1  0.59886000  0.92242000  0.14490000  1.0
  O  O1  1  0.34407000  0.47242000  0.24300000  1.0
  O  O2  1  0.43480000  0.27033000  0.18050000  1.0
  O  O3  1  0.85993000  0.26486000  0.17668000  1.0
  O  O4  1  0.95009000  0.48324000  0.23639000  1.0
  O  O5  1  0.15596000  0.02758000  0.74300000  1.0
  O  O6  1  0.06535000  0.22972000  0.68049000  1.0
  O  O7  1  0.63990000  0.23517000  0.67667000  1.0
  O  O8  1  0.55023000  0.01676000  0.73640000  1.0
  O  O9  1  0.65592000  0.52756000  0.75699000  1.0
  O  O10  1  0.56519000  0.72969000  0.81951000  1.0
  O  O11  1  0.14009000  0.73515000  0.82332000  1.0
  O  O12  1  0.04993000  0.51674000  0.76360000  1.0
  O  O13  1  0.84403000  0.97241000  0.25700000  1.0
  O  O14  1  0.93463000  0.77031000  0.31950000  1.0
  O  O15  1  0.36012000  0.76486000  0.32331000  1.0
  O  O16  1  0.44979000  0.98323000  0.26361000  1.0
