# generated using pymatgen
data_Mn3H22(C21O8)2
_symmetry_space_group_name_H-M   'P 1'
_cell_length_a   9.38129000
_cell_length_b   17.72815000
_cell_length_c   17.72818000
_cell_angle_alpha   76.42517000
_cell_angle_beta   76.08500000
_cell_angle_gamma   76.08498000
_symmetry_Int_Tables_number   1
_chemical_formula_structural   Mn3H22(C21O8)2
_chemical_formula_sum   'Mn6 H44 C84 O32'
_cell_volume   2728.51758808
_cell_formula_units_Z   2
loop_
 _symmetry_equiv_pos_site_id
 _symmetry_equiv_pos_as_xyz
  1  'x, y, z'
loop_
 _atom_site_type_symbol
 _atom_site_label
 _atom_site_symmetry_multiplicity
 _atom_site_fract_x
 _atom_site_fract_y
 _atom_site_fract_z
 _atom_site_occupancy
  Mn  Mn1  1  0.07286000  0.32585000  0.19545000  1.0
  Mn  Mn2  1  0.99983000  0.49997000  0.00007000  1.0
  Mn  Mn3  1  0.57286000  0.19545000  0.32585000  1.0
  Mn  Mn4  1  0.49987000  0.00005000  0.49997000  1.0
  Mn  Mn5  1  0.42713000  0.80456000  0.67414000  1.0
  Mn  Mn6  1  0.92713000  0.67414000  0.80456000  1.0
  H  H1  1  0.06614000  0.66693000  0.11679000  1.0
  H  H2  1  0.96252000  0.03278000  0.21865000  1.0
  H  H3  1  0.80920000  0.77118000  0.30074000  1.0
  H  H4  1  0.34173000  0.11507000  0.63755000  1.0
  H  H5  1  0.58372000  0.32079000  0.47761000  1.0
  H  H6  1  0.15825000  0.36246000  0.88493000  1.0
  H  H7  1  0.80323000  0.64935000  0.42860000  1.0
  H  H8  1  0.30920000  0.30073000  0.77119000  1.0
  H  H9  1  0.19079000  0.22881000  0.69927000  1.0
  H  H10  1  0.92850000  0.28385000  0.65729000  1.0
  H  H11  1  0.30323000  0.42860000  0.64935000  1.0
  H  H12  1  0.03746000  0.96722000  0.78135000  1.0
  H  H13  1  0.32768000  0.27343000  0.46568000  1.0
  H  H14  1  0.12436000  0.91584000  0.16293000  1.0
  H  H15  1  0.37563000  0.83707000  0.08417000  1.0
  H  H16  1  0.91627000  0.52239000  0.67922000  1.0
  H  H17  1  0.62435000  0.16293000  0.91584000  1.0
  H  H18  1  0.67231000  0.72656000  0.53432000  1.0
  H  H19  1  0.69455000  0.53404000  0.57862000  1.0
  H  H20  1  0.41627000  0.67922000  0.52239000  1.0
  H  H21  1  0.87563000  0.08416000  0.83707000  1.0
  H  H22  1  0.93385000  0.33306000  0.88321000  1.0
  H  H23  1  0.07148000  0.71615000  0.34271000  1.0
  H  H24  1  0.56614000  0.11679000  0.66693000  1.0
  H  H25  1  0.43680000  0.36057000  0.34304000  1.0
  H  H26  1  0.84174000  0.63755000  0.11507000  1.0
  H  H27  1  0.19455000  0.57862000  0.53404000  1.0
  H  H28  1  0.53745000  0.78135000  0.96723000  1.0
  H  H29  1  0.57148000  0.34271000  0.71615000  1.0
  H  H30  1  0.82768000  0.46568000  0.27344000  1.0
  H  H31  1  0.42850000  0.65729000  0.28385000  1.0
  H  H32  1  0.56319000  0.63943000  0.65697000  1.0
  H  H33  1  0.69079000  0.69927000  0.22882000  1.0
  H  H34  1  0.43385000  0.88321000  0.33307000  1.0
  H  H35  1  0.69676000  0.57140000  0.35065000  1.0
  H  H36  1  0.30544000  0.46596000  0.42138000  1.0
  H  H37  1  0.80544000  0.42138000  0.46596000  1.0
  H  H38  1  0.17231000  0.53431000  0.72657000  1.0
  H  H39  1  0.08372000  0.47761000  0.32079000  1.0
  H  H40  1  0.06319000  0.65696000  0.63943000  1.0
  H  H41  1  0.65824000  0.88493000  0.36246000  1.0
  H  H42  1  0.46252000  0.21865000  0.03278000  1.0
  H  H43  1  0.93680000  0.34303000  0.36057000  1.0
  H  H44  1  0.19676000  0.35065000  0.57140000  1.0
  C  C1  1  0.36005000  0.47445000  0.65180000  1.0
  C  C2  1  0.58047000  0.53486000  0.61132000  1.0
  C  C3  1  0.78714000  0.69502000  0.53367000  1.0
  C  C4  1  0.22006000  0.25533000  0.34347000  1.0
  C  C5  1  0.42496000  0.65993000  0.40585000  1.0
  C  C6  1  0.99251000  0.38926000  0.52500000  1.0
  C  C7  1  0.49378000  0.40648000  0.34498000  1.0
  C  C8  1  0.29909000  0.96364000  0.67721000  1.0
  C  C9  1  0.52095000  0.20566000  0.91053000  1.0
  C  C10  1  0.92867000  0.32585000  0.69303000  1.0
  C  C11  1  0.42080000  0.83579000  0.49306000  1.0
  C  C12  1  0.14078000  0.30233000  0.40629000  1.0
  C  C13  1  0.27993000  0.65653000  0.74467000  1.0
  C  C14  1  0.57503000  0.34007000  0.59415000  1.0
  C  C15  1  0.97904000  0.08947000  0.79434000  1.0
  C  C16  1  0.71285000  0.46633000  0.30498000  1.0
  C  C17  1  0.85921000  0.69766000  0.59371000  1.0
  C  C18  1  0.42238000  0.78686000  0.43423000  1.0
  C  C19  1  0.56590000  0.22663000  0.69923000  1.0
  C  C20  1  0.00748000  0.61074000  0.47501000  1.0
  C  C21  1  0.08047000  0.61131000  0.53486000  1.0
  C  C22  1  0.07132000  0.67415000  0.30697000  1.0
  C  C23  1  0.13994000  0.34820000  0.52555000  1.0
  C  C24  1  0.50748000  0.47500000  0.61074000  1.0
  C  C25  1  0.07760000  0.56577000  0.21314000  1.0
  C  C26  1  0.52391000  0.77152000  0.16272000  1.0
  C  C27  1  0.15507000  0.17230000  0.71555000  1.0
  C  C28  1  0.43409000  0.77336000  0.30077000  1.0
  C  C29  1  0.35921000  0.59371000  0.69766000  1.0
  C  C30  1  0.57760000  0.21314000  0.56577000  1.0
  C  C31  1  0.06938000  0.64607000  0.17914000  1.0
  C  C32  1  0.06590000  0.69923000  0.22664000  1.0
  C  C33  1  0.70089000  0.03637000  0.32278000  1.0
  C  C34  1  0.49251000  0.52499000  0.38926000  1.0
  C  C35  1  0.84491000  0.82770000  0.28446000  1.0
  C  C36  1  0.47903000  0.79434000  0.08947000  1.0
  C  C37  1  0.80048000  0.96606000  0.29424000  1.0
  C  C38  1  0.93409000  0.30077000  0.77337000  1.0
  C  C39  1  0.99378000  0.34498000  0.40648000  1.0
  C  C40  1  0.50621000  0.59352000  0.65502000  1.0
  C  C41  1  0.02095000  0.91053000  0.20566000  1.0
  C  C42  1  0.02391000  0.16271000  0.77152000  1.0
  C  C43  1  0.64078000  0.40629000  0.30234000  1.0
  C  C44  1  0.41952000  0.46514000  0.38869000  1.0
  C  C45  1  0.79908000  0.67721000  0.96364000  1.0
  C  C46  1  0.57921000  0.29403000  0.53960000  1.0
  C  C47  1  0.43060000  0.82086000  0.35393000  1.0
  C  C48  1  0.24027000  0.10834000  0.68154000  1.0
  C  C49  1  0.42078000  0.70597000  0.46040000  1.0
  C  C50  1  0.92079000  0.49306000  0.83580000  1.0
  C  C51  1  0.72006000  0.34347000  0.25533000  1.0
  C  C52  1  0.69949000  0.70576000  0.03395000  1.0
  C  C53  1  0.74027000  0.68154000  0.10834000  1.0
  C  C54  1  0.92238000  0.43423000  0.78686000  1.0
  C  C55  1  0.86005000  0.65180000  0.47446000  1.0
  C  C56  1  0.97607000  0.83728000  0.22848000  1.0
  C  C57  1  0.07917000  0.50693000  0.16422000  1.0
  C  C58  1  0.77993000  0.74467000  0.65653000  1.0
  C  C59  1  0.91952000  0.38868000  0.46514000  1.0
  C  C60  1  0.65507000  0.71554000  0.17231000  1.0
  C  C61  1  0.57917000  0.16421000  0.50694000  1.0
  C  C62  1  0.19949000  0.03395000  0.70575000  1.0
  C  C63  1  0.00621000  0.65502000  0.59352000  1.0
  C  C64  1  0.42867000  0.69303000  0.32585000  1.0
  C  C65  1  0.07503000  0.59415000  0.34007000  1.0
  C  C66  1  0.75970000  0.89166000  0.31846000  1.0
  C  C67  1  0.34492000  0.28446000  0.82770000  1.0
  C  C68  1  0.92496000  0.40585000  0.65993000  1.0
  C  C69  1  0.06833000  0.02509000  0.76272000  1.0
  C  C70  1  0.21285000  0.30497000  0.46634000  1.0
  C  C71  1  0.47607000  0.22848000  0.83729000  1.0
  C  C72  1  0.93165000  0.97491000  0.23728000  1.0
  C  C73  1  0.92078000  0.46039000  0.70597000  1.0
  C  C74  1  0.25971000  0.31846000  0.89166000  1.0
  C  C75  1  0.07921000  0.53960000  0.29403000  1.0
  C  C76  1  0.57132000  0.30697000  0.67415000  1.0
  C  C77  1  0.20089000  0.32278000  0.03637000  1.0
  C  C78  1  0.63994000  0.52554000  0.34820000  1.0
  C  C79  1  0.28714000  0.53366000  0.69503000  1.0
  C  C80  1  0.56832000  0.76273000  0.02509000  1.0
  C  C81  1  0.93061000  0.35393000  0.82086000  1.0
  C  C82  1  0.43166000  0.23727000  0.97491000  1.0
  C  C83  1  0.30048000  0.29424000  0.96606000  1.0
  C  C84  1  0.56938000  0.17914000  0.64607000  1.0
  O  O1  1  0.60730000  0.19709000  0.43434000  1.0
  O  O2  1  0.89991000  0.61392000  0.97074000  1.0
  O  O3  1  0.60004000  0.02926000  0.38605000  1.0
  O  O4  1  0.08442000  0.56456000  0.41906000  1.0
  O  O5  1  0.55024000  0.09497000  0.53390000  1.0
  O  O6  1  0.14894000  0.65094000  0.78504000  1.0
  O  O7  1  0.21539000  0.28042000  0.10433000  1.0
  O  O8  1  0.44974000  0.90503000  0.46610000  1.0
  O  O9  1  0.56484000  0.18973000  0.77762000  1.0
  O  O10  1  0.15611000  0.25496000  0.28779000  1.0
  O  O11  1  0.58442000  0.41906000  0.56456000  1.0
  O  O12  1  0.89267000  0.56565000  0.80291000  1.0
  O  O13  1  0.85104000  0.34906000  0.21496000  1.0
  O  O14  1  0.93514000  0.22238000  0.81027000  1.0
  O  O15  1  0.71539000  0.10433000  0.28042000  1.0
  O  O16  1  0.43514000  0.81027000  0.22238000  1.0
  O  O17  1  0.65611000  0.28779000  0.25496000  1.0
  O  O18  1  0.28461000  0.89568000  0.71958000  1.0
  O  O19  1  0.91557000  0.43543000  0.58094000  1.0
  O  O20  1  0.78461000  0.71958000  0.89568000  1.0
  O  O21  1  0.06484000  0.77762000  0.18973000  1.0
  O  O22  1  0.34388000  0.71221000  0.74503000  1.0
  O  O23  1  0.10731000  0.43434000  0.19709000  1.0
  O  O24  1  0.64894000  0.78503000  0.65094000  1.0
  O  O25  1  0.10004000  0.38605000  0.02926000  1.0
  O  O26  1  0.35105000  0.21496000  0.34907000  1.0
  O  O27  1  0.94973000  0.46610000  0.90504000  1.0
  O  O28  1  0.41557000  0.58094000  0.43544000  1.0
  O  O29  1  0.39992000  0.97073000  0.61393000  1.0
  O  O30  1  0.05022000  0.53390000  0.09498000  1.0
  O  O31  1  0.39266000  0.80291000  0.56566000  1.0
  O  O32  1  0.84388000  0.74503000  0.71221000  1.0
