# generated using pymatgen
data_Zn3H32C52(NO6)2
_symmetry_space_group_name_H-M   'P 1'
_cell_length_a   14.14942502
_cell_length_b   18.09089777
_cell_length_c   26.05600907
_cell_angle_alpha   90.00001079
_cell_angle_beta   89.99997802
_cell_angle_gamma   89.99998086
_symmetry_Int_Tables_number   1
_chemical_formula_structural   Zn3H32C52(NO6)2
_chemical_formula_sum   'Zn12 H128 C208 N8 O48'
_cell_volume   6669.70780665
_cell_formula_units_Z   4
loop_
 _symmetry_equiv_pos_site_id
 _symmetry_equiv_pos_as_xyz
  1  'x, y, z'
loop_
 _atom_site_type_symbol
 _atom_site_label
 _atom_site_symmetry_multiplicity
 _atom_site_fract_x
 _atom_site_fract_y
 _atom_site_fract_z
 _atom_site_occupancy
  Zn  Zn1  1  0.47363310  0.94112820  0.35231360  1.0
  Zn  Zn2  1  0.52636651  0.55887240  0.35231333  1.0
  Zn  Zn3  1  0.97363287  0.55887202  0.85231378  1.0
  Zn  Zn4  1  0.02636677  0.94112773  0.85231359  1.0
  Zn  Zn5  1  0.50000006  0.75000011  0.35373629  1.0
  Zn  Zn6  1  0.00000034  0.74999997  0.85373621  1.0
  Zn  Zn7  1  0.02636670  0.44112779  0.14768648  1.0
  Zn  Zn8  1  0.97363313  0.05887180  0.14768655  1.0
  Zn  Zn9  1  0.52636668  0.05887224  0.64768663  1.0
  Zn  Zn10  1  0.47363342  0.44112809  0.64768655  1.0
  Zn  Zn11  1  0.99999986  0.24999988  0.14626376  1.0
  Zn  Zn12  1  0.50000023  0.24999997  0.64626385  1.0
  H  H1  1  0.53887238  0.05822215  0.42513589  1.0
  H  H2  1  0.55100695  0.19672827  0.42791253  1.0
  H  H3  1  0.43975326  0.19984108  0.27329771  1.0
  H  H4  1  0.43043564  0.06166047  0.27779833  1.0
  H  H5  1  0.38816451  0.51413743  0.49787806  1.0
  H  H6  1  0.29766334  0.51622994  0.57960738  1.0
  H  H7  1  0.25005951  0.74992387  0.56044735  1.0
  H  H8  1  0.34288544  0.74701427  0.47919497  1.0
  H  H9  1  0.15470636  0.52583720  0.61655224  1.0
  H  H10  1  0.26098443  0.74556266  0.64501019  1.0
  H  H11  1  0.16039041  0.93086465  0.31325340  1.0
  H  H12  1  0.99979204  0.87392602  0.30962049  1.0
  H  H13  1  0.11828100  0.66747476  0.36138917  1.0
  H  H14  1  0.27789847  0.72540580  0.36500108  1.0
  H  H15  1  0.07123653  0.52913299  0.70069675  1.0
  H  H16  1  0.17531456  0.74793369  0.72835309  1.0
  H  H17  1  0.46112767  0.44177809  0.42513603  1.0
  H  H18  1  0.44899271  0.30327211  0.42791253  1.0
  H  H19  1  0.56024651  0.30015936  0.27329782  1.0
  H  H20  1  0.56956436  0.43833997  0.27779840  1.0
  H  H21  1  0.61183591  0.98586286  0.49787793  1.0
  H  H22  1  0.70233657  0.98376994  0.57960750  1.0
  H  H23  1  0.74994054  0.75007657  0.56044747  1.0
  H  H24  1  0.65711507  0.75298577  0.47919499  1.0
  H  H25  1  0.84529324  0.97416280  0.61655251  1.0
  H  H26  1  0.73901529  0.75443743  0.64500988  1.0
  H  H27  1  0.83960970  0.56913560  0.31325336  1.0
  H  H28  1  0.00020804  0.62607426  0.30962044  1.0
  H  H29  1  0.88171897  0.83252541  0.36138920  1.0
  H  H30  1  0.72210155  0.77459447  0.36500113  1.0
  H  H31  1  0.92876327  0.97086676  0.70069688  1.0
  H  H32  1  0.82468541  0.75206549  0.72835281  1.0
  H  H33  1  0.03887216  0.44177801  0.92513594  1.0
  H  H34  1  0.05100698  0.30327192  0.92791256  1.0
  H  H35  1  0.93975322  0.30015920  0.77329777  1.0
  H  H36  1  0.93043541  0.43833982  0.77779838  1.0
  H  H37  1  0.88816427  0.98586259  0.99787789  1.0
  H  H38  1  0.79766375  0.98377012  0.07960746  1.0
  H  H39  1  0.75005950  0.75007638  0.06044733  1.0
  H  H40  1  0.84288516  0.75298592  0.97919481  1.0
  H  H41  1  0.65470636  0.97416293  0.11655244  1.0
  H  H42  1  0.76098452  0.75443718  0.14500991  1.0
  H  H43  1  0.66039058  0.56913548  0.81325330  1.0
  H  H44  1  0.49979225  0.62607418  0.80962034  1.0
  H  H45  1  0.61828093  0.83252530  0.86138927  1.0
  H  H46  1  0.77789843  0.77459423  0.86500119  1.0
  H  H47  1  0.57123650  0.97086688  0.20069682  1.0
  H  H48  1  0.67531446  0.75206574  0.22835287  1.0
  H  H49  1  0.96112758  0.05822198  0.92513590  1.0
  H  H50  1  0.94899278  0.19672804  0.92791255  1.0
  H  H51  1  0.06024639  0.19984087  0.77329773  1.0
  H  H52  1  0.06956418  0.06166027  0.77779826  1.0
  H  H53  1  0.11183605  0.51413731  0.99787794  1.0
  H  H54  1  0.20233654  0.51622992  0.07960752  1.0
  H  H55  1  0.24994065  0.74992360  0.06044741  1.0
  H  H56  1  0.15711503  0.74701406  0.97919488  1.0
  H  H57  1  0.34529338  0.52583705  0.11655226  1.0
  H  H58  1  0.23901568  0.74556259  0.14501005  1.0
  H  H59  1  0.33960946  0.93086458  0.81325337  1.0
  H  H60  1  0.50020782  0.87392586  0.80962037  1.0
  H  H61  1  0.38171902  0.66747471  0.86138930  1.0
  H  H62  1  0.22210154  0.72540579  0.86500125  1.0
  H  H63  1  0.42876344  0.52913273  0.20069671  1.0
  H  H64  1  0.32468561  0.74793390  0.22835285  1.0
  H  H65  1  0.96112759  0.55822179  0.07486413  1.0
  H  H66  1  0.94899277  0.69672779  0.07208781  1.0
  H  H67  1  0.06024728  0.69984057  0.22670246  1.0
  H  H68  1  0.06956514  0.56165989  0.22220154  1.0
  H  H69  1  0.11183602  0.01413729  0.00212219  1.0
  H  H70  1  0.20233633  0.01623001  0.92039255  1.0
  H  H71  1  0.24994038  0.24992359  0.93955264  1.0
  H  H72  1  0.15711483  0.24701409  0.02080524  1.0
  H  H73  1  0.34529338  0.02583720  0.88344765  1.0
  H  H74  1  0.23901542  0.24556274  0.85499012  1.0
  H  H75  1  0.33960933  0.43086450  0.18674658  1.0
  H  H76  1  0.50020786  0.37392581  0.19037951  1.0
  H  H77  1  0.38171917  0.16747463  0.13861077  1.0
  H  H78  1  0.22210159  0.22540553  0.13499888  1.0
  H  H79  1  0.42876328  0.02913313  0.79930322  1.0
  H  H80  1  0.32468536  0.24793438  0.77164719  1.0
  H  H81  1  0.03887205  0.94177766  0.07486421  1.0
  H  H82  1  0.05100692  0.80327154  0.07208768  1.0
  H  H83  1  0.93975302  0.80015884  0.22670253  1.0
  H  H84  1  0.93043514  0.93833947  0.22220180  1.0
  H  H85  1  0.88816397  0.48586274  0.00212198  1.0
  H  H86  1  0.79766324  0.48377023  0.92039259  1.0
  H  H87  1  0.75005919  0.25007638  0.93955264  1.0
  H  H88  1  0.84288505  0.25298590  0.02080506  1.0
  H  H89  1  0.65470636  0.47416294  0.88344747  1.0
  H  H90  1  0.76098427  0.25443727  0.85498998  1.0
  H  H91  1  0.66039042  0.06913552  0.18674659  1.0
  H  H92  1  0.49979197  0.12607424  0.19037942  1.0
  H  H93  1  0.61828077  0.33252534  0.13861078  1.0
  H  H94  1  0.77789832  0.27459443  0.13499891  1.0
  H  H95  1  0.57123662  0.47086692  0.79930308  1.0
  H  H96  1  0.67531439  0.25206580  0.77164709  1.0
  H  H97  1  0.46112773  0.94177795  0.57486394  1.0
  H  H98  1  0.44899294  0.80327190  0.57208753  1.0
  H  H99  1  0.56024647  0.80015916  0.72670216  1.0
  H  H100  1  0.56956432  0.93833979  0.72220164  1.0
  H  H101  1  0.61183585  0.48586262  0.50212192  1.0
  H  H102  1  0.70233668  0.48377009  0.42039248  1.0
  H  H103  1  0.74994087  0.25007622  0.43955258  1.0
  H  H104  1  0.65711501  0.25298587  0.52080503  1.0
  H  H105  1  0.84529360  0.47416290  0.38344752  1.0
  H  H106  1  0.73901543  0.25443734  0.35498985  1.0
  H  H107  1  0.83960956  0.06913549  0.68674658  1.0
  H  H108  1  0.00020793  0.12607413  0.69037955  1.0
  H  H109  1  0.88171903  0.33252534  0.63861079  1.0
  H  H110  1  0.72210162  0.27459438  0.63499880  1.0
  H  H111  1  0.92876328  0.47086683  0.29930298  1.0
  H  H112  1  0.82468535  0.25206593  0.27164689  1.0
  H  H113  1  0.53887247  0.55822212  0.57486394  1.0
  H  H114  1  0.55100706  0.69672822  0.57208753  1.0
  H  H115  1  0.43975337  0.69984090  0.72670221  1.0
  H  H116  1  0.43043568  0.56166028  0.72220167  1.0
  H  H117  1  0.38816422  0.01413743  0.50212197  1.0
  H  H118  1  0.29766336  0.01623000  0.42039261  1.0
  H  H119  1  0.25005928  0.24992391  0.43955284  1.0
  H  H120  1  0.34288527  0.24701420  0.52080517  1.0
  H  H121  1  0.15470638  0.02583712  0.38344767  1.0
  H  H122  1  0.26098440  0.24556297  0.35499004  1.0
  H  H123  1  0.16039041  0.43086453  0.68674665  1.0
  H  H124  1  0.99979204  0.37392586  0.69037956  1.0
  H  H125  1  0.11828098  0.16747465  0.63861079  1.0
  H  H126  1  0.27789847  0.22540558  0.63499886  1.0
  H  H127  1  0.07123678  0.02913330  0.29930322  1.0
  H  H128  1  0.17531457  0.24793417  0.27164705  1.0
  C  C1  1  0.51791260  0.09235686  0.39265787  1.0
  C  C2  1  0.52421865  0.16886302  0.39380358  1.0
  C  C3  1  0.49705958  0.20937307  0.35038406  1.0
  C  C4  1  0.46352008  0.17056575  0.30751297  1.0
  C  C5  1  0.45786870  0.09400665  0.30978606  1.0
  C  C6  1  0.37133727  0.63075636  0.48361935  1.0
  C  C7  1  0.35723408  0.56559102  0.51169258  1.0
  C  C8  1  0.30566504  0.56674549  0.55719835  1.0
  C  C9  1  0.26714427  0.63319768  0.57596764  1.0
  C  C10  1  0.28147233  0.69823837  0.54737760  1.0
  C  C11  1  0.33263398  0.69707525  0.50192575  1.0
  C  C12  1  0.21449885  0.63526307  0.62474755  1.0
  C  C13  1  0.16020268  0.57452683  0.64098107  1.0
  C  C14  1  0.21855322  0.69808797  0.65656081  1.0
  C  C15  1  0.32053366  0.86931075  0.34555989  1.0
  C  C16  1  0.22781352  0.83199534  0.33989898  1.0
  C  C17  1  0.14939431  0.87332145  0.32384193  1.0
  C  C18  1  0.06039222  0.84123208  0.32193684  1.0
  C  C19  1  0.04754937  0.76664871  0.33551695  1.0
  C  C20  1  0.12730649  0.72501599  0.35001211  1.0
  C  C21  1  0.21658157  0.75711222  0.35246597  1.0
  C  C22  1  0.07231898  0.63923646  0.77118087  1.0
  C  C23  1  0.11947239  0.63819082  0.71980698  1.0
  C  C24  1  0.11344163  0.57602781  0.68787830  1.0
  C  C25  1  0.17159843  0.69969264  0.70337779  1.0
  C  C26  1  0.42480388  0.63196065  0.43404380  1.0
  C  C27  1  0.48208732  0.40764341  0.39265789  1.0
  C  C28  1  0.47578108  0.33113740  0.39380364  1.0
  C  C29  1  0.50294014  0.29062732  0.35038406  1.0
  C  C30  1  0.53647959  0.32943477  0.30751310  1.0
  C  C31  1  0.54213130  0.40599379  0.30978611  1.0
  C  C32  1  0.62866326  0.86924372  0.48361913  1.0
  C  C33  1  0.64276627  0.93440922  0.51169242  1.0
  C  C34  1  0.69433515  0.93325466  0.55719822  1.0
  C  C35  1  0.73285581  0.86680261  0.57596760  1.0
  C  C36  1  0.71852788  0.80176192  0.54737756  1.0
  C  C37  1  0.66736639  0.80292492  0.50192564  1.0
  C  C38  1  0.78550105  0.86473697  0.62474753  1.0
  C  C39  1  0.83979719  0.92547313  0.64098120  1.0
  C  C40  1  0.78144666  0.80191196  0.65656073  1.0
  C  C41  1  0.67946643  0.63068947  0.34555979  1.0
  C  C42  1  0.77218653  0.66800495  0.33989888  1.0
  C  C43  1  0.85060571  0.62667881  0.32384186  1.0
  C  C44  1  0.93960781  0.65876812  0.32193685  1.0
  C  C45  1  0.95245066  0.73335150  0.33551700  1.0
  C  C46  1  0.87269360  0.77498420  0.35001215  1.0
  C  C47  1  0.78341846  0.74288807  0.35246596  1.0
  C  C48  1  0.92768115  0.86076277  0.77118055  1.0
  C  C49  1  0.88052769  0.86180877  0.71980681  1.0
  C  C50  1  0.88655810  0.92397201  0.68787826  1.0
  C  C51  1  0.82840145  0.80030695  0.70337761  1.0
  C  C52  1  0.57519646  0.86803948  0.43404369  1.0
  C  C53  1  0.01791250  0.40764323  0.89265785  1.0
  C  C54  1  0.02421869  0.33113719  0.89380363  1.0
  C  C55  1  0.99705957  0.29062714  0.85038404  1.0
  C  C56  1  0.96352011  0.32943457  0.80751306  1.0
  C  C57  1  0.95786848  0.40599359  0.80978608  1.0
  C  C58  1  0.87133674  0.86924373  0.98361912  1.0
  C  C59  1  0.85723374  0.93440917  0.01169249  1.0
  C  C60  1  0.80566488  0.93325460  0.05719833  1.0
  C  C61  1  0.76714423  0.86680250  0.07596761  1.0
  C  C62  1  0.78147212  0.80176180  0.04737748  1.0
  C  C63  1  0.83263362  0.80292498  0.00192558  1.0
  C  C64  1  0.71449893  0.86473694  0.12474753  1.0
  C  C65  1  0.66020272  0.92547317  0.14098108  1.0
  C  C66  1  0.71855331  0.80191189  0.15656072  1.0
  C  C67  1  0.82053334  0.63068915  0.84555984  1.0
  C  C68  1  0.72781336  0.66800487  0.83989890  1.0
  C  C69  1  0.64939428  0.62667870  0.82384182  1.0
  C  C70  1  0.56039227  0.65876808  0.82193675  1.0
  C  C71  1  0.54754936  0.73335140  0.83551701  1.0
  C  C72  1  0.62730642  0.77498415  0.85001222  1.0
  C  C73  1  0.71658143  0.74288798  0.85246604  1.0
  C  C74  1  0.57231912  0.86076300  0.27118068  1.0
  C  C75  1  0.61947230  0.86180902  0.21980682  1.0
  C  C76  1  0.61344172  0.92397214  0.18787820  1.0
  C  C77  1  0.67159836  0.80030710  0.20337761  1.0
  C  C78  1  0.92480329  0.86803952  0.93404358  1.0
  C  C79  1  0.98208722  0.09235668  0.89265783  1.0
  C  C80  1  0.97578108  0.16886278  0.89380358  1.0
  C  C81  1  0.00294014  0.20937289  0.85038405  1.0
  C  C82  1  0.03647958  0.17056545  0.80751299  1.0
  C  C83  1  0.04213115  0.09400642  0.80978603  1.0
  C  C84  1  0.12866343  0.63075614  0.98361919  1.0
  C  C85  1  0.14276653  0.56559085  0.01169252  1.0
  C  C86  1  0.19433528  0.56674531  0.05719834  1.0
  C  C87  1  0.23285579  0.63319756  0.07596761  1.0
  C  C88  1  0.21852792  0.69823817  0.04737755  1.0
  C  C89  1  0.16736652  0.69707509  0.00192562  1.0
  C  C90  1  0.28550113  0.63526292  0.12474754  1.0
  C  C91  1  0.33979734  0.57452670  0.14098110  1.0
  C  C92  1  0.28144683  0.69808789  0.15656081  1.0
  C  C93  1  0.17946668  0.86931094  0.84555984  1.0
  C  C94  1  0.27218667  0.83199520  0.83989896  1.0
  C  C95  1  0.35060576  0.87332137  0.82384188  1.0
  C  C96  1  0.43960780  0.84123195  0.82193679  1.0
  C  C97  1  0.45245061  0.76664864  0.83551703  1.0
  C  C98  1  0.37269355  0.72501587  0.85001226  1.0
  C  C99  1  0.28341853  0.75711208  0.85246610  1.0
  C  C100  1  0.42768102  0.63923666  0.27118065  1.0
  C  C101  1  0.38052771  0.63819081  0.21980685  1.0
  C  C102  1  0.38655830  0.57602766  0.18787826  1.0
  C  C103  1  0.32840167  0.69969271  0.20337767  1.0
  C  C104  1  0.07519670  0.63196074  0.93404367  1.0
  C  C105  1  0.98208751  0.59235640  0.10734236  1.0
  C  C106  1  0.97578114  0.66886277  0.10619658  1.0
  C  C107  1  0.00294018  0.70937258  0.14961609  1.0
  C  C108  1  0.03648013  0.67056504  0.19248708  1.0
  C  C109  1  0.04213185  0.59400594  0.19021405  1.0
  C  C110  1  0.12866326  0.13075615  0.01638100  1.0
  C  C111  1  0.14276640  0.06559085  0.98830763  1.0
  C  C112  1  0.19433509  0.06674540  0.94280180  1.0
  C  C113  1  0.23285566  0.13319752  0.92403246  1.0
  C  C114  1  0.21852772  0.19823816  0.95262254  1.0
  C  C115  1  0.16736632  0.19707507  0.99807452  1.0
  C  C116  1  0.28550097  0.13526308  0.87525252  1.0
  C  C117  1  0.33979727  0.07452688  0.85901885  1.0
  C  C118  1  0.28144671  0.19808810  0.84343926  1.0
  C  C119  1  0.17946671  0.36931082  0.15444008  1.0
  C  C120  1  0.27218666  0.33199505  0.16010108  1.0
  C  C121  1  0.35060560  0.37332129  0.17615811  1.0
  C  C122  1  0.43960763  0.34123195  0.17806311  1.0
  C  C123  1  0.45245063  0.26664862  0.16448294  1.0
  C  C124  1  0.37269358  0.22501579  0.14998780  1.0
  C  C125  1  0.28341845  0.25711193  0.14753402  1.0
  C  C126  1  0.42768093  0.13923681  0.72881924  1.0
  C  C127  1  0.38052751  0.13819117  0.78019308  1.0
  C  C128  1  0.38655820  0.07602791  0.81212168  1.0
  C  C129  1  0.32840146  0.19969292  0.79662235  1.0
  C  C130  1  0.07519659  0.13196042  0.06595649  1.0
  C  C131  1  0.01791222  0.90764299  0.10734233  1.0
  C  C132  1  0.02421831  0.83113668  0.10619661  1.0
  C  C133  1  0.99705951  0.79062691  0.14961620  1.0
  C  C134  1  0.96351985  0.82943408  0.19248727  1.0
  C  C135  1  0.95786830  0.90599334  0.19021414  1.0
  C  C136  1  0.87133681  0.36924395  0.01638075  1.0
  C  C137  1  0.85723350  0.43440922  0.98830740  1.0
  C  C138  1  0.80566459  0.43325468  0.94280167  1.0
  C  C139  1  0.76714405  0.36680249  0.92403238  1.0
  C  C140  1  0.78147203  0.30176182  0.95262247  1.0
  C  C141  1  0.83263361  0.30292498  0.99807436  1.0
  C  C142  1  0.71449873  0.36473701  0.87525245  1.0
  C  C143  1  0.66020256  0.42547318  0.85901877  1.0
  C  C144  1  0.71855310  0.30191197  0.84343919  1.0
  C  C145  1  0.82053341  0.13068910  0.15444008  1.0
  C  C146  1  0.72781337  0.16800485  0.16010106  1.0
  C  C147  1  0.64939431  0.12667873  0.17615810  1.0
  C  C148  1  0.56039227  0.15876811  0.17806312  1.0
  C  C149  1  0.54754931  0.23335142  0.16448298  1.0
  C  C150  1  0.62730640  0.27498419  0.14998783  1.0
  C  C151  1  0.71658152  0.24288798  0.14753403  1.0
  C  C152  1  0.57231905  0.36076312  0.72881915  1.0
  C  C153  1  0.61947241  0.36180895  0.78019300  1.0
  C  C154  1  0.61344171  0.42397217  0.81212158  1.0
  C  C155  1  0.67159835  0.30030716  0.79662229  1.0
  C  C156  1  0.92480375  0.36803978  0.06595612  1.0
  C  C157  1  0.48208738  0.90764336  0.60734210  1.0
  C  C158  1  0.47578120  0.83113725  0.60619644  1.0
  C  C159  1  0.50294021  0.79062717  0.64961594  1.0
  C  C160  1  0.53647964  0.82943464  0.69248693  1.0
  C  C161  1  0.54213127  0.90599370  0.69021386  1.0
  C  C162  1  0.62866313  0.36924386  0.51638081  1.0
  C  C163  1  0.64276639  0.43440905  0.48830745  1.0
  C  C164  1  0.69433529  0.43325466  0.44280172  1.0
  C  C165  1  0.73285593  0.36680242  0.42403232  1.0
  C  C166  1  0.71852811  0.30176174  0.45262240  1.0
  C  C167  1  0.66736648  0.30292490  0.49807435  1.0
  C  C168  1  0.78550123  0.36473700  0.37525234  1.0
  C  C169  1  0.83979732  0.42547323  0.35901874  1.0
  C  C170  1  0.78144667  0.30191200  0.34343917  1.0
  C  C171  1  0.67946677  0.13068905  0.65444007  1.0
  C  C172  1  0.77218676  0.16800483  0.66010103  1.0
  C  C173  1  0.85060577  0.12667870  0.67615811  1.0
  C  C174  1  0.93960782  0.15876806  0.67806317  1.0
  C  C175  1  0.95245062  0.23335141  0.66448297  1.0
  C  C176  1  0.87269355  0.27498416  0.64998780  1.0
  C  C177  1  0.78341849  0.24288798  0.64753397  1.0
  C  C178  1  0.92768099  0.36076322  0.22881909  1.0
  C  C179  1  0.88052737  0.36180895  0.28019288  1.0
  C  C180  1  0.88655822  0.42397217  0.31212146  1.0
  C  C181  1  0.82840138  0.30030727  0.29662216  1.0
  C  C182  1  0.57519629  0.36803937  0.56595627  1.0
  C  C183  1  0.51791267  0.59235673  0.60734210  1.0
  C  C184  1  0.52421877  0.66886284  0.60619641  1.0
  C  C185  1  0.49705969  0.70937291  0.64961596  1.0
  C  C186  1  0.46352022  0.67056549  0.69248696  1.0
  C  C187  1  0.45786875  0.59400641  0.69021392  1.0
  C  C188  1  0.37133693  0.13075630  0.51638078  1.0
  C  C189  1  0.35723370  0.06559093  0.48830746  1.0
  C  C190  1  0.30566460  0.06674557  0.44280179  1.0
  C  C191  1  0.26714404  0.13319769  0.42403246  1.0
  C  C192  1  0.28147190  0.19823842  0.45262257  1.0
  C  C193  1  0.33263369  0.19707513  0.49807442  1.0
  C  C194  1  0.21449878  0.13526323  0.37525255  1.0
  C  C195  1  0.16020270  0.07452691  0.35901898  1.0
  C  C196  1  0.21855320  0.19808818  0.34343923  1.0
  C  C197  1  0.32053387  0.36931055  0.65444004  1.0
  C  C198  1  0.22781353  0.33199519  0.66010101  1.0
  C  C199  1  0.14939438  0.37332131  0.67615808  1.0
  C  C200  1  0.06039227  0.34123198  0.67806316  1.0
  C  C201  1  0.04754933  0.26664861  0.66448298  1.0
  C  C202  1  0.12730646  0.22501586  0.64998783  1.0
  C  C203  1  0.21658157  0.25711201  0.64753398  1.0
  C  C204  1  0.07231892  0.13923674  0.22881933  1.0
  C  C205  1  0.11947246  0.13819105  0.28019314  1.0
  C  C206  1  0.11344187  0.07602796  0.31212179  1.0
  C  C207  1  0.17159846  0.19969288  0.29662231  1.0
  C  C208  1  0.42480395  0.13196032  0.56595616  1.0
  N  N1  1  0.48507043  0.05558126  0.35144305  1.0
  N  N2  1  0.51492965  0.44441927  0.35144320  1.0
  N  N3  1  0.98507019  0.44441902  0.85144316  1.0
  N  N4  1  0.01492951  0.05558097  0.85144304  1.0
  N  N5  1  0.01493002  0.55558074  0.14855708  1.0
  N  N6  1  0.98506989  0.94441872  0.14855711  1.0
  N  N7  1  0.51492968  0.94441917  0.64855684  1.0
  N  N8  1  0.48507049  0.55558097  0.64855684  1.0
  O  O1  1  0.32700126  0.93905102  0.33782933  1.0
  O  O2  1  0.03358627  0.57831408  0.78556823  1.0
  O  O3  1  0.46267784  0.57061881  0.41950232  1.0
  O  O4  1  0.42702927  0.69264622  0.41032720  1.0
  O  O5  1  0.39345604  0.83311320  0.36003046  1.0
  O  O6  1  0.07573862  0.69879590  0.79636994  1.0
  O  O7  1  0.67299907  0.56094920  0.33782918  1.0
  O  O8  1  0.96641338  0.92168548  0.78556827  1.0
  O  O9  1  0.53732357  0.92938154  0.41950186  1.0
  O  O10  1  0.57297029  0.80735364  0.41032704  1.0
  O  O11  1  0.60654391  0.66688689  0.36003033  1.0
  O  O12  1  0.92426228  0.80120286  0.79636896  1.0
  O  O13  1  0.82700062  0.56094893  0.83782951  1.0
  O  O14  1  0.53358653  0.92168562  0.28556840  1.0
  O  O15  1  0.96267619  0.92938153  0.91950179  1.0
  O  O16  1  0.92702946  0.80735365  0.91032688  1.0
  O  O17  1  0.89345622  0.66688637  0.86003025  1.0
  O  O18  1  0.57573849  0.80120319  0.29636912  1.0
  O  O19  1  0.17299926  0.93905114  0.83782937  1.0
  O  O20  1  0.46641327  0.57831419  0.28556831  1.0
  O  O21  1  0.03732389  0.57061844  0.91950179  1.0
  O  O22  1  0.07297027  0.69264635  0.91032727  1.0
  O  O23  1  0.10654382  0.83311374  0.86003035  1.0
  O  O24  1  0.42426191  0.69879653  0.29636930  1.0
  O  O25  1  0.17299954  0.43905111  0.16217054  1.0
  O  O26  1  0.46641312  0.07831443  0.71443172  1.0
  O  O27  1  0.03732385  0.07061786  0.08049844  1.0
  O  O28  1  0.07297006  0.19264579  0.08967320  1.0
  O  O29  1  0.10654393  0.33311364  0.13996976  1.0
  O  O30  1  0.42426181  0.19879665  0.70363039  1.0
  O  O31  1  0.82700079  0.06094887  0.16217070  1.0
  O  O32  1  0.53358682  0.42168571  0.71443160  1.0
  O  O33  1  0.96267784  0.42938192  0.08049761  1.0
  O  O34  1  0.92702944  0.30735453  0.08967306  1.0
  O  O35  1  0.89345616  0.16688624  0.13996968  1.0
  O  O36  1  0.57573828  0.30120352  0.70363037  1.0
  O  O37  1  0.67299943  0.06094885  0.66217062  1.0
  O  O38  1  0.96641301  0.42168563  0.21443158  1.0
  O  O39  1  0.53732209  0.42938183  0.58049771  1.0
  O  O40  1  0.57297128  0.30735451  0.58967318  1.0
  O  O41  1  0.60654399  0.16688632  0.63996968  1.0
  O  O42  1  0.92426210  0.30120339  0.20363024  1.0
  O  O43  1  0.32700108  0.43905083  0.66217071  1.0
  O  O44  1  0.03358661  0.07831426  0.21443189  1.0
  O  O45  1  0.46267779  0.07061831  0.58049766  1.0
  O  O46  1  0.42702965  0.19264580  0.58967308  1.0
  O  O47  1  0.39345607  0.33311308  0.63996957  1.0
  O  O48  1  0.07573808  0.19879636  0.20363044  1.0
