# generated using pymatgen
data_CdH8C12(NO2)2
_symmetry_space_group_name_H-M   'P 1'
_cell_length_a   4.44426000
_cell_length_b   12.60303000
_cell_length_c   26.15938000
_cell_angle_alpha   89.93886000
_cell_angle_beta   89.93664000
_cell_angle_gamma   89.99136000
_symmetry_Int_Tables_number   1
_chemical_formula_structural   CdH8C12(NO2)2
_chemical_formula_sum   'Cd4 H32 C48 N8 O16'
_cell_volume   1465.21500412
_cell_formula_units_Z   4
loop_
 _symmetry_equiv_pos_site_id
 _symmetry_equiv_pos_as_xyz
  1  'x, y, z'
loop_
 _atom_site_type_symbol
 _atom_site_label
 _atom_site_symmetry_multiplicity
 _atom_site_fract_x
 _atom_site_fract_y
 _atom_site_fract_z
 _atom_site_occupancy
  Cd  Cd1  1  0.29508000  0.86107000  0.62687000  1.0
  Cd  Cd2  1  0.71103000  0.36130000  0.37313000  1.0
  Cd  Cd3  1  0.20209000  0.86036000  0.12600000  1.0
  Cd  Cd4  1  0.78782000  0.36097000  0.87354000  1.0
  H  H1  1  0.94977000  0.97155000  0.52737000  1.0
  H  H2  1  0.06072000  0.11684000  0.46289000  1.0
  H  H3  1  0.83132000  0.20142000  0.55136000  1.0
  H  H4  1  0.66892000  0.06555000  0.61655000  1.0
  H  H5  1  0.82909000  0.66268000  0.63236000  1.0
  H  H6  1  0.68292000  0.51636000  0.69310000  1.0
  H  H7  1  0.45707000  0.59317000  0.78252000  1.0
  H  H8  1  0.56415000  0.74446000  0.72145000  1.0
  H  H9  1  0.05465000  0.47208000  0.47222000  1.0
  H  H10  1  0.94031000  0.61598000  0.53710000  1.0
  H  H11  1  0.17208000  0.70145000  0.44827000  1.0
  H  H12  1  0.33659000  0.56645000  0.38288000  1.0
  H  H13  1  0.17381000  0.16167000  0.36758000  1.0
  H  H14  1  0.32080000  0.01718000  0.30570000  1.0
  H  H15  1  0.54519000  0.09553000  0.21716000  1.0
  H  H16  1  0.43803000  0.24543000  0.27902000  1.0
  H  H17  1  0.54894000  0.97149000  0.02718000  1.0
  H  H18  1  0.43922000  0.11766000  0.96311000  1.0
  H  H19  1  0.66761000  0.20144000  0.05177000  1.0
  H  H20  1  0.82774000  0.06433000  0.11644000  1.0
  H  H21  1  0.66700000  0.66295000  0.13168000  1.0
  H  H22  1  0.81756000  0.51828000  0.19296000  1.0
  H  H23  1  0.04438000  0.59467000  0.28287000  1.0
  H  H24  1  0.93430000  0.74537000  0.22144000  1.0
  H  H25  1  0.44521000  0.47179000  0.97157000  1.0
  H  H26  1  0.55945000  0.61583000  0.03641000  1.0
  H  H27  1  0.32894000  0.70087000  0.94741000  1.0
  H  H28  1  0.16441000  0.56568000  0.88210000  1.0
  H  H29  1  0.32447000  0.16241000  0.86833000  1.0
  H  H30  1  0.17869000  0.01733000  0.80682000  1.0
  H  H31  1  0.95387000  0.09576000  0.71781000  1.0
  H  H32  1  0.06098000  0.24569000  0.77959000  1.0
  C  C1  1  0.12739000  0.02930000  0.53327000  1.0
  C  C2  1  0.20963000  0.10148000  0.49495000  1.0
  C  C3  1  0.46935000  0.16113000  0.49945000  1.0
  C  C4  1  0.64224000  0.14927000  0.54407000  1.0
  C  C5  1  0.54334000  0.07804000  0.58145000  1.0
  C  C6  1  0.55643000  0.23939000  0.45898000  1.0
  C  C7  1  0.96251000  0.64529000  0.66624000  1.0
  C  C8  1  0.87170000  0.56803000  0.70144000  1.0
  C  C9  1  0.04735000  0.55215000  0.74546000  1.0
  C  C10  1  0.30620000  0.61177000  0.75114000  1.0
  C  C11  1  0.38280000  0.68847000  0.71473000  1.0
  C  C12  1  0.95959000  0.47240000  0.78504000  1.0
  C  C13  1  0.87703000  0.52981000  0.46632000  1.0
  C  C14  1  0.79267000  0.60099000  0.50486000  1.0
  C  C15  1  0.53228000  0.66024000  0.50037000  1.0
  C  C16  1  0.36068000  0.64908000  0.45558000  1.0
  C  C17  1  0.46162000  0.57872000  0.41802000  1.0
  C  C18  1  0.44359000  0.73759000  0.54100000  1.0
  C  C19  1  0.04078000  0.14514000  0.33360000  1.0
  C  C20  1  0.13167000  0.06905000  0.29793000  1.0
  C  C21  1  0.95551000  0.05422000  0.25394000  1.0
  C  C22  1  0.69638000  0.11383000  0.24853000  1.0
  C  C23  1  0.61999000  0.18949000  0.28537000  1.0
  C  C24  1  0.04250000  0.97433000  0.21454000  1.0
  C  C25  1  0.37139000  0.02924000  0.03321000  1.0
  C  C26  1  0.29002000  0.10196000  0.99514000  1.0
  C  C27  1  0.03024000  0.16158000  0.99981000  1.0
  C  C28  1  0.85671000  0.14933000  0.04436000  1.0
  C  C29  1  0.95429000  0.07739000  0.08146000  1.0
  C  C30  1  0.94353000  0.23980000  0.95940000  1.0
  C  C31  1  0.53507000  0.64604000  0.16581000  1.0
  C  C32  1  0.62821000  0.56970000  0.20123000  1.0
  C  C33  1  0.45298000  0.55368000  0.24534000  1.0
  C  C34  1  0.19388000  0.61314000  0.25124000  1.0
  C  C35  1  0.11537000  0.68928000  0.21468000  1.0
  C  C36  1  0.54145000  0.47309000  0.28448000  1.0
  C  C37  1  0.62266000  0.52961000  0.96564000  1.0
  C  C38  1  0.70695000  0.60085000  0.00410000  1.0
  C  C39  1  0.96746000  0.66002000  0.99947000  1.0
  C  C40  1  0.13976000  0.64870000  0.95471000  1.0
  C  C41  1  0.03901000  0.57829000  0.91723000  1.0
  C  C42  1  0.05622000  0.73748000  0.03996000  1.0
  C  C43  1  0.45819000  0.14551000  0.83443000  1.0
  C  C44  1  0.36764000  0.06919000  0.79890000  1.0
  C  C45  1  0.54419000  0.05412000  0.75491000  1.0
  C  C46  1  0.80308000  0.11379000  0.74933000  1.0
  C  C47  1  0.87953000  0.18956000  0.78606000  1.0
  C  C48  1  0.45715000  0.97426000  0.71552000  1.0
  N  N1  1  0.29778000  0.01680000  0.57610000  1.0
  N  N2  1  0.20542000  0.70659000  0.67326000  1.0
  N  N3  1  0.70791000  0.51785000  0.42332000  1.0
  N  N4  1  0.79730000  0.20646000  0.32696000  1.0
  N  N5  1  0.19976000  0.01613000  0.07589000  1.0
  N  N6  1  0.29103000  0.70680000  0.17286000  1.0
  N  N7  1  0.79235000  0.51762000  0.92265000  1.0
  N  N8  1  0.70190000  0.20661000  0.82767000  1.0
  O  O1  1  0.79881000  0.29101000  0.46466000  1.0
  O  O2  1  0.37807000  0.24865000  0.42071000  1.0
  O  O3  1  0.13798000  0.46068000  0.82340000  1.0
  O  O4  1  0.71409000  0.42317000  0.77928000  1.0
  O  O5  1  0.20098000  0.78905000  0.53536000  1.0
  O  O6  1  0.62168000  0.74636000  0.57934000  1.0
  O  O7  1  0.86291000  0.96276000  0.17633000  1.0
  O  O8  1  0.28698000  0.92482000  0.22051000  1.0
  O  O9  1  0.70051000  0.29124000  0.96480000  1.0
  O  O10  1  0.12296000  0.24896000  0.92124000  1.0
  O  O11  1  0.36298000  0.46076000  0.32286000  1.0
  O  O12  1  0.78622000  0.42367000  0.27820000  1.0
  O  O13  1  0.29886000  0.78884000  0.03419000  1.0
  O  O14  1  0.87775000  0.74644000  0.07831000  1.0
  O  O15  1  0.63645000  0.96294000  0.67718000  1.0
  O  O16  1  0.21295000  0.92460000  0.72162000  1.0
