# generated using pymatgen
data_H29(C15N2)3
_symmetry_space_group_name_H-M   'P 1'
_cell_length_a   9.94336667
_cell_length_b   67.75615000
_cell_length_c   67.75620000
_cell_angle_alpha   120.00007323
_cell_angle_beta   90.08220000
_cell_angle_gamma   89.99999988
_symmetry_Int_Tables_number   1
_chemical_formula_structural   H29(C15N2)3
_chemical_formula_sum   'H174 C270 N36'
_cell_volume   39533.10554315
_cell_formula_units_Z   6
loop_
 _symmetry_equiv_pos_site_id
 _symmetry_equiv_pos_as_xyz
  1  'x, y, z'
loop_
 _atom_site_type_symbol
 _atom_site_label
 _atom_site_symmetry_multiplicity
 _atom_site_fract_x
 _atom_site_fract_y
 _atom_site_fract_z
 _atom_site_occupancy
  C  1  1  0.02513900  0.95428533  0.46070700  1
  C  2  1  0.02412400  0.97784833  0.47240600  1
  C  3  1  0.02064500  0.98541600  0.49573633  1
  C  5  1  0.02204700  0.94688967  0.47660733  1
  C  6  1  0.02137700  0.92369200  0.47117667  1
  C  7  1  0.01932500  0.91636533  0.48751567  1
  C  9  1  0.01785800  0.91650433  0.52070100  1
  C  10  1  0.01473500  0.89384033  0.50305767  1
  C  11  1  0.01585200  0.89375400  0.48265967  1
  C  12  1  0.01851300  0.92399967  0.54440600  1
  C  13  1  0.02050900  0.94725067  0.56203767  1
  C  15  1  0.02209700  0.98577333  0.58116667  1
  C  16  1  0.02516400  0.97837733  0.59706800  1
  C  17  1  0.02401400  0.95481667  0.58536900  1
  C  18  1  0.02150500  0.00896933  0.58659767  1
  C  19  1  0.01945700  0.01629633  0.57026000  1
  C  21  1  0.01802500  0.01615933  0.53707467  1
  C  22  1  0.01467000  0.03882067  0.55472200  1
  C  23  1  0.01577300  0.03890600  0.57511967  1
  C  24  1  0.01874900  0.00866733  0.51336900  1
  C  25  1  0.01721900  0.02591367  0.50710500  1
  C  26  1  0.89404700  0.03407767  0.50359533  1
  C  27  1  0.89118000  0.05300267  0.50027267  1
  C  28  1  0.01079900  0.06451167  0.50048367  1
  C  29  1  0.13401500  0.05585200  0.50357733  1
  C  30  1  0.13734600  0.03694300  0.50692733  1
  C  31  1  0.00716900  0.08462167  0.49845633  1
  C  32  1  0.10394600  0.08849333  0.48541700  1
  C  33  1  0.10168400  0.10843533  0.48379333  1
  C  34  1  0.00270600  0.12538267  0.49530200  1
  C  35  1  0.90515800  0.12153167  0.50809900  1
  C  36  1  0.90764900  0.10160667  0.50973467  1
  C  37  1  0.02347500  0.02632933  0.61005667  1
  C  38  1  0.90222000  0.03504333  0.62216433  1
  C  39  1  0.90345100  0.05389200  0.64446733  1
  C  40  1  0.02542600  0.06476200  0.65534233  1
  C  41  1  0.14656400  0.05562300  0.64311900  1
  C  42  1  0.14581900  0.03675500  0.62083733  1
  C  43  1  0.02581500  0.08467300  0.67759967  1
  C  44  1  0.94141100  0.08632333  0.69519133  1
  C  45  1  0.94028400  0.10602133  0.71693300  1
  C  46  1  0.02327600  0.12493767  0.72190533  1
  C  47  1  0.10803000  0.12333933  0.70448400  1
  C  48  1  0.10929000  0.10361867  0.68276000  1
  C  49  1  0.01686300  0.90676767  0.55068633  1
  C  50  1  0.13711800  0.89596400  0.55123500  1
  C  51  1  0.13383400  0.87718000  0.55478400  1
  C  52  1  0.01057400  0.86843400  0.55772100  1
  C  53  1  0.89079200  0.87970467  0.55752933  1
  C  54  1  0.89359600  0.89850233  0.55400400  1
  C  55  1  0.00708900  0.84849900  0.56005000  1
  C  56  1  0.90841600  0.83133000  0.54870867  1
  C  57  1  0.90585800  0.81160767  0.55070167  1
  C  58  1  0.00252700  0.80814800  0.56392600  1
  C  59  1  0.10075000  0.82527033  0.57547400  1
  C  60  1  0.10305900  0.84501133  0.57349700  1
  C  61  1  0.02333500  0.90631800  0.44772333  1
  C  62  1  0.14577800  0.89600467  0.43698633  1
  C  63  1  0.90201900  0.89737400  0.43563733  1
  C  64  1  0.90329300  0.87841000  0.41340433  1
  C  65  1  0.02537600  0.86763133  0.40259167  1
  C  66  1  0.14656300  0.87701600  0.41477833  1
  C  67  1  0.02582400  0.84754533  0.38045933  1
  C  68  1  0.11011100  0.82876467  0.37554133  1
  C  69  1  0.10883300  0.80885800  0.35395833  1
  C  70  1  0.02318900  0.80689433  0.33644500  1
  C  71  1  0.93934800  0.82564000  0.34117367  1
  C  72  1  0.94050100  0.84552600  0.36277633  1
  C  119  1  0.02180900  0.40879833  0.04233767  1
  C  120  1  0.02086500  0.39693700  0.01877367  1
  C  121  1  0.01761900  0.41270200  0.01120667  1
  C  123  1  0.01891400  0.43209567  0.04973467  1
  C  124  1  0.01834600  0.44986267  0.07293300  1
  C  125  1  0.01640100  0.47352900  0.08026067  1
  C  127  1  0.01502700  0.50657700  0.08012433  1
  C  128  1  0.01206500  0.51159667  0.10278733  1
  C  129  1  0.01310100  0.49128333  0.10287167  1
  C  130  1  0.01568600  0.52278800  0.07263133  1
  C  131  1  0.01755700  0.51717167  0.04938200  1
  C  133  1  0.01903500  0.49778167  0.01085967  1
  C  134  1  0.02204700  0.52107967  0.01825833  1
  C  135  1  0.02095100  0.53293900  0.04181867  1
  C  136  1  0.01844100  0.48001767  0.98766133  1
  C  137  1  0.01648600  0.45635267  0.98033133  1
  C  139  1  0.01521200  0.42330167  0.98046400  1
  C  140  1  0.01201000  0.41828933  0.95780167  1
  C  141  1  0.01297500  0.43860300  0.95771933  1
  C  142  1  0.01594200  0.40708733  0.98795500  1
  C  143  1  0.01460900  0.38357700  0.97070267  1
  C  144  1  0.89153300  0.37188467  0.96243733  1
  C  145  1  0.88893900  0.34963633  0.94351000  1
  C  146  1  0.00873000  0.33835633  0.93211000  1
  C  147  1  0.13181900  0.35013833  0.94086867  1
  C  148  1  0.13492100  0.37238667  0.95979767  1
  C  149  1  0.00539800  0.31621667  0.91199900  1
  C  150  1  0.10221600  0.29932600  0.90821267  1
  C  151  1  0.10027100  0.27776033  0.88826800  1
  C  152  1  0.00155600  0.27230067  0.87123533  1
  C  153  1  0.90400900  0.28893333  0.87499400  1
  C  154  1  0.90623600  0.31049800  0.89491567  1
  C  155  1  0.02035200  0.48611867  0.97030367  1
  C  156  1  0.89906500  0.48947267  0.96151833  1
  C  157  1  0.90025300  0.49294267  0.94268033  1
  C  158  1  0.02222000  0.49297267  0.93187200  1
  C  159  1  0.14338900  0.48990733  0.94106867  1
  C  160  1  0.14269000  0.48650467  0.95994333  1
  C  161  1  0.02257100  0.49531433  0.91195833  1
  C  162  1  0.93811600  0.51124767  0.91026867  1
  C  163  1  0.93698000  0.51328967  0.89056900  1
  C  164  1  0.02003100  0.49935533  0.87169300  1
  C  165  1  0.10486100  0.48354367  0.87333367  1
  C  166  1  0.10605400  0.48153067  0.89304933  1
  C  167  1  0.01423700  0.54630000  0.08986467  1
  C  168  1  0.13465600  0.55764033  0.10065000  1
  C  169  1  0.13160900  0.57996300  0.11945133  1
  C  170  1  0.00847400  0.59167167  0.12819533  1
  C  171  1  0.88852600  0.58022300  0.11693867  1
  C  172  1  0.89107000  0.55789967  0.09814033  1
  C  173  1  0.00528800  0.61394000  0.14812467  1
  C  174  1  0.90696000  0.61978867  0.16530733  1
  C  175  1  0.90479700  0.64150033  0.18503667  1
  C  176  1  0.00153100  0.65815933  0.18848767  1
  C  177  1  0.09933000  0.65257133  0.17134167  1
  C  178  1  0.10122500  0.63085867  0.15159133  1
  C  179  1  0.02024800  0.44378033  0.09030600  1
  C  180  1  0.14267600  0.44333500  0.10066233  1
  C  181  1  0.89890400  0.44065600  0.09920467  1
  C  182  1  0.90013100  0.43738300  0.11816633  1
  C  183  1  0.02219900  0.43733367  0.12899233  1
  C  184  1  0.14341500  0.44011600  0.11965200  1
  C  185  1  0.02260500  0.43529567  0.14908333  1
  C  186  1  0.10695300  0.44914767  0.16789333  1
  C  187  1  0.10566100  0.44747467  0.18780133  1
  C  188  1  0.01994000  0.43193667  0.18973533  1
  C  189  1  0.93604100  0.41793000  0.17096000  1
  C  190  1  0.93720500  0.41964367  0.15107300  1
  C  237  1  0.02034800  0.53591933  0.58781933  1
  C  238  1  0.01923100  0.52422133  0.59968433  1
  C  239  1  0.01577200  0.50088867  0.58392100  1
  C  241  1  0.01733000  0.52001667  0.56452167  1
  C  242  1  0.01680300  0.52544433  0.54675233  1
  C  243  1  0.01467000  0.50910333  0.52308733  1
  C  245  1  0.01300200  0.47591567  0.49004167  1
  C  246  1  0.01000900  0.49355600  0.48501733  1
  C  247  1  0.01128700  0.51395600  0.50532867  1
  C  248  1  0.01360000  0.45221067  0.47383467  1
  C  249  1  0.01565700  0.43458067  0.47945567  1
  C  251  1  0.01741700  0.41545533  0.49885333  1
  C  252  1  0.02048000  0.39955367  0.47555767  1
  C  253  1  0.01920100  0.41125033  0.46369333  1
  C  254  1  0.01694700  0.41002533  0.51661933  1
  C  255  1  0.01482200  0.42636333  0.54028233  1
  C  257  1  0.01325200  0.45954933  0.57332833  1
  C  258  1  0.01005900  0.44190233  0.57834433  1
  C  259  1  0.01125200  0.42150367  0.55803267  1
  C  260  1  0.01389500  0.48325567  0.58954067  1
  C  261  1  0.01245300  0.48951967  0.61305100  1
  C  262  1  0.88928600  0.49292433  0.62466333  1
  C  263  1  0.88652000  0.49623667  0.64690667  1
  C  264  1  0.00623300  0.49614633  0.65827000  1
  C  265  1  0.12941000  0.49314833  0.64657033  1
  C  266  1  0.13267400  0.48982767  0.62432367  1
  C  267  1  0.00274300  0.49817267  0.68040633  1
  C  268  1  0.09938900  0.51130100  0.69736167  1
  C  269  1  0.09730800  0.51292167  0.71892567  1
  C  270  1  0.99870000  0.50130867  0.72431367  1
  C  271  1  0.90128300  0.48842033  0.70761967  1
  C  272  1  0.90358700  0.48678967  0.68606133  1
  C  273  1  0.01923600  0.38656833  0.51052467  1
  C  274  1  0.89818100  0.37436233  0.50707933  1
  C  275  1  0.89981500  0.35205133  0.50360333  1
  C  276  1  0.02200600  0.34128367  0.50366067  1
  C  277  1  0.14293800  0.35360733  0.50679433  1
  C  278  1  0.14180100  0.37588933  0.51021133  1
  C  279  1  0.02282200  0.31902567  0.50131233  1
  C  280  1  0.93866400  0.30135867  0.48532733  1
  C  281  1  0.93801300  0.27961233  0.48327600  1
  C  282  1  0.02123200  0.27471233  0.49725700  1
  C  283  1  0.10574700  0.29221067  0.51312400  1
  C  284  1  0.10651600  0.31394000  0.51513733  1
  C  285  1  0.01195400  0.44592633  0.45032033  1
  C  286  1  0.13230600  0.44535600  0.43900733  1
  C  287  1  0.12912800  0.44183367  0.41668267  1
  C  288  1  0.00592000  0.43888933  0.40494700  1
  C  289  1  0.88604200  0.43909300  0.41636667  1
  C  290  1  0.88872300  0.44261933  0.43869100  1
  C  291  1  0.00260800  0.43655767  0.38268100  1
  C  292  1  0.90422400  0.44789700  0.37680667  1
  C  293  1  0.90192600  0.44591567  0.35509500  1
  C  294  1  0.99856900  0.43270233  0.33846000  1
  C  295  1  0.09642900  0.42114200  0.34407433  1
  C  296  1  0.09848600  0.42310833  0.36578900  1
  C  297  1  0.01907700  0.54889767  0.55283167  1
  C  298  1  0.14172000  0.55963000  0.55329267  1
  C  299  1  0.89798000  0.56098633  0.55592500  1
  C  300  1  0.89964900  0.58322300  0.55920433  1
  C  301  1  0.02193600  0.59402400  0.55926100  1
  C  302  1  0.14290700  0.58183100  0.55649433  1
  C  303  1  0.02280100  0.61615400  0.56130200  1
  C  304  1  0.10724300  0.62106300  0.54746033  1
  C  305  1  0.10637100  0.64264367  0.54913200  1
  C  306  1  0.02106700  0.66017000  0.56466867  1
  C  307  1  0.93708700  0.65545067  0.57866633  1
  C  308  1  0.93781600  0.63384933  0.57695167  1
  C  355  1  0.98304600  0.75802933  0.27881167  1
  C  356  1  0.87962100  0.74605333  0.26268800  1
  C  357  1  0.90637100  0.72498200  0.24244733  1
  C  358  1  0.03735800  0.71535700  0.23788900  1
  C  359  1  0.13939800  0.72738300  0.25412567  1
  C  360  1  0.11291600  0.74817200  0.27412567  1
  C  362  1  0.67568100  0.72322267  0.23083867  1
  C  363  1  0.64976900  0.74390567  0.25097100  1
  C  368  1  0.56982000  0.71095633  0.21375200  1
  C  372  1  0.95938800  0.77941533  0.29792300  1
  C  374  1  0.07183000  0.69552667  0.21776700  1
  C  376  1  0.97979800  0.42317100  0.23858733  1
  C  377  1  0.87641400  0.41902000  0.25052267  1
  C  378  1  0.90321600  0.41984967  0.27160400  1
  C  379  1  0.03421100  0.42492467  0.28128100  1
  C  380  1  0.13619300  0.42914967  0.26930033  1
  C  381  1  0.10966700  0.42835700  0.24849933  1
  C  383  1  0.67256700  0.40998367  0.27327033  1
  C  384  1  0.64659600  0.40943600  0.25257933  1
  C  389  1  0.56676300  0.40515300  0.28549233  1
  C  393  1  0.95609000  0.42090733  0.21719600  1
  C  395  1  0.06874200  0.42462867  0.30112133  1
  C  397  1  0.98222000  0.71781667  0.57344700  1
  C  398  1  0.87912800  0.73395600  0.57757733  1
  C  399  1  0.90630800  0.75419500  0.57675500  1
  C  400  1  0.03741200  0.75873667  0.57171933  1
  C  401  1  0.13910100  0.74247900  0.56751533  1
  C  402  1  0.11219400  0.72248067  0.56829500  1
  C  404  1  0.67584300  0.76583967  0.58656700  1
  C  405  1  0.64949900  0.74570867  0.58710800  1
  C  410  1  0.57033500  0.78294333  0.59137233  1
  C  414  1  0.95816300  0.69871100  0.57572067  1
  C  416  1  0.07229000  0.77885533  0.57201867  1
  C  418  1  0.98337800  0.17319333  0.77986900  1
  C  419  1  0.87994700  0.18494967  0.79600200  1
  C  420  1  0.90666300  0.20585200  0.81645333  1
  C  421  1  0.03763500  0.21552533  0.82121767  1
  C  422  1  0.13966300  0.20372333  0.80496267  1
  C  423  1  0.11321900  0.18309833  0.78475833  1
  C  425  1  0.67597800  0.20733433  0.82785467  1
  C  426  1  0.65010500  0.18682267  0.80751800  1
  C  431  1  0.57009700  0.21936333  0.84494500  1
  C  435  1  0.95979000  0.15194567  0.76054467  1
  C  437  1  0.07211600  0.23518300  0.84153167  1
  C  439  1  0.98015000  0.50905433  0.82341500  1
  C  440  1  0.87673900  0.51342033  0.81160433  1
  C  441  1  0.90350600  0.51297133  0.79071567  1
  C  442  1  0.03451100  0.50807667  0.78111167  1
  C  443  1  0.13652100  0.50363500  0.79296733  1
  C  444  1  0.11002600  0.50404967  0.81357700  1
  C  446  1  0.67279400  0.52286367  0.78911100  1
  C  447  1  0.64687100  0.52303533  0.80960867  1
  C  452  1  0.56693000  0.52791500  0.77702667  1
  C  456  1  0.95651300  0.51097533  0.84465067  1
  C  458  1  0.06904800  0.50873600  0.76147200  1
  C  460  1  0.98254500  0.21670667  0.48751633  1
  C  461  1  0.87942000  0.20048367  0.48310067  1
  C  462  1  0.90660200  0.18005600  0.48356167  1
  C  463  1  0.03775200  0.17540433  0.48851467  1
  C  464  1  0.13944300  0.19175900  0.49302700  1
  C  465  1  0.11255500  0.21193400  0.49258367  1
  C  467  1  0.67603800  0.16845367  0.47356133  1
  C  468  1  0.64970400  0.18876733  0.47337600  1
  C  473  1  0.57047200  0.15127167  0.46846333  1
  C  477  1  0.95846300  0.23601667  0.48559600  1
  C  479  1  0.07263900  0.15513167  0.48789933  1
  H  73  1  0.87668300  0.82509400  0.32895500  1
  H  74  1  0.87936400  0.85874733  0.36533867  1
  H  75  1  0.17055900  0.79562000  0.35118833  1
  H  76  1  0.17156400  0.82915400  0.38785467  1
  H  77  1  0.23732100  0.86997633  0.40763600  1
  H  78  1  0.23502800  0.90188033  0.44550467  1
  H  79  1  0.81299300  0.87191233  0.40557267  1
  H  80  1  0.81164000  0.90412633  0.44323967  1
  H  81  1  0.02755400  0.94436867  0.44335433  1
  H  82  1  0.02598500  0.98765567  0.46484867  1
  H  83  1  0.01569100  0.96625900  0.51146133  1
  H  84  1  0.01563100  0.96640533  0.54630900  1
  H  85  1  0.01378500  0.87936167  0.46697833  1
  H  86  1  0.01197600  0.87952067  0.50446967  1
  H  87  1  0.22760200  0.90123400  0.54830267  1
  H  88  1  0.22273600  0.86928767  0.55415367  1
  H  89  1  0.80472100  0.90575067  0.55329433  1
  H  90  1  0.79937400  0.87421000  0.55980200  1
  H  91  1  0.02582400  0.94501067  0.59292867  1
  H  92  1  0.02765400  0.98829200  0.61442200  1
  H  93  1  0.01165900  0.05314267  0.55331500  1
  H  94  1  0.01344300  0.05329367  0.59080167  1
  H  95  1  0.81187700  0.02820500  0.61453833  1
  H  96  1  0.81315900  0.06021500  0.65233233  1
  H  97  1  0.23502000  0.03102533  0.61231900  1
  H  98  1  0.23726100  0.06272800  0.65030767  1
  H  99  1  0.17006100  0.10349133  0.67052500  1
  H  100  1  0.16917500  0.13670633  0.70743467  1
  H  101  1  0.87833400  0.10629733  0.72907700  1
  H  102  1  0.88089800  0.07296800  0.69245100  1
  H  103  1  0.22772200  0.03177400  0.51003933  1
  H  104  1  0.22275900  0.06392033  0.50452467  1
  H  105  1  0.83698300  0.09989500  0.51973900  1
  H  106  1  0.83177900  0.13340067  0.51658500  1
  H  107  1  0.17237600  0.11031767  0.47392533  1
  H  108  1  0.17625200  0.07656033  0.47656267  1
  H  109  1  0.79980300  0.05842967  0.49787633  1
  H  110  1  0.80521800  0.02668767  0.50406633  1
  H  111  1  0.83833500  0.83277233  0.53843300  1
  H  112  1  0.83307100  0.79959800  0.54216800  1
  H  113  1  0.17466300  0.85709933  0.58241667  1
  H  114  1  0.17075100  0.82367300  0.58564200  1
  H  191  1  0.87332400  0.40626467  0.17148400  1
  H  192  1  0.87602500  0.40899100  0.13782933  1
  H  193  1  0.16744100  0.45793333  0.20106033  1
  H  194  1  0.16846700  0.46106200  0.16752433  1
  H  195  1  0.23416400  0.44000333  0.12672767  1
  H  196  1  0.23194700  0.44596500  0.09482067  1
  H  197  1  0.80982100  0.43607733  0.12464200  1
  H  198  1  0.80852700  0.44152933  0.09242667  1
  H  199  1  0.02418600  0.40136100  0.05225300  1
  H  200  1  0.02275700  0.37957233  0.00896500  1
  H  201  1  0.01312100  0.44758633  0.03036500  1
  H  202  1  0.01274900  0.48228800  0.03022233  1
  H  203  1  0.01112500  0.48999367  0.11726367  1
  H  204  1  0.00944000  0.52732833  0.11710700  1
  H  205  1  0.22507100  0.54942267  0.09537400  1
  H  206  1  0.22065800  0.58722800  0.12731233  1
  H  207  1  0.80209200  0.54994700  0.09090767  1
  H  208  1  0.79717900  0.58800300  0.12244033  1
  H  209  1  0.02278700  0.55030433  0.05162700  1
  H  210  1  0.02447100  0.52852067  0.00834633  1
  H  211  1  0.00920400  0.40256033  0.94347700  1
  H  212  1  0.01080900  0.43989767  0.94333000  1
  H  213  1  0.80874000  0.48870167  0.96833400  1
  H  214  1  0.80996000  0.49448533  0.93632067  1
  H  215  1  0.23191200  0.48371867  0.96570700  1
  H  216  1  0.23407400  0.49000233  0.93400467  1
  H  217  1  0.16695900  0.46944233  0.89321300  1
  H  218  1  0.16604800  0.47313367  0.85999633  1
  H  219  1  0.87499500  0.52515200  0.89026333  1
  H  220  1  0.87757800  0.52185867  0.92359700  1
  H  221  1  0.22521900  0.38068533  0.96504700  1
  H  222  1  0.22071700  0.34301367  0.93290333  1
  H  223  1  0.83552500  0.32219633  0.89656900  1
  H  224  1  0.83087400  0.28554067  0.86305400  1
  H  225  1  0.17095000  0.26602267  0.88645233  1
  H  226  1  0.17426400  0.30241300  0.92021700  1
  H  227  1  0.79764100  0.34179733  0.93800233  1
  H  228  1  0.80260400  0.37973867  0.96974100  1
  H  229  1  0.83694800  0.60807967  0.16388300  1
  H  230  1  0.83229200  0.64498833  0.19706067  1
  H  231  1  0.17261700  0.62767233  0.13949767  1
  H  232  1  0.16930700  0.66432367  0.17292700  1
  H  309  1  0.87462800  0.66767667  0.59032500  1
  H  310  1  0.87655400  0.63129033  0.58759067  1
  H  311  1  0.16822200  0.64540867  0.53868233  1
  H  312  1  0.16845700  0.60873933  0.53554567  1
  H  313  1  0.23379600  0.58896433  0.55661267  1
  H  314  1  0.23082600  0.55110433  0.55066167  1
  H  315  1  0.80949900  0.59105767  0.56050233  1
  H  316  1  0.80746200  0.55339333  0.55505967  1
  H  317  1  0.02283500  0.55327167  0.59525467  1
  H  318  1  0.02108200  0.53178033  0.61705033  1
  H  319  1  0.01104900  0.48515867  0.54903667  1
  H  320  1  0.01084300  0.45030967  0.51433767  1
  H  321  1  0.00924900  0.52963667  0.50661533  1
  H  322  1  0.00724800  0.49214133  0.46928367  1
  H  323  1  0.22276000  0.44831833  0.44725467  1
  H  324  1  0.21811900  0.44245700  0.40945567  1
  H  325  1  0.79979900  0.44333633  0.44661833  1
  H  326  1  0.79464800  0.43681767  0.40856233  1
  H  327  1  0.02095200  0.40369067  0.44632800  1
  H  328  1  0.02299700  0.38220133  0.46812033  1
  H  329  1  0.00716300  0.44330933  0.59407233  1
  H  330  1  0.00910300  0.40582033  0.55673833  1
  H  331  1  0.80770800  0.38190767  0.50781367  1
  H  332  1  0.80967600  0.34410933  0.50202633  1
  H  333  1  0.23086500  0.38448233  0.51303833  1
  H  334  1  0.23377200  0.34649533  0.50675133  1
  H  335  1  0.16714000  0.32622833  0.52727333  1
  H  336  1  0.16703300  0.28931533  0.52357000  1
  H  337  1  0.87624700  0.26741067  0.47137300  1
  H  338  1  0.87803000  0.30404467  0.47468100  1
  H  339  1  0.22304000  0.48679433  0.61608433  1
  H  340  1  0.21826300  0.49232467  0.65375367  1
  H  341  1  0.83303300  0.47672033  0.67431300  1
  H  342  1  0.82818500  0.47985300  0.71096333  1
  H  343  1  0.16788300  0.52285733  0.73070900  1
  H  344  1  0.17139900  0.52023767  0.69432333  1
  H  345  1  0.79515200  0.49853600  0.65467900  1
  H  346  1  0.80039600  0.49233333  0.61674300  1
  H  347  1  0.83426400  0.45818300  0.38849733  1
  H  348  1  0.82940100  0.45445900  0.35158967  1
  H  349  1  0.16987500  0.41418900  0.36898933  1
  H  350  1  0.16635500  0.41097333  0.33234067  1
  H  365  1  0.55637900  0.75115567  0.25444967  1
  H  366  1  0.19126200  0.75636300  0.28501367  1
  H  367  1  0.23573300  0.72121200  0.25141633  1
  H  369  1  0.60903200  0.69530967  0.19939200  1
  H  370  1  0.53080400  0.72174700  0.20733867  1
  H  371  1  0.48772100  0.70650100  0.22148167  1
  H  373  1  0.88547400  0.78883433  0.29710600  1
  H  375  1  0.16342900  0.69449233  0.21144600  1
  H  386  1  0.55320700  0.40565500  0.24529033  1
  H  387  1  0.18798700  0.43106033  0.24034100  1
  H  388  1  0.23254000  0.43261233  0.27550667  1
  H  390  1  0.60601600  0.40643800  0.30115267  1
  H  391  1  0.52777800  0.38794633  0.27468333  1
  H  392  1  0.48463200  0.41733300  0.28991867  1
  H  394  1  0.88209500  0.41068767  0.20775467  1
  H  396  1  0.16036000  0.41934433  0.30218767  1
  H  407  1  0.55603300  0.74224367  0.59086233  1
  H  408  1  0.19031800  0.71158367  0.56562000  1
  H  409  1  0.23551500  0.74517800  0.56408100  1
  H  411  1  0.60985500  0.79729867  0.59009500  1
  H  412  1  0.53142600  0.78936100  0.60856967  1
  H  413  1  0.48809300  0.77522933  0.57917367  1
  H  415  1  0.88432300  0.69954900  0.58596067  1
  H  417  1  0.16401800  0.78516200  0.57731767  1
  H  428  1  0.55673100  0.17953733  0.80388567  1
  H  429  1  0.19157300  0.17505433  0.77386700  1
  H  430  1  0.23599500  0.20992833  0.80781200  1
  H  432  1  0.60928300  0.23490233  0.85948100  1
  H  433  1  0.53111200  0.20834633  0.85108100  1
  H  434  1  0.48798700  0.22397233  0.83732067  1
  H  436  1  0.88609300  0.14238800  0.76117167  1
  H  438  1  0.16387600  0.23617300  0.84782233  1
  H  449  1  0.55347700  0.52668233  0.81684600  1
  H  450  1  0.18837500  0.50121733  0.82166600  1
  H  451  1  0.23288200  0.50029200  0.78681467  1
  H  453  1  0.60615200  0.52691500  0.76150867  1
  H  454  1  0.52788200  0.54506400  0.78802367  1
  H  455  1  0.48485400  0.51567367  0.77237600  1
  H  457  1  0.88271300  0.52114033  0.85416500  1
  H  459  1  0.16081300  0.51404233  0.76053000  1
  H  470  1  0.55620500  0.19231800  0.46969067  1
  H  471  1  0.19066300  0.22290800  0.49548667  1
  H  472  1  0.23586800  0.18899867  0.49642867  1
  H  474  1  0.60999000  0.13677200  0.46948367  1
  H  475  1  0.53140200  0.14510000  0.45129533  1
  H  476  1  0.48834800  0.15882533  0.48066533  1
  H  478  1  0.88461200  0.23533067  0.47539233  1
  H  480  1  0.16455700  0.14894000  0.48268267  1
  N  4  1  0.01955300  0.96620100  0.49727367  1
  N  8  1  0.02044400  0.92930967  0.51050700  1
  N  14  1  0.01951300  0.96646367  0.56049800  1
  N  20  1  0.02070600  0.00335367  0.54726900  1
  N  115  1  0.99234300  0.14455600  0.49436800  1
  N  116  1  0.02794500  0.78738100  0.31650767  1
  N  117  1  0.99215600  0.78915233  0.56518567  1
  N  118  1  0.02810200  0.14428067  0.74200300  1
  N  122  1  0.01649600  0.43345333  0.03042300  1
  N  126  1  0.01746600  0.48357667  0.06731800  1
  N  132  1  0.01652600  0.49641967  0.03016633  1
  N  138  1  0.01770300  0.44630267  0.99327333  1
  N  233  1  0.99159600  0.25220067  0.85203900  1
  N  234  1  0.02471300  0.43150967  0.20924900  1
  N  235  1  0.99148800  0.67841833  0.20748400  1
  N  236  1  0.02488300  0.50011300  0.85235533  1
  N  240  1  0.01471100  0.49935033  0.56316833  1
  N  244  1  0.01564000  0.48611233  0.51304233  1
  N  250  1  0.01472500  0.43612167  0.50020867  1
  N  256  1  0.01590200  0.44935467  0.55032967  1
  N  351  1  0.98860800  0.50221433  0.74440900  1
  N  352  1  0.02625600  0.68010800  0.56509667  1
  N  353  1  0.98844500  0.43144667  0.31820067  1
  N  354  1  0.02652200  0.25461700  0.49649700  1
  N  361  1  0.80274900  0.71480367  0.22755633  1
  N  364  1  0.75187700  0.75438567  0.26587767  1
  N  382  1  0.79963800  0.41512800  0.28173967  1
  N  385  1  0.74866300  0.41386867  0.24214000  1
  N  403  1  0.80299100  0.76910233  0.58145333  1
  N  406  1  0.75130300  0.73078600  0.58269733  1
  N  424  1  0.80302200  0.21581400  0.83133233  1
  N  427  1  0.75222500  0.17655500  0.79261767  1
  N  445  1  0.79987400  0.51787533  0.78069833  1
  N  448  1  0.74898500  0.51841667  0.81993200  1
  N  466  1  0.80322800  0.16508700  0.47860767  1
  N  469  1  0.75155500  0.20375667  0.47804533  1
