# generated using pymatgen
data_Cd3H40C48S2(NO)8
_symmetry_space_group_name_H-M   'P 1'
_cell_length_a   13.78378000
_cell_length_b   20.96000000
_cell_length_c   21.55014000
_cell_angle_alpha   89.93613000
_cell_angle_beta   89.97614000
_cell_angle_gamma   78.52180000
_symmetry_Int_Tables_number   1
_chemical_formula_structural   Cd3H40C48S2(NO)8
_chemical_formula_sum   'Cd12 H160 C192 S8 N32 O32'
_cell_volume   6101.48743507
_cell_formula_units_Z   4
loop_
 _symmetry_equiv_pos_site_id
 _symmetry_equiv_pos_as_xyz
  1  'x, y, z'
loop_
 _atom_site_type_symbol
 _atom_site_label
 _atom_site_symmetry_multiplicity
 _atom_site_fract_x
 _atom_site_fract_y
 _atom_site_fract_z
 _atom_site_occupancy
  Cd  Cd0  1  0.55404000  0.73977000  0.73366000  1
  Cd  Cd1  1  0.71021000  0.77320000  0.98784000  1
  Cd  Cd2  1  0.37608000  0.62285000  0.44785000  1
  Cd  Cd3  1  0.94445000  0.75989000  0.23335000  1
  Cd  Cd4  1  0.78784000  0.72714000  0.48716000  1
  Cd  Cd5  1  0.12436000  0.87786000  0.94755000  1
  Cd  Cd6  1  0.44563000  0.26006000  0.26646000  1
  Cd  Cd7  1  0.28664000  0.22874000  0.01213000  1
  Cd  Cd8  1  0.62270000  0.37725000  0.55163000  1
  Cd  Cd9  1  0.05521000  0.23905000  0.76599000  1
  Cd  Cd10  1  0.21379000  0.27126000  0.51183000  1
  Cd  Cd11  1  0.87564000  0.12141000  0.05185000  1
  H  H12  1  0.36419000  0.77436000  0.81882000  1
  H  H13  1  0.18619000  0.82838000  0.81950000  1
  H  H14  1  0.21542000  0.86826000  0.62369000  1
  H  H15  1  0.39239000  0.81041000  0.63139000  1
  H  H16  1  0.06406000  0.91589000  0.67556000  1
  H  H17  1  0.04537000  0.12617000  0.86807000  1
  H  H18  1  0.05573000  0.00589000  0.87171000  1
  H  H19  1  0.98022000  0.01435000  0.67667000  1
  H  H20  1  0.98208000  0.13288000  0.67952000  1
  H  H21  1  0.06375000  0.90695000  0.81855000  1
  H  H22  1  0.84236000  0.88497000  0.97345000  1
  H  H23  1  0.92924000  0.93330000  0.88870000  1
  H  H24  1  0.81357000  0.80863000  0.76022000  1
  H  H25  1  0.72528000  0.77051000  0.84903000  1
  H  H26  1  0.88281000  0.93157000  0.73333000  1
  H  H27  1  0.73836000  0.82591000  0.58872000  1
  H  H28  1  0.80740000  0.87738000  0.67834000  1
  H  H29  1  0.09261000  0.75683000  0.63598000  1
  H  H30  1  0.01202000  0.71488000  0.54428000  1
  H  H31  1  0.02708000  0.80197000  0.75453000  1
  H  H32  1  0.69005000  0.65115000  0.83543000  1
  H  H33  1  0.86478000  0.59935000  0.85659000  1
  H  H34  1  0.93838000  0.66339000  0.67477000  1
  H  H35  1  0.75928000  0.70963000  0.65973000  1
  H  H36  1  0.03259000  0.57467000  0.82466000  1
  H  H37  1  0.04094000  0.34912000  0.65504000  1
  H  H38  1  0.04060000  0.46698000  0.64045000  1
  H  H39  1  0.12600000  0.47455000  0.83282000  1
  H  H40  1  0.11568000  0.35673000  0.84064000  1
  H  H41  1  0.05008000  0.56884000  0.68276000  1
  H  H42  1  0.34681000  0.70290000  0.60872000  1
  H  H43  1  0.25918000  0.69015000  0.70886000  1
  H  H44  1  0.21591000  0.50416000  0.64021000  1
  H  H45  1  0.30013000  0.52698000  0.54264000  1
  H  H46  1  0.22260000  0.55514000  0.77447000  1
  H  H47  1  0.33669000  0.69004000  0.91710000  1
  H  H48  1  0.29379000  0.64501000  0.81562000  1
  H  H49  1  0.98568000  0.70073000  0.86785000  1
  H  H50  1  0.04134000  0.74117000  0.96756000  1
  H  H51  1  0.07892000  0.68108000  0.73912000  1
  H  H52  1  0.13308000  0.72347000  0.31898000  1
  H  H53  1  0.31077000  0.66881000  0.31971000  1
  H  H54  1  0.28299000  0.63278000  0.12306000  1
  H  H55  1  0.10606000  0.69089000  0.13087000  1
  H  H56  1  0.43368000  0.58316000  0.17552000  1
  H  H57  1  0.45141000  0.37335000  0.36881000  1
  H  H58  1  0.44073000  0.49367000  0.37205000  1
  H  H59  1  0.51717000  0.48484000  0.17710000  1
  H  H60  1  0.51637000  0.36612000  0.18056000  1
  H  H61  1  0.43381000  0.59249000  0.31852000  1
  H  H62  1  0.65713000  0.61387000  0.47292000  1
  H  H63  1  0.56967000  0.56569000  0.38854000  1
  H  H64  1  0.68327000  0.69116000  0.25961000  1
  H  H65  1  0.77242000  0.72904000  0.34792000  1
  H  H66  1  0.61463000  0.56774000  0.23320000  1
  H  H67  1  0.75915000  0.67462000  0.08879000  1
  H  H68  1  0.68989000  0.62200000  0.17770000  1
  H  H69  1  0.40475000  0.74299000  0.13594000  1
  H  H70  1  0.48539000  0.78605000  0.04479000  1
  H  H71  1  0.47003000  0.69722000  0.25420000  1
  H  H72  1  0.80949000  0.84913000  0.33480000  1
  H  H73  1  0.63493000  0.90118000  0.35607000  1
  H  H74  1  0.56024000  0.83587000  0.17518000  1
  H  H75  1  0.73944000  0.79011000  0.15958000  1
  H  H76  1  0.46714000  0.92512000  0.32495000  1
  H  H77  1  0.46119000  0.15027000  0.15538000  1
  H  H78  1  0.46076000  0.03256000  0.14094000  1
  H  H79  1  0.37166000  0.02540000  0.33269000  1
  H  H80  1  0.38328000  0.14299000  0.34063000  1
  H  H81  1  0.44912000  0.93100000  0.18310000  1
  H  H82  1  0.15683000  0.79609000  0.10747000  1
  H  H83  1  0.24256000  0.80879000  0.20821000  1
  H  H84  1  0.28225000  0.99642000  0.14139000  1
  H  H85  1  0.19946000  0.97387000  0.04331000  1
  H  H86  1  0.27644000  0.94461000  0.27478000  1
  H  H87  1  0.16202000  0.80845000  0.41681000  1
  H  H88  1  0.20566000  0.85302000  0.31523000  1
  H  H89  1  0.51309000  0.80094000  0.36992000  1
  H  H90  1  0.45668000  0.76047000  0.46943000  1
  H  H91  1  0.42032000  0.81864000  0.23995000  1
  H  H92  1  0.63527000  0.22484000  0.18047000  1
  H  H93  1  0.81307000  0.17042000  0.17972000  1
  H  H94  1  0.78404000  0.13122000  0.37571000  1
  H  H95  1  0.60714000  0.18932000  0.36797000  1
  H  H96  1  0.93498000  0.08270000  0.32357000  1
  H  H97  1  0.95302000  0.87294000  0.13081000  1
  H  H98  1  0.94268000  0.99321000  0.12730000  1
  H  H99  1  0.01887000  0.98438000  0.32225000  1
  H  H100  1  0.01738000  0.86579000  0.31912000  1
  H  H101  1  0.93521000  0.09212000  0.18060000  1
  H  H102  1  0.15781000  0.11541000  0.02585000  1
  H  H103  1  0.07044000  0.06645000  0.10995000  1
  H  H104  1  0.18481000  0.19052000  0.23966000  1
  H  H105  1  0.27313000  0.22960000  0.15140000  1
  H  H106  1  0.11653000  0.06714000  0.26546000  1
  H  H107  1  0.26176000  0.17182000  0.41068000  1
  H  H108  1  0.19218000  0.12090000  0.32099000  1
  H  H109  1  0.90765000  0.24219000  0.36373000  1
  H  H110  1  0.98866000  0.28317000  0.45582000  1
  H  H111  1  0.97229000  0.19697000  0.24523000  1
  H  H112  1  0.31008000  0.34959000  0.16603000  1
  H  H113  1  0.13541000  0.40029000  0.14386000  1
  H  H114  1  0.05992000  0.33481000  0.32472000  1
  H  H115  1  0.23909000  0.28956000  0.34083000  1
  H  H116  1  0.96711000  0.42363000  0.17454000  1
  H  H117  1  0.95919000  0.64985000  0.34338000  1
  H  H118  1  0.95944000  0.53206000  0.35815000  1
  H  H119  1  0.87247000  0.52428000  0.16609000  1
  H  H120  1  0.88291000  0.64208000  0.15797000  1
  H  H121  1  0.94910000  0.43037000  0.31636000  1
  H  H122  1  0.65359000  0.29646000  0.39173000  1
  H  H123  1  0.74069000  0.30874000  0.29130000  1
  H  H124  1  0.78272000  0.49560000  0.35841000  1
  H  H125  1  0.69893000  0.47330000  0.45631000  1
  H  H126  1  0.77656000  0.44367000  0.22471000  1
  H  H127  1  0.66118000  0.31012000  0.08258000  1
  H  H128  1  0.70504000  0.35437000  0.18414000  1
  H  H129  1  0.01280000  0.29765000  0.13136000  1
  H  H130  1  0.95632000  0.25769000  0.03171000  1
  H  H131  1  0.91991000  0.31772000  0.26037000  1
  H  H132  1  0.86591000  0.27585000  0.67961000  1
  H  H133  1  0.68818000  0.33034000  0.67922000  1
  H  H134  1  0.71706000  0.36655000  0.87575000  1
  H  H135  1  0.89402000  0.30850000  0.86756000  1
  H  H136  1  0.56655000  0.41637000  0.82372000  1
  H  H137  1  0.54905000  0.62636000  0.63106000  1
  H  H138  1  0.55961000  0.50612000  0.62762000  1
  H  H139  1  0.48252000  0.51460000  0.82245000  1
  H  H140  1  0.48324000  0.63339000  0.81917000  1
  H  H141  1  0.56590000  0.40729000  0.68074000  1
  H  H142  1  0.34234000  0.38583000  0.52608000  1
  H  H143  1  0.42885000  0.43464000  0.61046000  1
  H  H144  1  0.31844000  0.30748000  0.73916000  1
  H  H145  1  0.22974000  0.26914000  0.65086000  1
  H  H146  1  0.38445000  0.43230000  0.76550000  1
  H  H147  1  0.23810000  0.32616000  0.90989000  1
  H  H148  1  0.30797000  0.37779000  0.82057000  1
  H  H149  1  0.59355000  0.25900000  0.86537000  1
  H  H150  1  0.51200000  0.21681000  0.95667000  1
  H  H151  1  0.52837000  0.30232000  0.74575000  1
  H  H152  1  0.19027000  0.14917000  0.66554000  1
  H  H153  1  0.36536000  0.09944000  0.64304000  1
  H  H154  1  0.44049000  0.16466000  0.82387000  1
  H  H155  1  0.26103000  0.20889000  0.84037000  1
  H  H156  1  0.53325000  0.07563000  0.67389000  1
  H  H157  1  0.53804000  0.85007000  0.84331000  1
  H  H158  1  0.53881000  0.96763000  0.85770000  1
  H  H159  1  0.62776000  0.97469000  0.66589000  1
  H  H160  1  0.61607000  0.85709000  0.65802000  1
  H  H161  1  0.55047000  0.06894000  0.81575000  1
  H  H162  1  0.84373000  0.20326000  0.89231000  1
  H  H163  1  0.75805000  0.19082000  0.79147000  1
  H  H164  1  0.71610000  0.00372000  0.85840000  1
  H  H165  1  0.79871000  0.02609000  0.95664000  1
  H  H166  1  0.72408000  0.05538000  0.72483000  1
  H  H167  1  0.84122000  0.18876000  0.58289000  1
  H  H168  1  0.79579000  0.14542000  0.68459000  1
  H  H169  1  0.48901000  0.20035000  0.62923000  1
  H  H170  1  0.54705000  0.23935000  0.52962000  1
  H  H171  1  0.58057000  0.18160000  0.75935000  1
  C  C172  1  0.32726000  0.79529000  0.77664000  1
  C  C173  1  0.22797000  0.82593000  0.77623000  1
  C  C174  1  0.18486000  0.85382000  0.72112000  1
  C  C175  1  0.24498000  0.84809000  0.66798000  1
  C  C176  1  0.34363000  0.81602000  0.67177000  1
  C  C177  1  0.07800000  0.88688000  0.71818000  1
  C  C178  1  0.03299000  0.09938000  0.82638000  1
  C  C179  1  0.03696000  0.03248000  0.82835000  1
  C  C180  1  0.01971000  0.99937000  0.77434000  1
  C  C181  1  0.99581000  0.03656000  0.72025000  1
  C  C182  1  0.99533000  0.10303000  0.72135000  1
  C  C183  1  0.02828000  0.92692000  0.77504000  1
  C  C184  1  0.83542000  0.87184000  0.92496000  1
  C  C185  1  0.88454000  0.89761000  0.87743000  1
  C  C186  1  0.87829000  0.87575000  0.81648000  1
  C  C187  1  0.82041000  0.82876000  0.80608000  1
  C  C188  1  0.77123000  0.80665000  0.85526000  1
  C  C189  1  0.93382000  0.89808000  0.76343000  1
  C  C190  1  0.81661000  0.81306000  0.60085000  1
  C  C191  1  0.85607000  0.84100000  0.65081000  1
  C  C192  1  0.95579000  0.81967000  0.66652000  1
  C  C193  1  0.01385000  0.77391000  0.62731000  1
  C  C194  1  0.96989000  0.74939000  0.57684000  1
  C  C195  1  0.99784000  0.84348000  0.72402000  1
  C  C196  1  0.74674000  0.65159000  0.80036000  1
  C  C197  1  0.84519000  0.62342000  0.81226000  1
  C  C198  1  0.91762000  0.62762000  0.76776000  1
  C  C199  1  0.88629000  0.65924000  0.71179000  1
  C  C200  1  0.78677000  0.68622000  0.70303000  1
  C  C201  1  0.02411000  0.59883000  0.77928000  1
  C  C202  1  0.05882000  0.37862000  0.69352000  1
  C  C203  1  0.05991000  0.44450000  0.68554000  1
  C  C204  1  0.08415000  0.48133000  0.73530000  1
  C  C205  1  0.10730000  0.44887000  0.79200000  1
  C  C206  1  0.10283000  0.38332000  0.79695000  1
  C  C207  1  0.08032000  0.55285000  0.72853000  1
  C  C208  1  0.31505000  0.66016000  0.61767000  1
  C  C209  1  0.26692000  0.65235000  0.67350000  1
  C  C210  1  0.22946000  0.59566000  0.68306000  1
  C  C211  1  0.24303000  0.54923000  0.63540000  1
  C  C212  1  0.29052000  0.56165000  0.58104000  1
  C  C213  1  0.17309000  0.58393000  0.74021000  1
  C  C214  1  0.25946000  0.69100000  0.90468000  1
  C  C215  1  0.23506000  0.66638000  0.84761000  1
  C  C216  1  0.13556000  0.66929000  0.83252000  1
  C  C217  1  0.06445000  0.69733000  0.87634000  1
  C  C218  1  0.09529000  0.72005000  0.93241000  1
  C  C219  1  0.10407000  0.64203000  0.77308000  1
  C  C220  1  0.17023000  0.70313000  0.27666000  1
  C  C221  1  0.26936000  0.67221000  0.27626000  1
  C  C222  1  0.31278000  0.64531000  0.22090000  1
  C  C223  1  0.25314000  0.65217000  0.16753000  1
  C  C224  1  0.15458000  0.68439000  0.17136000  1
  C  C225  1  0.41962000  0.61225000  0.21803000  1
  C  C226  1  0.46415000  0.40007000  0.32710000  1
  C  C227  1  0.45988000  0.46700000  0.32881000  1
  C  C228  1  0.47760000  0.49998000  0.27472000  1
  C  C229  1  0.50174000  0.46269000  0.22079000  1
  C  C230  1  0.50279000  0.39619000  0.22218000  1
  C  C231  1  0.46924000  0.57241000  0.27507000  1
  C  C232  1  0.66344000  0.62733000  0.42444000  1
  C  C233  1  0.61400000  0.60157000  0.37711000  1
  C  C234  1  0.61946000  0.62368000  0.31612000  1
  C  C235  1  0.67697000  0.67085000  0.30550000  1
  C  C236  1  0.72652000  0.69292000  0.35449000  1
  C  C237  1  0.56370000  0.60128000  0.26326000  1
  C  C238  1  0.68085000  0.68732000  0.10085000  1
  C  C239  1  0.64130000  0.65878000  0.15048000  1
  C  C240  1  0.54156000  0.67996000  0.16627000  1
  C  C241  1  0.48354000  0.72609000  0.12729000  1
  C  C242  1  0.52755000  0.75119000  0.07708000  1
  C  C243  1  0.49957000  0.65581000  0.22372000  1
  C  C244  1  0.75271000  0.84860000  0.29986000  1
  C  C245  1  0.65432000  0.87680000  0.31189000  1
  C  C246  1  0.58164000  0.87220000  0.26778000  1
  C  C247  1  0.61261000  0.84032000  0.21191000  1
  C  C248  1  0.71213000  0.81351000  0.20290000  1
  C  C249  1  0.47525000  0.90095000  0.27961000  1
  C  C250  1  0.44254000  0.12090000  0.19385000  1
  C  C251  1  0.44090000  0.05511000  0.18589000  1
  C  C252  1  0.41536000  0.01845000  0.23550000  1
  C  C253  1  0.39143000  0.05098000  0.29202000  1
  C  C254  1  0.39660000  0.11639000  0.29701000  1
  C  C255  1  0.41893000  0.94697000  0.22887000  1
  C  C256  1  0.18716000  0.83927000  0.11700000  1
  C  C257  1  0.23434000  0.84700000  0.17316000  1
  C  C258  1  0.27034000  0.90410000  0.18337000  1
  C  C259  1  0.25615000  0.95104000  0.13608000  1
  C  C260  1  0.20955000  0.93873000  0.08140000  1
  C  C261  1  0.32621000  0.91583000  0.24068000  1
  C  C262  1  0.23928000  0.80812000  0.40488000  1
  C  C263  1  0.26410000  0.83255000  0.34777000  1
  C  C264  1  0.36363000  0.83067000  0.33333333  1
  C  C265  1  0.43430000  0.80369000  0.37784000  1
  C  C266  1  0.40303000  0.78100000  0.43387000  1
  C  C267  1  0.39526000  0.85778000  0.27375000  1
  C  C268  1  0.67216000  0.20391000  0.22267000  1
  C  C269  1  0.77136000  0.17305000  0.22303000  1
  C  C270  1  0.81448000  0.14524000  0.27818000  1
  C  C271  1  0.75448000  0.15127000  0.33138000  1
  C  C272  1  0.65594000  0.18353000  0.32761000  1
  C  C273  1  0.92126000  0.11194000  0.28108000  1
  C  C274  1  0.96571000  0.89965000  0.17248000  1
  C  C275  1  0.96169000  0.96656000  0.17061000  1
  C  C276  1  0.97925000  0.99960000  0.22461000  1
  C  C277  1  0.00332000  0.96228000  0.27862000  1
  C  C278  1  0.00399000  0.89580000  0.27741000  1
  C  C279  1  0.97079000  0.07208000  0.22406000  1
  C  C280  1  0.16423000  0.12832000  0.07443000  1
  C  C281  1  0.11490000  0.10216000  0.12163000  1
  C  C282  1  0.12070000  0.12365000  0.18275000  1
  C  C283  1  0.17826000  0.17070000  0.19363000  1
  C  C284  1  0.22752000  0.19332000  0.14476000  1
  C  C285  1  0.06533000  0.10088000  0.23567000  1
  C  C286  1  0.18347000  0.18492000  0.39870000  1
  C  C287  1  0.14370000  0.15724000  0.34869000  1
  C  C288  1  0.04397000  0.17881000  0.33306000  1
  C  C289  1  0.98631000  0.22466000  0.37242000  1
  C  C290  1  0.03053000  0.24877000  0.42304000  1
  C  C291  1  0.00160000  0.15527000  0.27550000  1
  C  C292  1  0.25304000  0.34851000  0.20067000  1
  C  C293  1  0.15455000  0.37610000  0.18819000  1
  C  C294  1  0.08163000  0.37118000  0.23210000  1
  C  C295  1  0.11247000  0.33939000  0.28809000  1
  C  C296  1  0.21207000  0.31290000  0.29739000  1
  C  C297  1  0.97520000  0.39978000  0.22007000  1
  C  C298  1  0.94109000  0.62033000  0.30495000  1
  C  C299  1  0.93993000  0.55449000  0.31306000  1
  C  C300  1  0.91518000  0.51761000  0.26348000  1
  C  C301  1  0.89161000  0.55001000  0.20678000  1
  C  C302  1  0.89618000  0.61555000  0.20167000  1
  C  C303  1  0.91888000  0.44614000  0.27053000  1
  C  C304  1  0.68495000  0.33929000  0.38238000  1
  C  C305  1  0.73282000  0.34682000  0.32639000  1
  C  C306  1  0.76983000  0.40360000  0.31634000  1
  C  C307  1  0.75599000  0.45042000  0.36364000  1
  C  C308  1  0.70876000  0.43829000  0.41819000  1
  C  C309  1  0.82610000  0.41504000  0.25905000  1
  C  C310  1  0.73860000  0.30861000  0.09492000  1
  C  C311  1  0.76350000  0.33289000  0.15202000  1
  C  C312  1  0.86317000  0.32959000  0.16695000  1
  C  C313  1  0.93393000  0.30138000  0.12300000  1
  C  C314  1  0.90258000  0.27893000  0.06694000  1
  C  C315  1  0.89501000  0.35675000  0.22636000  1
  C  C316  1  0.82897000  0.29606000  0.72202000  1
  C  C317  1  0.72978000  0.32695000  0.72261000  1
  C  C318  1  0.68663000  0.35387000  0.77803000  1
  C  C319  1  0.74661000  0.34707000  0.83125000  1
  C  C320  1  0.84515000  0.31487000  0.82724000  1
  C  C321  1  0.57991000  0.38723000  0.78121000  1
  C  C322  1  0.53604000  0.59964000  0.67270000  1
  C  C323  1  0.54029000  0.53271000  0.67088000  1
  C  C324  1  0.52229000  0.49964000  0.72483000  1
  C  C325  1  0.49806000  0.53683000  0.77882000  1
  C  C326  1  0.49700000  0.60335000  0.77755000  1
  C  C327  1  0.53044000  0.42724000  0.72423000  1
  C  C328  1  0.33641000  0.37216000  0.57452000  1
  C  C329  1  0.38543000  0.39823000  0.62187000  1
  C  C330  1  0.38059000  0.37584000  0.68281000  1
  C  C331  1  0.32416000  0.32805000  0.69332000  1
  C  C332  1  0.27488000  0.30572000  0.64436000  1
  C  C333  1  0.43574000  0.39853000  0.73583000  1
  C  C334  1  0.31664000  0.31371000  0.89837000  1
  C  C335  1  0.35654000  0.34170000  0.84852000  1
  C  C336  1  0.45666000  0.32081000  0.83349000  1
  C  C337  1  0.51452000  0.27560000  0.87338000  1
  C  C338  1  0.47010000  0.25102000  0.92371000  1
  C  C339  1  0.49925000  0.34415000  0.77583000  1
  C  C340  1  0.24733000  0.15040000  0.70010000  1
  C  C341  1  0.34594000  0.12330000  0.68745000  1
  C  C342  1  0.41879000  0.12825000  0.73133000  1
  C  C343  1  0.38790000  0.15987000  0.78736000  1
  C  C344  1  0.28818000  0.18582000  0.79686000  1
  C  C345  1  0.52517000  0.09956000  0.71935000  1
  C  C346  1  0.55670000  0.87934000  0.80477000  1
  C  C347  1  0.55858000  0.94508000  0.81273000  1
  C  C348  1  0.58424000  0.98170000  0.76313000  1
  C  C349  1  0.60795000  0.94915000  0.70658000  1
  C  C350  1  0.60264000  0.88374000  0.70160000  1
  C  C351  1  0.58099000  0.05314000  0.77001000  1
  C  C352  1  0.81284000  0.16029000  0.88279000  1
  C  C353  1  0.76578000  0.15268000  0.82656000  1
  C  C354  1  0.72932000  0.09575000  0.81633000  1
  C  C355  1  0.74269000  0.04892000  0.86372000  1
  C  C356  1  0.78917000  0.06113000  0.91848000  1
  C  C357  1  0.67397000  0.08414000  0.75877000  1
  C  C358  1  0.76368000  0.18994000  0.59464000  1
  C  C359  1  0.73787000  0.16623000  0.65184000  1
  C  C360  1  0.63803000  0.16919000  0.66610000  1
  C  C361  1  0.56803000  0.19670000  0.62144000  1
  C  C362  1  0.60027000  0.21860000  0.56531000  1
  C  C363  1  0.60552000  0.14239000  0.72560000  1
  S  S364  1  0.54931000  0.73358000  0.91246000  1
  S  S365  1  0.60839000  0.72728000  0.56751000  1
  S  S366  1  0.94846000  0.76733000  0.41283000  1
  S  S367  1  0.89141000  0.77139000  0.06744000  1
  S  S368  1  0.44794000  0.26853000  0.08737000  1
  S  S369  1  0.39408000  0.27048000  0.43253000  1
  S  S370  1  0.05301000  0.23215000  0.58757000  1
  S  S371  1  0.10655000  0.22778000  0.93247000  1
  N  N372  1  0.38443000  0.79009000  0.72528000  1
  N  N373  1  0.01432000  0.13409000  0.77344000  1
  N  N374  1  0.77877000  0.82761000  0.91386000  1
  N  N375  1  0.87194000  0.76689000  0.56545000  1
  N  N376  1  0.71808000  0.68358000  0.74710000  1
  N  N377  1  0.07953000  0.34836000  0.74860000  1
  N  N378  1  0.32611000  0.61600000  0.57175000  1
  N  N379  1  0.19124000  0.71730000  0.94701000  1
  N  N380  1  0.11354000  0.70941000  0.22510000  1
  N  N381  1  0.48378000  0.36522000  0.27438000  1
  N  N382  1  0.71964000  0.67183000  0.41317000  1
  N  N383  1  0.62555000  0.73389000  0.06577000  1
  N  N384  1  0.78107000  0.81640000  0.24671000  1
  N  N385  1  0.42122000  0.15117000  0.24882000  1
  N  N386  1  0.17553000  0.88393000  0.07143000  1
  N  N387  1  0.30706000  0.78286000  0.44787000  1
  N  N388  1  0.61513000  0.20939000  0.27408000  1
  N  N389  1  0.98483000  0.86481000  0.22531000  1
  N  N390  1  0.22046000  0.17269000  0.08599000  1
  N  N391  1  0.12847000  0.23098000  0.43436000  1
  N  N392  1  0.28131000  0.31630000  0.25387000  1
  N  N393  1  0.91999000  0.65054000  0.24989000  1
  N  N394  1  0.67368000  0.38382000  0.42798000  1
  N  N395  1  0.80647000  0.28217000  0.05245000  1
  N  N396  1  0.88592000  0.28979000  0.77346000  1
  N  N397  1  0.51614000  0.63444000  0.72544000  1
  N  N398  1  0.28114000  0.32711000  0.58573000  1
  N  N399  1  0.37186000  0.26799000  0.93436000  1
  N  N400  1  0.21892000  0.18218000  0.75345000  1
  N  N401  1  0.57797000  0.84900000  0.74983000  1
  N  N402  1  0.82382000  0.11570000  0.92841000  1
  N  N403  1  0.69656000  0.21550000  0.55137000  1
  O  O404  1  0.52476000  0.73369000  0.84363000  1
  O  O405  1  0.48069000  0.70128000  0.94733000  1
  O  O406  1  0.65708000  0.69834000  0.92161000  1
  O  O407  1  0.54552000  0.80314000  0.93431000  1
  O  O408  1  0.59523000  0.75906000  0.63138000  1
  O  O409  1  0.51907000  0.70197000  0.55038000  1
  O  O410  1  0.70020000  0.67330000  0.56810000  1
  O  O411  1  0.62852000  0.77897000  0.52212000  1
  O  O412  1  0.97174000  0.76504000  0.34379000  1
  O  O413  1  0.01795000  0.79993000  0.44657000  1
  O  O414  1  0.84103000  0.80319000  0.42161000  1
  O  O415  1  0.95219000  0.69831000  0.43661000  1
  O  O416  1  0.90465000  0.73927000  0.13125000  1
  O  O417  1  0.98066000  0.79689000  0.05037000  1
  O  O418  1  0.79941000  0.82529000  0.06838000  1
  O  O419  1  0.87119000  0.72017000  0.02187000  1
  O  O420  1  0.47170000  0.26636000  0.15634000  1
  O  O421  1  0.51346000  0.30442000  0.05365000  1
  O  O422  1  0.33874000  0.30173000  0.07944000  1
  O  O423  1  0.45609000  0.19958000  0.06312000  1
  O  O424  1  0.40937000  0.23812000  0.36892000  1
  O  O425  1  0.48105000  0.29837000  0.44961000  1
  O  O426  1  0.30002000  0.32297000  0.43137000  1
  O  O427  1  0.37602000  0.21876000  0.47824000  1
  O  O428  1  0.02958000  0.23613000  0.65652000  1
  O  O429  1  0.98501000  0.19702000  0.55565000  1
  O  O430  1  0.16104000  0.19708000  0.57879000  1
  O  O431  1  0.04735000  0.30079000  0.56246000  1
  O  O432  1  0.09106000  0.26026000  0.86884000  1
  O  O433  1  0.01927000  0.20016000  0.94968000  1
  O  O434  1  0.20037000  0.17526000  0.93137000  1
  O  O435  1  0.12464000  0.27954000  0.97815000  1
