# generated using pymatgen
data_CuH4(C9O4)2
_symmetry_space_group_name_H-M   'P 1'
_cell_length_a   26.14461412
_cell_length_b   26.14461412
_cell_length_c   26.14461412
_cell_angle_alpha   109.47122063
_cell_angle_beta   109.47122063
_cell_angle_gamma   109.47122063
_symmetry_Int_Tables_number   1
_chemical_formula_structural   CuH4(C9O4)2
_chemical_formula_sum   'Cu6 H24 C108 O48'
_cell_volume   13757.03423516
_cell_formula_units_Z   6
loop_
 _symmetry_equiv_pos_site_id
 _symmetry_equiv_pos_as_xyz
  1  'x, y, z'
loop_
 _atom_site_type_symbol
 _atom_site_label
 _atom_site_symmetry_multiplicity
 _atom_site_fract_x
 _atom_site_fract_y
 _atom_site_fract_z
 _atom_site_occupancy
  C  C1  1  0.15663000  0.54296000  0.69497000  1.0
  C  C2  1  0.20426000  0.54510000  0.74452000  1.0
  C  C3  1  0.23262000  0.59162000  0.81440000  1.0
  C  C7  1  0.84337000  0.53834000  0.38633000  1.0
  C  C8  1  0.79574000  0.54026000  0.34084000  1.0
  C  C9  1  0.76738000  0.58178000  0.35900000  1.0
  C  C13  1  0.15201000  0.45704000  0.61367000  1.0
  C  C14  1  0.19942000  0.45490000  0.65916000  1.0
  C  C15  1  0.22278000  0.40838000  0.64100000  1.0
  C  C19  1  0.84799000  0.46166000  0.30503000  1.0
  C  C20  1  0.80058000  0.45974000  0.25548000  1.0
  C  C21  1  0.77722000  0.41822000  0.18560000  1.0
  C  C25  1  0.46166000  0.30503000  0.84799000  1.0
  C  C26  1  0.45974000  0.25548000  0.80058000  1.0
  C  C27  1  0.41822000  0.18560000  0.77722000  1.0
  C  C31  1  0.45704000  0.61367000  0.15201000  1.0
  C  C32  1  0.45490000  0.65916000  0.19942000  1.0
  C  C33  1  0.40838000  0.64100000  0.22278000  1.0
  C  C37  1  0.53834000  0.38633000  0.84337000  1.0
  C  C38  1  0.54026000  0.34084000  0.79574000  1.0
  C  C39  1  0.58178000  0.35900000  0.76738000  1.0
  C  C43  1  0.54296000  0.69497000  0.15663000  1.0
  C  C44  1  0.54510000  0.74452000  0.20426000  1.0
  C  C45  1  0.59162000  0.81440000  0.23262000  1.0
  C  C49  1  0.61367000  0.15201000  0.45704000  1.0
  C  C50  1  0.65916000  0.19942000  0.45490000  1.0
  C  C51  1  0.64100000  0.22278000  0.40838000  1.0
  C  C55  1  0.30503000  0.84799000  0.46166000  1.0
  C  C56  1  0.25548000  0.80058000  0.45974000  1.0
  C  C57  1  0.18560000  0.77722000  0.41822000  1.0
  C  C61  1  0.69497000  0.15663000  0.54296000  1.0
  C  C62  1  0.74452000  0.20426000  0.54510000  1.0
  C  C63  1  0.81440000  0.23262000  0.59162000  1.0
  C  C67  1  0.38633000  0.84337000  0.53834000  1.0
  C  C68  1  0.34084000  0.79574000  0.54026000  1.0
  C  C69  1  0.35900000  0.76738000  0.58178000  1.0
  C  C73  1  0.15663000  0.61367000  0.46166000  1.0
  C  C74  1  0.20426000  0.65916000  0.45974000  1.0
  C  C75  1  0.23262000  0.64100000  0.41822000  1.0
  C  C79  1  0.84337000  0.30503000  0.45704000  1.0
  C  C80  1  0.79574000  0.25548000  0.45490000  1.0
  C  C81  1  0.76738000  0.18560000  0.40838000  1.0
  C  C85  1  0.15201000  0.69497000  0.53834000  1.0
  C  C86  1  0.19942000  0.74452000  0.54026000  1.0
  C  C87  1  0.22278000  0.81440000  0.58178000  1.0
  C  C91  1  0.84799000  0.38633000  0.54296000  1.0
  C  C92  1  0.80058000  0.34084000  0.54510000  1.0
  C  C93  1  0.77722000  0.35900000  0.59162000  1.0
  C  C97  1  0.46166000  0.15663000  0.61367000  1.0
  C  C98  1  0.45974000  0.20426000  0.65916000  1.0
  C  C99  1  0.41822000  0.23262000  0.64100000  1.0
  C  C103  1  0.45704000  0.84337000  0.30503000  1.0
  C  C104  1  0.45490000  0.79574000  0.25548000  1.0
  C  C105  1  0.40838000  0.76738000  0.18560000  1.0
  C  C109  1  0.53834000  0.15201000  0.69497000  1.0
  C  C110  1  0.54026000  0.19942000  0.74452000  1.0
  C  C111  1  0.58178000  0.22278000  0.81440000  1.0
  C  C115  1  0.54296000  0.84799000  0.38633000  1.0
  C  C116  1  0.54510000  0.80058000  0.34084000  1.0
  C  C117  1  0.59162000  0.77722000  0.35900000  1.0
  C  C121  1  0.61367000  0.46166000  0.15663000  1.0
  C  C122  1  0.65916000  0.45974000  0.20426000  1.0
  C  C123  1  0.64100000  0.41822000  0.23262000  1.0
  C  C127  1  0.30503000  0.45704000  0.84337000  1.0
  C  C128  1  0.25548000  0.45490000  0.79574000  1.0
  C  C129  1  0.18560000  0.40838000  0.76738000  1.0
  C  C133  1  0.69497000  0.53834000  0.15201000  1.0
  C  C134  1  0.74452000  0.54026000  0.19942000  1.0
  C  C135  1  0.81440000  0.58178000  0.22278000  1.0
  C  C139  1  0.38633000  0.54296000  0.84799000  1.0
  C  C140  1  0.34084000  0.54510000  0.80058000  1.0
  C  C141  1  0.35900000  0.59162000  0.77722000  1.0
  C  C145  1  0.08272000  0.50000000  0.58272000  1.0
  C  C146  1  0.13269000  0.50000000  0.63269000  1.0
  C  C147  1  0.22317000  0.50000000  0.72317000  1.0
  C  C151  1  0.91728000  0.50000000  0.41728000  1.0
  C  C152  1  0.86731000  0.50000000  0.36731000  1.0
  C  C153  1  0.77683000  0.50000000  0.27683000  1.0
  C  C157  1  0.50000000  0.41728000  0.91728000  1.0
  C  C158  1  0.50000000  0.36731000  0.86731000  1.0
  C  C159  1  0.50000000  0.27683000  0.77683000  1.0
  C  C163  1  0.50000000  0.58272000  0.08272000  1.0
  C  C164  1  0.50000000  0.63269000  0.13269000  1.0
  C  C165  1  0.50000000  0.72317000  0.22317000  1.0
  C  C169  1  0.58272000  0.08272000  0.50000000  1.0
  C  C170  1  0.63269000  0.13269000  0.50000000  1.0
  C  C171  1  0.72317000  0.22317000  0.50000000  1.0
  C  C175  1  0.41728000  0.91728000  0.50000000  1.0
  C  C176  1  0.36731000  0.86731000  0.50000000  1.0
  C  C177  1  0.27683000  0.77683000  0.50000000  1.0
  C  C181  1  0.08272000  0.58272000  0.50000000  1.0
  C  C182  1  0.13269000  0.63269000  0.50000000  1.0
  C  C183  1  0.22317000  0.72317000  0.50000000  1.0
  C  C187  1  0.91728000  0.41728000  0.50000000  1.0
  C  C188  1  0.86731000  0.36731000  0.50000000  1.0
  C  C189  1  0.77683000  0.27683000  0.50000000  1.0
  C  C193  1  0.50000000  0.08272000  0.58272000  1.0
  C  C194  1  0.50000000  0.13269000  0.63269000  1.0
  C  C195  1  0.50000000  0.22317000  0.72317000  1.0
  C  C199  1  0.50000000  0.91728000  0.41728000  1.0
  C  C200  1  0.50000000  0.86731000  0.36731000  1.0
  C  C201  1  0.50000000  0.77683000  0.27683000  1.0
  C  C205  1  0.58272000  0.50000000  0.08272000  1.0
  C  C206  1  0.63269000  0.50000000  0.13269000  1.0
  C  C207  1  0.72317000  0.50000000  0.22317000  1.0
  C  C211  1  0.41728000  0.50000000  0.91728000  1.0
  C  C212  1  0.36731000  0.50000000  0.86731000  1.0
  C  C213  1  0.27683000  0.50000000  0.77683000  1.0
  Cu  Cu1  1  1.00000000  0.54327000  0.54327000  1.0
  Cu  Cu3  1  1.00000000  0.45673000  0.45673000  1.0
  Cu  Cu5  1  0.45673000  0.45673000  0.00000000  1.0
  Cu  Cu7  1  0.54327000  0.54327000  1.00000000  1.0
  Cu  Cu9  1  0.45673000  1.00000000  0.45673000  1.0
  Cu  Cu11  1  0.54327000  1.00000000  0.54327000  1.0
  H  H1  1  0.14170000  0.57050000  0.70460000  1.0
  H  H3  1  0.85830000  0.56290000  0.42880000  1.0
  H  H5  1  0.13410000  0.42950000  0.57120000  1.0
  H  H7  1  0.86590000  0.43710000  0.29540000  1.0
  H  H9  1  0.43710000  0.29540000  0.86590000  1.0
  H  H11  1  0.42950000  0.57120000  0.13410000  1.0
  H  H13  1  0.56290000  0.42880000  0.85830000  1.0
  H  H15  1  0.57050000  0.70460000  0.14170000  1.0
  H  H17  1  0.57120000  0.13410000  0.42950000  1.0
  H  H19  1  0.29540000  0.86590000  0.43710000  1.0
  H  H21  1  0.70460000  0.14170000  0.57050000  1.0
  H  H23  1  0.42880000  0.85830000  0.56290000  1.0
  H  H25  1  0.14170000  0.57120000  0.43710000  1.0
  H  H27  1  0.85830000  0.29540000  0.42950000  1.0
  H  H29  1  0.13410000  0.70460000  0.56290000  1.0
  H  H31  1  0.86590000  0.42880000  0.57050000  1.0
  H  H33  1  0.43710000  0.14170000  0.57120000  1.0
  H  H35  1  0.42950000  0.85830000  0.29540000  1.0
  H  H37  1  0.56290000  0.13410000  0.70460000  1.0
  H  H39  1  0.57050000  0.86590000  0.42880000  1.0
  H  H41  1  0.57120000  0.43710000  0.14170000  1.0
  H  H43  1  0.29540000  0.42950000  0.85830000  1.0
  H  H45  1  0.70460000  0.56290000  0.13410000  1.0
  H  H47  1  0.42880000  0.57050000  0.86590000  1.0
  O  O1  1  0.06384000  0.53837000  0.60043000  1.0
  O  O2  1  0.23189000  0.58740000  0.80991000  1.0
  O  O5  1  0.93616000  0.53659000  0.47453000  1.0
  O  O6  1  0.76811000  0.57802000  0.35551000  1.0
  O  O9  1  0.06206000  0.46163000  0.52547000  1.0
  O  O10  1  0.22251000  0.41260000  0.64449000  1.0
  O  O13  1  0.93794000  0.46341000  0.39957000  1.0
  O  O14  1  0.77749000  0.42198000  0.19009000  1.0
  O  O17  1  0.46341000  0.39957000  0.93794000  1.0
  O  O18  1  0.42198000  0.19009000  0.77749000  1.0
  O  O21  1  0.46163000  0.52547000  0.06206000  1.0
  O  O22  1  0.41260000  0.64449000  0.22251000  1.0
  O  O25  1  0.53659000  0.47453000  0.93616000  1.0
  O  O26  1  0.57802000  0.35551000  0.76811000  1.0
  O  O29  1  0.53837000  0.60043000  0.06384000  1.0
  O  O30  1  0.58740000  0.80991000  0.23189000  1.0
  O  O33  1  0.52547000  0.06206000  0.46163000  1.0
  O  O34  1  0.64449000  0.22251000  0.41260000  1.0
  O  O37  1  0.39957000  0.93794000  0.46341000  1.0
  O  O38  1  0.19009000  0.77749000  0.42198000  1.0
  O  O41  1  0.60043000  0.06384000  0.53837000  1.0
  O  O42  1  0.80991000  0.23189000  0.58740000  1.0
  O  O45  1  0.47453000  0.93616000  0.53659000  1.0
  O  O46  1  0.35551000  0.76811000  0.57802000  1.0
  O  O49  1  0.06384000  0.52547000  0.46341000  1.0
  O  O50  1  0.23189000  0.64449000  0.42198000  1.0
  O  O53  1  0.93616000  0.39957000  0.46163000  1.0
  O  O54  1  0.76811000  0.19009000  0.41260000  1.0
  O  O57  1  0.06206000  0.60043000  0.53659000  1.0
  O  O58  1  0.22251000  0.80991000  0.57802000  1.0
  O  O61  1  0.93794000  0.47453000  0.53837000  1.0
  O  O62  1  0.77749000  0.35551000  0.58740000  1.0
  O  O65  1  0.46341000  0.06384000  0.52547000  1.0
  O  O66  1  0.42198000  0.23189000  0.64449000  1.0
  O  O69  1  0.46163000  0.93616000  0.39957000  1.0
  O  O70  1  0.41260000  0.76811000  0.19009000  1.0
  O  O73  1  0.53659000  0.06206000  0.60043000  1.0
  O  O74  1  0.57802000  0.22251000  0.80991000  1.0
  O  O77  1  0.53837000  0.93794000  0.47453000  1.0
  O  O78  1  0.58740000  0.77749000  0.35551000  1.0
  O  O81  1  0.52547000  0.46341000  0.06384000  1.0
  O  O82  1  0.64449000  0.42198000  0.23189000  1.0
  O  O85  1  0.39957000  0.46163000  0.93616000  1.0
  O  O86  1  0.19009000  0.41260000  0.76811000  1.0
  O  O89  1  0.60043000  0.53659000  0.06206000  1.0
  O  O90  1  0.80991000  0.57802000  0.22251000  1.0
  O  O93  1  0.47453000  0.53837000  0.93794000  1.0
  O  O94  1  0.35551000  0.58740000  0.77749000  1.0
