# generated using pymatgen
data_H22C41N10
_symmetry_space_group_name_H-M   'P 1'
_cell_length_a   30.48670000
_cell_length_b   33.68210000
_cell_length_c   62.93790000
_cell_angle_alpha   90.00000000
_cell_angle_beta   90.00000000
_cell_angle_gamma   89.99970000
_symmetry_Int_Tables_number   1
_chemical_formula_structural   H22C41N10
_chemical_formula_sum   'H176 C328 N80'
_cell_volume   64628.16515508
_cell_formula_units_Z   8
loop_
 _symmetry_equiv_pos_site_id
 _symmetry_equiv_pos_as_xyz
  1  'x, y, z'
loop_
 _atom_site_type_symbol
 _atom_site_label
 _atom_site_symmetry_multiplicity
 _atom_site_fract_x
 _atom_site_fract_y
 _atom_site_fract_z
 _atom_site_occupancy
  H  25  1  0.91311300  0.60955000  0.83911800  1
  H  26  1  0.94550900  0.67209100  0.83126100  1
  H  27  1  0.94485000  0.81799600  0.83114500  1
  H  28  1  0.91254100  0.88015900  0.83926800  1
  H  29  1  0.80213500  0.82173600  0.86451000  1
  H  30  1  0.80249300  0.66790500  0.86420800  1
  H  31  1  0.81739100  0.74432000  0.81458700  1
  H  32  1  0.67932100  0.74481500  0.81230200  1
  H  33  1  0.67649500  0.74535800  0.84980300  1
  H  34  1  0.89085200  0.74499200  0.88895400  1
  H  35  1  0.74624100  0.74509400  0.92033600  1
  H  36  1  0.80885200  0.74511500  0.94273400  1
  H  39  1  0.94733800  0.74521800  0.84619500  1
  H  40  1  0.92235800  0.74491700  0.82072000  1
  H  42  1  0.72146100  0.77142300  0.88267000  1
  H  43  1  0.72134200  0.71874200  0.88265100  1
  H  47  1  0.80215000  0.59695700  0.85938800  1
  H  48  1  0.80505100  0.89412100  0.86420700  1
  H  49  1  0.92322700  0.74510000  0.92424800  1
  H  51  1  0.77871100  0.73962900  0.77979700  1
  H  76  1  0.91314300  0.88060700  0.15104200  1
  H  77  1  0.94551800  0.81806100  0.15890400  1
  H  78  1  0.94485900  0.67220100  0.15902100  1
  H  79  1  0.91256700  0.61003100  0.15089100  1
  H  80  1  0.80205800  0.66844500  0.12574600  1
  H  81  1  0.80241800  0.82226900  0.12604900  1
  H  82  1  0.81758200  0.74584500  0.17578200  1
  H  83  1  0.67943100  0.74535100  0.17837500  1
  H  84  1  0.67624300  0.74480900  0.14092700  1
  H  85  1  0.88989000  0.74518700  0.10044100  1
  H  86  1  0.74351800  0.74508200  0.07077200  1
  H  87  1  0.80437000  0.74505500  0.04786300  1
  H  90  1  0.94733200  0.74495800  0.14399100  1
  H  91  1  0.92234100  0.74525700  0.16946300  1
  H  93  1  0.72057600  0.71872800  0.10819300  1
  H  94  1  0.72045900  0.77146100  0.10821600  1
  H  98  1  0.80216300  0.89320200  0.13076300  1
  H  99  1  0.80502700  0.59609000  0.12598900  1
  H  100  1  0.92002600  0.74508200  0.06348100  1
  H  102  1  0.77908200  0.75054500  0.21062500  1
  H  127  1  0.89133400  0.11004500  0.15088600  1
  H  128  1  0.85902100  0.17219700  0.15901800  1
  H  129  1  0.85831600  0.31810800  0.15891600  1
  H  130  1  0.89071600  0.38065800  0.15107200  1
  H  131  1  0.00130900  0.32232200  0.12594700  1
  H  132  1  0.00176500  0.16849600  0.12568100  1
  H  133  1  0.98646100  0.24491200  0.17559000  1
  H  134  1  0.12453000  0.24467200  0.17787200  1
  H  135  1  0.12735400  0.24530500  0.14037100  1
  H  136  1  0.91299300  0.24518500  0.10122100  1
  H  137  1  0.05760600  0.24507000  0.06984000  1
  H  138  1  0.99500000  0.24500700  0.04744300  1
  H  141  1  0.85651100  0.24496600  0.14397800  1
  H  142  1  0.88149000  0.24528300  0.16945400  1
  H  144  1  0.08253500  0.27154100  0.10744800  1
  H  145  1  0.08235700  0.21886100  0.10758200  1
  H  149  1  0.99882600  0.09608100  0.12595900  1
  H  150  1  0.00171600  0.39323200  0.13083800  1
  H  151  1  0.88061800  0.24506100  0.06591500  1
  H  153  1  0.02513600  0.23961100  0.21036200  1
  H  178  1  0.89130600  0.38010200  0.83929900  1
  H  179  1  0.85901600  0.31794500  0.83116000  1
  H  180  1  0.85830700  0.17208400  0.83126700  1
  H  181  1  0.89068800  0.10952600  0.83911600  1
  H  182  1  0.00138400  0.16784600  0.86414300  1
  H  183  1  0.00184700  0.32167200  0.86440800  1
  H  184  1  0.98627200  0.24525600  0.81438800  1
  H  185  1  0.12442200  0.24549200  0.81179700  1
  H  186  1  0.12761000  0.24485900  0.84924700  1
  H  187  1  0.91396100  0.24498300  0.88973300  1
  H  188  1  0.06033100  0.24510600  0.91940100  1
  H  189  1  0.99947900  0.24517500  0.94231100  1
  H  192  1  0.85651900  0.24520300  0.84618400  1
  H  193  1  0.88151100  0.24488500  0.82071200  1
  H  195  1  0.08342400  0.21860500  0.88203700  1
  H  196  1  0.08324000  0.27133600  0.88189900  1
  H  200  1  0.99881300  0.39407000  0.86421100  1
  H  201  1  0.00171900  0.09697100  0.85933900  1
  H  202  1  0.88382400  0.24511400  0.92669200  1
  H  204  1  0.02476500  0.25058400  0.77956500  1
  H  229  1  0.41315700  0.10950700  0.33911000  1
  H  230  1  0.44555800  0.17205400  0.33125600  1
  H  231  1  0.44485300  0.31798900  0.33114800  1
  H  232  1  0.41252400  0.38013700  0.33927500  1
  H  233  1  0.30211600  0.32167400  0.36449500  1
  H  234  1  0.30257500  0.16786200  0.36423000  1
  H  235  1  0.31759100  0.24545500  0.31453000  1
  H  236  1  0.17958000  0.24570800  0.31210900  1
  H  237  1  0.17661200  0.24485300  0.34962200  1
  H  238  1  0.39085300  0.24498600  0.38895300  1
  H  239  1  0.24620900  0.24508100  0.42028900  1
  H  240  1  0.30880400  0.24514900  0.44270900  1
  H  243  1  0.44738200  0.24520500  0.34619200  1
  H  244  1  0.42238400  0.24489700  0.32072100  1
  H  246  1  0.22149400  0.27128200  0.38250400  1
  H  247  1  0.22133600  0.21861100  0.38262300  1
  H  251  1  0.30218100  0.09697000  0.35941100  1
  H  252  1  0.30502800  0.39409200  0.36419700  1
  H  253  1  0.42320800  0.24510700  0.42424800  1
  H  255  1  0.27907600  0.25079600  0.27966900  1
  H  280  1  0.41317700  0.38063900  0.65106100  1
  H  281  1  0.44556500  0.31808900  0.65891300  1
  H  282  1  0.44486000  0.17221400  0.65902100  1
  H  283  1  0.41256000  0.11006000  0.65089100  1
  H  284  1  0.30203700  0.16849500  0.62576700  1
  H  285  1  0.30248600  0.32230900  0.62603400  1
  H  286  1  0.31778100  0.24472500  0.67583700  1
  H  287  1  0.17968800  0.24447600  0.67856600  1
  H  288  1  0.17635900  0.24532500  0.64110600  1
  H  289  1  0.38988800  0.24519400  0.60044100  1
  H  290  1  0.24349000  0.24509300  0.57082100  1
  H  291  1  0.30432300  0.24502500  0.54788600  1
  H  294  1  0.44737200  0.24496800  0.64399500  1
  H  295  1  0.42236100  0.24528000  0.66946300  1
  H  297  1  0.22061100  0.21887200  0.60836100  1
  H  298  1  0.22045000  0.27159700  0.60823700  1
  H  302  1  0.30216500  0.39322200  0.63083900  1
  H  303  1  0.30505800  0.09608500  0.62598200  1
  H  304  1  0.42000300  0.24508100  0.56348200  1
  H  306  1  0.27943000  0.23936000  0.71075400  1
  H  331  1  0.39132200  0.61001600  0.65090200  1
  H  332  1  0.35899600  0.67217400  0.65902600  1
  H  333  1  0.35833700  0.81810800  0.65891400  1
  H  334  1  0.39075400  0.88064700  0.65106900  1
  H  335  1  0.50135000  0.82228000  0.62596600  1
  H  336  1  0.50171700  0.66846500  0.62566700  1
  H  337  1  0.48627400  0.74605200  0.67563900  1
  H  338  1  0.62428500  0.74555700  0.67806800  1
  H  339  1  0.62726100  0.74479500  0.64055500  1
  H  340  1  0.41302000  0.74518400  0.60121900  1
  H  341  1  0.55766300  0.74505700  0.56988400  1
  H  342  1  0.49506800  0.74503800  0.54746200  1
  H  345  1  0.35649000  0.74496300  0.64398100  1
  H  346  1  0.38149100  0.74527100  0.66945200  1
  H  348  1  0.58253000  0.77140100  0.60761000  1
  H  349  1  0.58238800  0.71872800  0.60760800  1
  H  353  1  0.49883100  0.59608200  0.62597100  1
  H  354  1  0.50175300  0.89319900  0.63083900  1
  H  355  1  0.38066500  0.74506800  0.56592700  1
  H  357  1  0.52478600  0.75075800  0.71051800  1
  H  382  1  0.39128900  0.88015300  0.33928800  1
  H  383  1  0.35898900  0.81798900  0.33115500  1
  H  384  1  0.35833700  0.67210800  0.33126100  1
  H  385  1  0.39072800  0.60956800  0.33911500  1
  H  386  1  0.50143200  0.66791200  0.36412400  1
  H  387  1  0.50179300  0.82172200  0.36442400  1
  H  388  1  0.48608400  0.74414300  0.31434000  1
  H  389  1  0.62417700  0.74462800  0.31160700  1
  H  390  1  0.62751000  0.74538600  0.34906600  1
  H  391  1  0.41398400  0.74499300  0.38973500  1
  H  392  1  0.56038500  0.74511600  0.41935400  1
  H  393  1  0.49954900  0.74514100  0.44229000  1
  H  396  1  0.35650000  0.74522400  0.34617900  1
  H  397  1  0.38151100  0.74491700  0.32071100  1
  H  399  1  0.58341200  0.71875100  0.38187100  1
  H  400  1  0.58327400  0.77147500  0.38187900  1
  H  404  1  0.49882100  0.89408200  0.36420000  1
  H  405  1  0.50173000  0.59695800  0.35932500  1
  H  406  1  0.38386900  0.74511000  0.42669300  1
  H  408  1  0.52443500  0.73939200  0.27940500  1
  H  415  1  0.82095200  0.74508300  0.01042700  1
  H  426  1  0.98289300  0.24508400  0.97974300  1
  H  437  1  0.32095700  0.24508400  0.51042800  1
  H  448  1  0.48291900  0.74508500  0.47974700  1
  H  459  1  0.96356900  0.99751400  0.83268700  1
  H  470  1  0.96355600  0.49269900  0.15751700  1
  H  481  1  0.84028400  0.99271400  0.15749100  1
  H  492  1  0.84029400  0.49746200  0.83266500  1
  H  503  1  0.46357300  0.49748700  0.33266200  1
  H  514  1  0.46358600  0.99266300  0.65748100  1
  H  525  1  0.34031600  0.49269300  0.65751500  1
  H  536  1  0.34029600  0.99744800  0.33268000  1
  H  547  1  0.71837900  0.71236100  0.73595700  1
  H  558  1  0.71827800  0.77784600  0.25437100  1
  H  569  1  0.08547400  0.21235900  0.25421700  1
  H  580  1  0.08558200  0.27784700  0.73580000  1
  C  1  1  0.82305700  0.74490700  0.88185500  1
  C  2  1  0.78088700  0.74496800  0.89115900  1
  C  3  1  0.74518100  0.74507100  0.85489500  1
  C  4  1  0.78655300  0.74482400  0.84474800  1
  C  5  1  0.78759200  0.74464300  0.82206700  1
  C  6  1  0.74891500  0.74458400  0.80948000  1
  C  7  1  0.70842000  0.74505500  0.82038800  1
  C  8  1  0.70659300  0.74528900  0.84260000  1
  C  9  1  0.77666100  0.74503900  0.91346200  1
  C  10  1  0.81369700  0.74506200  0.92666700  1
  C  11  1  0.85645200  0.74504500  0.91806800  1
  C  12  1  0.86021100  0.74498500  0.89560100  1
  C  13  1  0.85160500  0.70657400  0.85272000  1
  C  14  1  0.89350600  0.70743600  0.84314800  1
  C  15  1  0.89301200  0.78244600  0.84299000  1
  C  16  1  0.85115700  0.78322400  0.85262000  1
  C  17  1  0.91454600  0.81831800  0.83813700  1
  C  18  1  0.89542600  0.85501400  0.84297800  1
  C  19  1  0.85397700  0.85721600  0.85285600  1
  C  20  1  0.83226000  0.82090700  0.85734100  1
  C  21  1  0.83296700  0.66882500  0.85738800  1
  C  22  1  0.85490900  0.63258100  0.85291600  1
  C  23  1  0.89641600  0.63476300  0.84317600  1
  C  24  1  0.91536100  0.67161300  0.83840400  1
  C  37  1  0.82801600  0.74483800  0.85794900  1
  C  38  1  0.91590400  0.74501100  0.83781300  1
  C  41  1  0.74034000  0.74505200  0.87827700  1
  C  44  1  0.83535100  0.89364500  0.85845800  1
  C  45  1  0.89382300  0.74508400  0.93100500  1
  C  46  1  0.83417200  0.59633600  0.85657100  1
  C  50  1  0.75019500  0.74271900  0.78721400  1
  C  52  1  0.82232800  0.74527000  0.10839500  1
  C  53  1  0.77975100  0.74520900  0.09949800  1
  C  54  1  0.74493700  0.74509900  0.13574600  1
  C  55  1  0.78652400  0.74534600  0.14568900  1
  C  56  1  0.78772700  0.74551700  0.16835900  1
  C  57  1  0.74911100  0.74557800  0.18100500  1
  C  58  1  0.70846600  0.74510000  0.17023600  1
  C  59  1  0.70641800  0.74488000  0.14806500  1
  C  60  1  0.77425400  0.74513700  0.07732600  1
  C  61  1  0.81050000  0.74511100  0.06379600  1
  C  62  1  0.85379900  0.74512900  0.07178100  1
  C  63  1  0.85888600  0.74519200  0.09421100  1
  C  64  1  0.85157200  0.78357400  0.13745700  1
  C  65  1  0.89348900  0.78272500  0.14702400  1
  C  66  1  0.89299800  0.70774400  0.14718100  1
  C  67  1  0.85112700  0.70698000  0.13755700  1
  C  68  1  0.91454800  0.67187400  0.15203500  1
  C  69  1  0.89543500  0.63517500  0.14719500  1
  C  70  1  0.85396200  0.63297800  0.13734300  1
  C  71  1  0.83221500  0.66928600  0.13288300  1
  C  72  1  0.83292700  0.82133800  0.13283200  1
  C  73  1  0.85489600  0.85758200  0.13728400  1
  C  74  1  0.89642000  0.85539900  0.14700500  1
  C  75  1  0.91535600  0.81854300  0.15177500  1
  C  88  1  0.82784900  0.74533800  0.13230100  1
  C  89  1  0.91589300  0.74516500  0.15236900  1
  C  92  1  0.73953700  0.74512300  0.11248700  1
  C  95  1  0.83533200  0.59655300  0.13173400  1
  C  96  1  0.88963700  0.74509200  0.05784400  1
  C  97  1  0.83417300  0.89383100  0.13361200  1
  C  101  1  0.75053900  0.74743700  0.20323800  1
  C  103  1  0.98079100  0.24531800  0.10832100  1
  C  104  1  0.02296100  0.24527000  0.09901600  1
  C  105  1  0.05866800  0.24551900  0.13528000  1
  C  106  1  0.01729600  0.24555800  0.14542900  1
  C  107  1  0.01626000  0.24523400  0.16811000  1
  C  108  1  0.05493900  0.24484800  0.18069500  1
  C  109  1  0.09543200  0.24516200  0.16978800  1
  C  110  1  0.09725900  0.24545600  0.14757500  1
  C  111  1  0.02718600  0.24512400  0.07671500  1
  C  112  1  0.99015100  0.24508100  0.06351000  1
  C  113  1  0.94739500  0.24511400  0.07210900  1
  C  114  1  0.94363400  0.24519400  0.09457500  1
  C  115  1  0.95272000  0.20699600  0.13755900  1
  C  116  1  0.91086000  0.20776200  0.14718600  1
  C  117  1  0.91032000  0.28277200  0.14702400  1
  C  118  1  0.95221700  0.28364700  0.13745100  1
  C  119  1  0.88845900  0.31859200  0.15177100  1
  C  120  1  0.90740000  0.35544800  0.14700000  1
  C  121  1  0.94890500  0.35763300  0.13726000  1
  C  122  1  0.97083800  0.32139700  0.13277200  1
  C  123  1  0.97164300  0.16931700  0.13285300  1
  C  124  1  0.94991500  0.13299800  0.13731600  1
  C  125  1  0.90845900  0.13519200  0.14718900  1
  C  126  1  0.88933700  0.17188200  0.15203800  1
  C  139  1  0.97583300  0.24540500  0.13222700  1
  C  140  1  0.88794500  0.24518800  0.15235900  1
  C  143  1  0.06350700  0.24529300  0.11189900  1
  C  146  1  0.96968100  0.39386000  0.13362000  1
  C  147  1  0.91003100  0.24507200  0.05916600  1
  C  148  1  0.96852100  0.09656000  0.13170400  1
  C  152  1  0.05365300  0.24278100  0.20295700  1
  C  154  1  0.98152200  0.24484900  0.88177700  1
  C  155  1  0.02409900  0.24490100  0.89067600  1
  C  156  1  0.05891400  0.24464300  0.85442600  1
  C  157  1  0.01732600  0.24460500  0.84448300  1
  C  158  1  0.01612500  0.24491900  0.82181300  1
  C  159  1  0.05474200  0.24531100  0.80916900  1
  C  160  1  0.09538900  0.24499600  0.81993700  1
  C  161  1  0.09743600  0.24469600  0.84210900  1
  C  162  1  0.02959700  0.24505000  0.91284600  1
  C  163  1  0.99335000  0.24509900  0.92637800  1
  C  164  1  0.95005100  0.24506300  0.91839100  1
  C  165  1  0.94496500  0.24497400  0.89596100  1
  C  166  1  0.95275600  0.28314600  0.85261100  1
  C  167  1  0.91087800  0.28239200  0.84299100  1
  C  168  1  0.91033600  0.20741100  0.84315500  1
  C  169  1  0.95224900  0.20654700  0.85272300  1
  C  170  1  0.88846200  0.17159400  0.83840300  1
  C  171  1  0.90739900  0.13473500  0.84316500  1
  C  172  1  0.94892000  0.13254700  0.85288700  1
  C  173  1  0.97087700  0.16878200  0.85735700  1
  C  174  1  0.97168500  0.32083900  0.85727600  1
  C  175  1  0.94992400  0.35715500  0.85283400  1
  C  176  1  0.90845000  0.35495800  0.84298100  1
  C  177  1  0.88933600  0.31826600  0.83813900  1
  C  190  1  0.97600300  0.24476300  0.85787200  1
  C  191  1  0.88795800  0.24498000  0.83780700  1
  C  194  1  0.06431400  0.24487700  0.87768600  1
  C  197  1  0.96969700  0.09631700  0.85653200  1
  C  198  1  0.91421300  0.24510200  0.93232900  1
  C  199  1  0.96852400  0.39359600  0.85845000  1
  C  203  1  0.05330900  0.24737700  0.78693900  1
  C  205  1  0.32306600  0.24484900  0.38183300  1
  C  206  1  0.28088000  0.24489100  0.39111700  1
  C  207  1  0.24525800  0.24466900  0.35479400  1
  C  208  1  0.28665000  0.24465400  0.34467000  1
  C  209  1  0.28775800  0.24509900  0.32197600  1
  C  210  1  0.24914500  0.24564000  0.30932400  1
  C  211  1  0.20864200  0.24518600  0.32022000  1
  C  212  1  0.20673300  0.24474900  0.34244400  1
  C  213  1  0.27663900  0.24503100  0.41342300  1
  C  214  1  0.31366500  0.24507800  0.42664400  1
  C  215  1  0.35643100  0.24505100  0.41805900  1
  C  216  1  0.36020600  0.24497400  0.39559300  1
  C  217  1  0.35166500  0.20652600  0.35271700  1
  C  218  1  0.39356900  0.20739900  0.34315100  1
  C  219  1  0.39303700  0.28241800  0.34299600  1
  C  220  1  0.35118000  0.28318400  0.35262200  1
  C  221  1  0.41455100  0.31829700  0.33814100  1
  C  222  1  0.39541200  0.35498800  0.34297900  1
  C  223  1  0.35396100  0.35717900  0.35285500  1
  C  224  1  0.33224700  0.32086000  0.35732800  1
  C  225  1  0.33304400  0.16877900  0.35740300  1
  C  226  1  0.35497500  0.13253500  0.35292700  1
  C  227  1  0.39646800  0.13471700  0.34317400  1
  C  228  1  0.41541700  0.17157300  0.33840100  1
  C  241  1  0.32805500  0.24477500  0.35792500  1
  C  242  1  0.41594200  0.24498600  0.33781500  1
  C  245  1  0.24036700  0.24486200  0.37819100  1
  C  248  1  0.33533700  0.39361700  0.35845600  1
  C  249  1  0.39380100  0.24509600  0.43100400  1
  C  250  1  0.33419800  0.09630800  0.35658100  1
  C  254  1  0.25046700  0.24789300  0.28702500  1
  C  256  1  0.32233400  0.24532500  0.60841700  1
  C  257  1  0.27974200  0.24528600  0.59953800  1
  C  258  1  0.24501200  0.24552100  0.63584600  1
  C  259  1  0.28662000  0.24552700  0.64576500  1
  C  260  1  0.28789300  0.24509000  0.66844800  1
  C  261  1  0.24934200  0.24458000  0.68116000  1
  C  262  1  0.20868800  0.24501600  0.67039900  1
  C  263  1  0.20655900  0.24545000  0.64821700  1
  C  264  1  0.27423100  0.24514400  0.57736400  1
  C  265  1  0.31046700  0.24509600  0.56381700  1
  C  266  1  0.35377700  0.24512500  0.57179000  1
  C  267  1  0.35887800  0.24520600  0.59422000  1
  C  268  1  0.35163200  0.28361500  0.63745700  1
  C  269  1  0.39354900  0.28275600  0.64701900  1
  C  270  1  0.39301700  0.20777000  0.64717600  1
  C  271  1  0.35114300  0.20701600  0.63755500  1
  C  272  1  0.41454800  0.17189600  0.65203600  1
  C  273  1  0.39542500  0.13520400  0.64719800  1
  C  274  1  0.35395500  0.13301000  0.63734200  1
  C  275  1  0.33220400  0.16932600  0.63289000  1
  C  276  1  0.33299800  0.32137400  0.63281700  1
  C  277  1  0.35495500  0.35761200  0.63727600  1
  C  278  1  0.39648500  0.35543000  0.64699500  1
  C  279  1  0.41541700  0.31857400  0.65176800  1
  C  292  1  0.32788400  0.24539600  0.63232300  1
  C  293  1  0.41592900  0.24518500  0.65236700  1
  C  296  1  0.23956400  0.24531900  0.61257200  1
  C  299  1  0.33535600  0.09656600  0.63173200  1
  C  300  1  0.38961300  0.24508700  0.55784800  1
  C  301  1  0.33419500  0.39384800  0.63363200  1
  C  305  1  0.25080500  0.24230800  0.70342300  1
  C  307  1  0.48081000  0.74527000  0.60833900  1
  C  308  1  0.52299500  0.74519400  0.59905500  1
  C  309  1  0.55861400  0.74512000  0.63537700  1
  C  310  1  0.51721900  0.74539800  0.64550000  1
  C  311  1  0.51610700  0.74569400  0.66819300  1
  C  312  1  0.55471700  0.74590200  0.68084900  1
  C  313  1  0.59522400  0.74530100  0.66995400  1
  C  314  1  0.59713300  0.74492800  0.64772900  1
  C  315  1  0.52723300  0.74511600  0.57674800  1
  C  316  1  0.49021100  0.74509600  0.56352800  1
  C  317  1  0.44744100  0.74511900  0.57211300  1
  C  318  1  0.44366900  0.74518500  0.59458000  1
  C  319  1  0.45268300  0.70696300  0.63756000  1
  C  320  1  0.41082200  0.70773600  0.64718100  1
  C  321  1  0.41032000  0.78275600  0.64701500  1
  C  322  1  0.45221700  0.78362000  0.63744400  1
  C  323  1  0.38848100  0.81858300  0.65176900  1
  C  324  1  0.40744000  0.85543400  0.64700400  1
  C  325  1  0.44893700  0.85761600  0.63725700  1
  C  326  1  0.47086800  0.82136800  0.63278100  1
  C  327  1  0.47159300  0.66928400  0.63283800  1
  C  328  1  0.44988200  0.63297100  0.63731500  1
  C  329  1  0.40843100  0.63516300  0.64719200  1
  C  330  1  0.38929800  0.67185900  0.65203100  1
  C  343  1  0.47581700  0.74535400  0.63224500  1
  C  344  1  0.38793300  0.74517500  0.65235700  1
  C  347  1  0.56350800  0.74510500  0.61198100  1
  C  350  1  0.46972300  0.89385100  0.63362900  1
  C  351  1  0.41007100  0.74508200  0.55917000  1
  C  352  1  0.46852600  0.59654800  0.63171300  1
  C  356  1  0.55339600  0.74795000  0.70315300  1
  C  358  1  0.48153800  0.74491200  0.38175800  1
  C  359  1  0.52413000  0.74498300  0.39063700  1
  C  360  1  0.55885700  0.74506900  0.35433000  1
  C  361  1  0.51724900  0.74479400  0.34441200  1
  C  362  1  0.51596900  0.74450100  0.32172900  1
  C  363  1  0.55452100  0.74430200  0.30901500  1
  C  364  1  0.59517800  0.74489500  0.31977500  1
  C  365  1  0.59730600  0.74526000  0.34195700  1
  C  366  1  0.52964100  0.74505700  0.41281100  1
  C  367  1  0.49340900  0.74508100  0.42635800  1
  C  368  1  0.45009800  0.74506000  0.41838500  1
  C  369  1  0.44499400  0.74499300  0.39595500  1
  C  370  1  0.45271600  0.78319700  0.35261200  1
  C  371  1  0.41083800  0.78243600  0.34299600  1
  C  372  1  0.41033600  0.70745000  0.34316000  1
  C  373  1  0.45225300  0.70659800  0.35272700  1
  C  374  1  0.38848400  0.67163000  0.33840500  1
  C  375  1  0.40743000  0.63477700  0.34317300  1
  C  376  1  0.44895000  0.63259700  0.35289800  1
  C  377  1  0.47091400  0.66883900  0.35735000  1
  C  378  1  0.47162900  0.82088700  0.35729600  1
  C  379  1  0.44988500  0.85720000  0.35284100  1
  C  380  1  0.40841800  0.85500600  0.34298200  1
  C  381  1  0.38929800  0.81830900  0.33814200  1
  C  394  1  0.47598800  0.74483400  0.35785200  1
  C  395  1  0.38794300  0.74501300  0.33780700  1
  C  398  1  0.56430800  0.74507500  0.37760400  1
  C  401  1  0.46969700  0.59635000  0.35653500  1
  C  402  1  0.41425900  0.74509700  0.43232700  1
  C  403  1  0.46851600  0.89362400  0.35845300  1
  C  407  1  0.55305800  0.74225200  0.28674600  1
  C  409  1  0.89493200  0.74508900  0.97241200  1
  C  411  1  0.85164400  0.74508400  0.00397200  1
  C  412  1  0.88948500  0.74508500  0.01676500  1
  C  414  1  0.93322700  0.74509100  0.98519100  1
  C  416  1  0.97249900  0.74509100  0.97741800  1
  C  420  1  0.90892200  0.24507800  0.01776100  1
  C  422  1  0.95220200  0.24508700  0.98620000  1
  C  423  1  0.91435800  0.24509900  0.97340700  1
  C  425  1  0.87062200  0.24508700  0.00498500  1
  C  427  1  0.83135000  0.24509100  0.01276000  1
  C  431  1  0.39493600  0.24509300  0.47241100  1
  C  433  1  0.35164900  0.24508700  0.50397100  1
  C  434  1  0.38948800  0.24508700  0.51676800  1
  C  436  1  0.43323200  0.24509200  0.48519100  1
  C  438  1  0.47250500  0.24509500  0.47741800  1
  C  442  1  0.40893600  0.74508300  0.51776200  1
  C  444  1  0.45222700  0.74508800  0.48620300  1
  C  445  1  0.41438700  0.74509800  0.47340800  1
  C  447  1  0.37064000  0.74509100  0.50498300  1
  C  449  1  0.33136800  0.74509200  0.51275400  1
  C  453  1  0.87590700  0.96174300  0.85667000  1
  C  455  1  0.93637200  0.99783700  0.84216400  1
  C  456  1  0.92527800  0.03166800  0.85418700  1
  C  458  1  0.86479300  0.99565900  0.86883100  1
  C  460  1  0.83338000  0.99617800  0.88261900  1
  C  464  1  0.87592700  0.52846900  0.13349300  1
  C  466  1  0.93640000  0.49240500  0.14801200  1
  C  467  1  0.92536100  0.45861300  0.13595400  1
  C  469  1  0.86479900  0.49453400  0.12135100  1
  C  471  1  0.83339300  0.49398200  0.10755900  1
  C  475  1  0.92795600  0.02845300  0.13350300  1
  C  477  1  0.86750200  0.99236900  0.14802800  1
  C  478  1  0.87856100  0.95851800  0.13601600  1
  C  480  1  0.93908400  0.99451200  0.12136700  1
  C  482  1  0.97043800  0.99397800  0.10754800  1
  C  486  1  0.92794500  0.46169700  0.85667300  1
  C  488  1  0.86747600  0.49777900  0.84215100  1
  C  489  1  0.87851200  0.53158900  0.85419400  1
  C  491  1  0.93903800  0.49562300  0.86883000  1
  C  493  1  0.97044800  0.49617500  0.88261900  1
  C  497  1  0.37593500  0.46170300  0.35667800  1
  C  499  1  0.43641700  0.49777800  0.34216700  1
  C  500  1  0.42536900  0.53157100  0.35422200  1
  C  502  1  0.36478500  0.49564700  0.36881200  1
  C  504  1  0.33340100  0.49618400  0.38261300  1
  C  508  1  0.37592800  0.02845900  0.63349900  1
  C  510  1  0.43637700  0.99233900  0.64801200  1
  C  511  1  0.42529700  0.95851400  0.63598100  1
  C  513  1  0.36480500  0.99453700  0.62134200  1
  C  515  1  0.33333333  0.99400900  0.60755600  1
  C  519  1  0.42794400  0.52846200  0.63348900  1
  C  521  1  0.36747200  0.49239900  0.64800800  1
  C  522  1  0.37851600  0.45860600  0.63595200  1
  C  524  1  0.43905700  0.49453600  0.62133800  1
  C  526  1  0.47048100  0.49399300  0.60755600  1
  C  530  1  0.42797000  0.96172900  0.35667000  1
  C  532  1  0.36751800  0.99779900  0.34214000  1
  C  533  1  0.37856500  0.03164700  0.35415500  1
  C  535  1  0.43909300  0.99567200  0.36880600  1
  C  537  1  0.47044500  0.99621000  0.38262600  1
  C  541  1  0.61710900  0.74682000  0.73054100  1
  C  543  1  0.69031300  0.72686600  0.74018000  1
  C  544  1  0.68580100  0.74449000  0.76034800  1
  C  546  1  0.61282500  0.76451800  0.75084800  1
  C  548  1  0.57921000  0.78430500  0.75740800  1
  C  552  1  0.61702000  0.74334700  0.25952700  1
  C  554  1  0.69023700  0.76335400  0.25009200  1
  C  555  1  0.68589900  0.74567800  0.22993900  1
  C  557  1  0.61287100  0.72566300  0.23921900  1
  C  559  1  0.57928200  0.70584300  0.23265100  1
  C  563  1  0.18674400  0.24681900  0.25963500  1
  C  565  1  0.11354200  0.22686200  0.24999500  1
  C  566  1  0.11804500  0.24449700  0.22982900  1
  C  568  1  0.19104700  0.26447800  0.23932000  1
  C  570  1  0.22464200  0.28430100  0.23276600  1
  C  574  1  0.18684600  0.24336000  0.73065000  1
  C  576  1  0.11361700  0.26334700  0.74007900  1
  C  577  1  0.11795300  0.24567600  0.76023300  1
  C  579  1  0.19096900  0.22563200  0.75094800  1
  C  581  1  0.22457000  0.20583500  0.75752300  1
  N  410  1  0.85578800  0.74508600  0.98255800  1
  N  413  1  0.92903300  0.74508900  0.00677900  1
  N  417  1  0.00768200  0.74509000  0.97094900  1
  N  418  1  0.89344200  0.74508600  0.95140800  1
  N  419  1  0.88444700  0.74509200  0.03758400  1
  N  421  1  0.94806000  0.24507800  0.00761300  1
  N  424  1  0.87481200  0.24509600  0.98339700  1
  N  428  1  0.79616400  0.24509100  0.01922600  1
  N  429  1  0.91045500  0.24507500  0.03876500  1
  N  430  1  0.91940000  0.24509600  0.95258900  1
  N  432  1  0.35579100  0.24509000  0.48255800  1
  N  435  1  0.42903600  0.24508900  0.50678000  1
  N  439  1  0.50769000  0.24509200  0.47095000  1
  N  440  1  0.39342700  0.24509300  0.45140700  1
  N  441  1  0.38442700  0.24509000  0.53758700  1
  N  443  1  0.44808100  0.74508200  0.50761600  1
  N  446  1  0.37483900  0.74509800  0.48339400  1
  N  450  1  0.29618200  0.74509300  0.51922300  1
  N  451  1  0.41044100  0.74508300  0.53876700  1
  N  452  1  0.41944900  0.74509400  0.45258900  1
  N  454  1  0.91155900  0.96450400  0.84386000  1
  N  457  1  0.89035900  0.02869100  0.86746400  1
  N  461  1  0.80600500  0.99741900  0.89510300  1
  N  462  1  0.85509400  0.92729700  0.85763200  1
  N  463  1  0.95378300  0.06101000  0.85590800  1
  N  465  1  0.91155500  0.52571700  0.14632000  1
  N  468  1  0.89038800  0.46151300  0.12270600  1
  N  472  1  0.80603100  0.49271400  0.09506900  1
  N  473  1  0.85506300  0.56289100  0.13253800  1
  N  474  1  0.95369900  0.42913700  0.13425400  1
  N  476  1  0.89230500  0.02570400  0.14631200  1
  N  479  1  0.91348600  0.96149600  0.12273800  1
  N  483  1  0.99777000  0.99272100  0.09504100  1
  N  484  1  0.94877100  0.06290700  0.13253500  1
  N  485  1  0.85013000  0.92912100  0.13426200  1
  N  487  1  0.89230600  0.46445600  0.84385200  1
  N  490  1  0.91346100  0.52865300  0.86745700  1
  N  494  1  0.99780900  0.49745700  0.89510800  1
  N  495  1  0.94877200  0.42724900  0.85763000  1
  N  496  1  0.85017300  0.56106500  0.85592100  1
  N  498  1  0.41157300  0.46446100  0.34385800  1
  N  501  1  0.39038400  0.52866400  0.36746000  1
  N  505  1  0.30605500  0.49744600  0.39511100  1
  N  506  1  0.35508600  0.42726600  0.35763800  1
  N  507  1  0.45367000  0.56108800  0.35590800  1
  N  509  1  0.41157300  0.02568000  0.64631100  1
  N  512  1  0.39037000  0.96149800  0.62270700  1
  N  516  1  0.30601900  0.99275100  0.59507000  1
  N  517  1  0.35510900  0.06291300  0.63255000  1
  N  518  1  0.45379100  0.92915300  0.63426100  1
  N  520  1  0.39231500  0.52571000  0.64631600  1
  N  523  1  0.41348200  0.46151000  0.62270200  1
  N  527  1  0.49785700  0.49273100  0.59507200  1
  N  528  1  0.44879600  0.56289000  0.63252800  1
  N  529  1  0.35019200  0.42911900  0.63426000  1
  N  531  1  0.39232200  0.96446900  0.34385600  1
  N  534  1  0.41348500  0.02868100  0.36743800  1
  N  538  1  0.49777800  0.99746500  0.39513400  1
  N  539  1  0.44880200  0.92729200  0.35763600  1
  N  540  1  0.35009100  0.06100100  0.35592000  1
  N  542  1  0.65612600  0.72890300  0.72629400  1
  N  545  1  0.64702700  0.76241200  0.76464400  1
  N  549  1  0.55114500  0.80268000  0.76452800  1
  N  550  1  0.58823700  0.74680600  0.71471200  1
  N  551  1  0.71529100  0.74415800  0.77575500  1
  N  553  1  0.65593900  0.76131800  0.26389600  1
  N  556  1  0.64720000  0.72773200  0.22550800  1
  N  560  1  0.55116500  0.68745100  0.22559300  1
  N  561  1  0.58787300  0.74336100  0.27518800  1
  N  562  1  0.71568400  0.74603100  0.21471300  1
  N  564  1  0.14773000  0.22889800  0.26388000  1
  N  567  1  0.15683300  0.26240000  0.22553000  1
  N  571  1  0.25269100  0.30270200  0.22564900  1
  N  572  1  0.21563900  0.24675900  0.27545700  1
  N  573  1  0.08854400  0.24420900  0.21442700  1
  N  575  1  0.14792400  0.26132200  0.72627800  1
  N  578  1  0.15664200  0.22771400  0.76466200  1
  N  582  1  0.25269100  0.18745700  0.76458700  1
  N  583  1  0.21600600  0.24341300  0.71499000  1
  N  584  1  0.08815000  0.24598500  0.77545300  1
