# generated using pymatgen
data_Zn3H30C46(NO2)6
_symmetry_space_group_name_H-M   'P 1'
_cell_length_a   11.54880000
_cell_length_b   18.30265000
_cell_length_c   24.12541000
_cell_angle_alpha   89.99955000
_cell_angle_beta   90.04886000
_cell_angle_gamma   90.00000000
_symmetry_Int_Tables_number   1
_chemical_formula_structural   Zn3H30C46(NO2)6
_chemical_formula_sum   'Zn12 H120 C184 N24 O48'
_cell_volume   5099.47397805
_cell_formula_units_Z   4
loop_
 _symmetry_equiv_pos_site_id
 _symmetry_equiv_pos_as_xyz
  1  'x, y, z'
loop_
 _atom_site_type_symbol
 _atom_site_label
 _atom_site_symmetry_multiplicity
 _atom_site_fract_x
 _atom_site_fract_y
 _atom_site_fract_z
 _atom_site_occupancy
  Zn  Zn0  1  0.37439000  0.07154000  0.97644000  1
  Zn  Zn1  1  0.62561000  0.07154000  0.52357000  1
  Zn  Zn2  1  0.37432000  0.42863000  0.02336000  1
  Zn  Zn3  1  0.62567000  0.42863000  0.47665000  1
  Zn  Zn4  1  0.62562000  0.92846000  0.02357000  1
  Zn  Zn5  1  0.37440000  0.92847000  0.47644000  1
  Zn  Zn6  1  0.62568000  0.57138000  0.97665000  1
  Zn  Zn7  1  0.37434000  0.57137000  0.52336000  1
  Zn  Zn8  1  0.99973000  0.24587000  0.25018000  1
  Zn  Zn9  1  0.00007000  0.25438000  0.75007000  1
  Zn  Zn10  1  0.00032000  0.75414000  0.74979000  1
  Zn  Zn11  1  0.00034000  0.74562000  0.25024000  1
  H  H12  1  0.48034000  0.20420000  0.04322000  1
  H  H13  1  0.70693000  0.33023000  0.14703000  1
  H  H14  1  0.73533000  0.09595000  0.14494000  1
  H  H15  1  0.26919000  0.00859000  0.08145000  1
  H  H16  1  0.12245000  0.97087000  0.15140000  1
  H  H17  1  0.91531000  0.00346000  0.14027000  1
  H  H18  1  0.84603000  0.07239000  0.05835000  1
  H  H19  1  0.02839000  0.14808000  0.85165000  1
  H  H20  1  0.28383000  0.24338000  0.96058000  1
  H  H21  1  0.31470000  0.34052000  0.88992000  1
  H  H22  1  0.19279000  0.33781000  0.80293000  1
  H  H23  1  0.83468000  0.13008000  0.97707000  1
  H  H24  1  0.89778000  0.14869000  0.91274000  1
  H  H25  1  0.97106000  0.26930000  0.94804000  1
  H  H26  1  0.81945000  0.26210000  0.94989000  1
  H  H27  1  0.51966000  0.20420000  0.45678000  1
  H  H28  1  0.29308000  0.33023000  0.35297000  1
  H  H29  1  0.26468000  0.09595000  0.35506000  1
  H  H30  1  0.73082000  0.00859000  0.41855000  1
  H  H31  1  0.87755000  0.97088000  0.34860000  1
  H  H32  1  0.08468000  0.00347000  0.35973000  1
  H  H33  1  0.15397000  0.07240000  0.44165000  1
  H  H34  1  0.97162000  0.14808000  0.64836000  1
  H  H35  1  0.71617000  0.24338000  0.53943000  1
  H  H36  1  0.68531000  0.34051000  0.61009000  1
  H  H37  1  0.80722000  0.33781000  0.69708000  1
  H  H38  1  0.16532000  0.13008000  0.52294000  1
  H  H39  1  0.10222000  0.14869000  0.58726000  1
  H  H40  1  0.02895000  0.26930000  0.55197000  1
  H  H41  1  0.18056000  0.26210000  0.55011000  1
  H  H42  1  0.47906000  0.29562000  0.95545000  1
  H  H43  1  0.70474000  0.17077000  0.85059000  1
  H  H44  1  0.73587000  0.40481000  0.85560000  1
  H  H45  1  0.26853000  0.49167000  0.91866000  1
  H  H46  1  0.12146000  0.52909000  0.84857000  1
  H  H47  1  0.91448000  0.49636000  0.85974000  1
  H  H48  1  0.84562000  0.42753000  0.94179000  1
  H  H49  1  0.02874000  0.35203000  0.14833000  1
  H  H50  1  0.28375000  0.25660000  0.03947000  1
  H  H51  1  0.31530000  0.15978000  0.11034000  1
  H  H52  1  0.19319000  0.16235000  0.19717000  1
  H  H53  1  0.83451000  0.37004000  0.02341000  1
  H  H54  1  0.89863000  0.35107000  0.08745000  1
  H  H55  1  0.97162000  0.23079000  0.05183000  1
  H  H56  1  0.81999000  0.23782000  0.05017000  1
  H  H57  1  0.52095000  0.29562000  0.54456000  1
  H  H58  1  0.29526000  0.17077000  0.64941000  1
  H  H59  1  0.26413000  0.40481000  0.64441000  1
  H  H60  1  0.73148000  0.49167000  0.58135000  1
  H  H61  1  0.87855000  0.52909000  0.65144000  1
  H  H62  1  0.08552000  0.49636000  0.64027000  1
  H  H63  1  0.15439000  0.42753000  0.55821000  1
  H  H64  1  0.97124000  0.35202000  0.35169000  1
  H  H65  1  0.71623000  0.25660000  0.46056000  1
  H  H66  1  0.68465000  0.15977000  0.38969000  1
  H  H67  1  0.80676000  0.16235000  0.30285000  1
  H  H68  1  0.16548000  0.37004000  0.47660000  1
  H  H69  1  0.10137000  0.35107000  0.41255000  1
  H  H70  1  0.02839000  0.23079000  0.44818000  1
  H  H71  1  0.18001000  0.23782000  0.44983000  1
  H  H72  1  0.51966000  0.79580000  0.95678000  1
  H  H73  1  0.29307000  0.66978000  0.85298000  1
  H  H74  1  0.26467000  0.90405000  0.85507000  1
  H  H75  1  0.73082000  0.99142000  0.91855000  1
  H  H76  1  0.87755000  0.02913000  0.84861000  1
  H  H77  1  0.08469000  0.99654000  0.85974000  1
  H  H78  1  0.15397000  0.92761000  0.94166000  1
  H  H79  1  0.97163000  0.85193000  0.14836000  1
  H  H80  1  0.71619000  0.75663000  0.03944000  1
  H  H81  1  0.68534000  0.65949000  0.11010000  1
  H  H82  1  0.80725000  0.66220000  0.19709000  1
  H  H83  1  0.16532000  0.86993000  0.02294000  1
  H  H84  1  0.10222000  0.85131000  0.08726000  1
  H  H85  1  0.02895000  0.73070000  0.05197000  1
  H  H86  1  0.18056000  0.73790000  0.05011000  1
  H  H87  1  0.48035000  0.79580000  0.54322000  1
  H  H88  1  0.70693000  0.66978000  0.64703000  1
  H  H89  1  0.73532000  0.90405000  0.64494000  1
  H  H90  1  0.26919000  0.99142000  0.58146000  1
  H  H91  1  0.12245000  0.02913000  0.65140000  1
  H  H92  1  0.91532000  0.99654000  0.64027000  1
  H  H93  1  0.84604000  0.92761000  0.55835000  1
  H  H94  1  0.02840000  0.85192000  0.35166000  1
  H  H95  1  0.28385000  0.75663000  0.46059000  1
  H  H96  1  0.31472000  0.65949000  0.38993000  1
  H  H97  1  0.19281000  0.66219000  0.30293000  1
  H  H98  1  0.83468000  0.86993000  0.47706000  1
  H  H99  1  0.89778000  0.85132000  0.41274000  1
  H  H100  1  0.97106000  0.73070000  0.44804000  1
  H  H101  1  0.81945000  0.73791000  0.44989000  1
  H  H102  1  0.52095000  0.70439000  0.04456000  1
  H  H103  1  0.29526000  0.82923000  0.14941000  1
  H  H104  1  0.26413000  0.59519000  0.14440000  1
  H  H105  1  0.73148000  0.50833000  0.08135000  1
  H  H106  1  0.87854000  0.47091000  0.15143000  1
  H  H107  1  0.08552000  0.50364000  0.14027000  1
  H  H108  1  0.15438000  0.57247000  0.05821000  1
  H  H109  1  0.97127000  0.64797000  0.85168000  1
  H  H110  1  0.71626000  0.74341000  0.96054000  1
  H  H111  1  0.68471000  0.84023000  0.88966000  1
  H  H112  1  0.80681000  0.83766000  0.80283000  1
  H  H113  1  0.16549000  0.62996000  0.97660000  1
  H  H114  1  0.10138000  0.64894000  0.91255000  1
  H  H115  1  0.02839000  0.76921000  0.94818000  1
  H  H116  1  0.18001000  0.76218000  0.94984000  1
  H  H117  1  0.47906000  0.70439000  0.45545000  1
  H  H118  1  0.70473000  0.82923000  0.35059000  1
  H  H119  1  0.73586000  0.59520000  0.35559000  1
  H  H120  1  0.26852000  0.50833000  0.41865000  1
  H  H121  1  0.12146000  0.47091000  0.34857000  1
  H  H122  1  0.91448000  0.50364000  0.35973000  1
  H  H123  1  0.84562000  0.57247000  0.44179000  1
  H  H124  1  0.02876000  0.64798000  0.64832000  1
  H  H125  1  0.28378000  0.74340000  0.53945000  1
  H  H126  1  0.31536000  0.84023000  0.61031000  1
  H  H127  1  0.19325000  0.83766000  0.69715000  1
  H  H128  1  0.83452000  0.62996000  0.52341000  1
  H  H129  1  0.89863000  0.64893000  0.58745000  1
  H  H130  1  0.97162000  0.76921000  0.55183000  1
  H  H131  1  0.82000000  0.76218000  0.55017000  1
  C  C132  1  0.56284000  0.07204000  0.06592000  1
  C  C133  1  0.60182000  0.14222000  0.09207000  1
  C  C134  1  0.54866000  0.20682000  0.07413000  1
  C  C135  1  0.58737000  0.27458000  0.09339000  1
  C  C136  1  0.67663000  0.27763000  0.13206000  1
  C  C137  1  0.72938000  0.21367000  0.15108000  1
  C  C138  1  0.69279000  0.14560000  0.13080000  1
  C  C139  1  0.82921000  0.22244000  0.18981000  1
  C  C140  1  0.53675000  0.34445000  0.07269000  1
  C  C141  1  0.14001000  0.06644000  0.03208000  1
  C  C142  1  0.17850000  0.02390000  0.07681000  1
  C  C143  1  0.09539000  0.00245000  0.11539000  1
  C  C144  1  0.97733000  0.02070000  0.10895000  1
  C  C145  1  0.93764000  0.06051000  0.06349000  1
  C  C146  1  0.02144000  0.08352000  0.02551000  1
  C  C147  1  0.12472000  0.13568000  0.95785000  1
  C  C148  1  0.15204000  0.18778000  0.91305000  1
  C  C149  1  0.09210000  0.18948000  0.86241000  1
  C  C150  1  0.23440000  0.24299000  0.92246000  1
  C  C151  1  0.25199000  0.29710000  0.88288000  1
  C  C152  1  0.18570000  0.29581000  0.83472000  1
  C  C153  1  0.90601000  0.15960000  0.95715000  1
  C  C154  1  0.89932000  0.24141000  0.96907000  1
  C  C155  1  0.43717000  0.07204000  0.43408000  1
  C  C156  1  0.39819000  0.14222000  0.40793000  1
  C  C157  1  0.45134000  0.20682000  0.42587000  1
  C  C158  1  0.41263000  0.27458000  0.40661000  1
  C  C159  1  0.32339000  0.27763000  0.36794000  1
  C  C160  1  0.27065000  0.21367000  0.34891000  1
  C  C161  1  0.30722000  0.14560000  0.36920000  1
  C  C162  1  0.17080000  0.22244000  0.31019000  1
  C  C163  1  0.46325000  0.34445000  0.42731000  1
  C  C164  1  0.85999000  0.06645000  0.46793000  1
  C  C165  1  0.82150000  0.02390000  0.42319000  1
  C  C166  1  0.90461000  0.00245000  0.38461000  1
  C  C167  1  0.02267000  0.02070000  0.39105000  1
  C  C168  1  0.06236000  0.06051000  0.43652000  1
  C  C169  1  0.97856000  0.08352000  0.47449000  1
  C  C170  1  0.87528000  0.13568000  0.54216000  1
  C  C171  1  0.84797000  0.18778000  0.58696000  1
  C  C172  1  0.90792000  0.18948000  0.63760000  1
  C  C173  1  0.76561000  0.24299000  0.57754000  1
  C  C174  1  0.74802000  0.29710000  0.61713000  1
  C  C175  1  0.81432000  0.29581000  0.66529000  1
  C  C176  1  0.09399000  0.15960000  0.54286000  1
  C  C177  1  0.10068000  0.24141000  0.53094000  1
  C  C178  1  0.56268000  0.42801000  0.93405000  1
  C  C179  1  0.60150000  0.35803000  0.90765000  1
  C  C180  1  0.54751000  0.29328000  0.92467000  1
  C  C181  1  0.58521000  0.22574000  0.90453000  1
  C  C182  1  0.67502000  0.22320000  0.86616000  1
  C  C183  1  0.72869000  0.28741000  0.84820000  1
  C  C184  1  0.69268000  0.35513000  0.86915000  1
  C  C185  1  0.82899000  0.27944000  0.80983000  1
  C  C186  1  0.53375000  0.15560000  0.92435000  1
  C  C187  1  0.13971000  0.43360000  0.96794000  1
  C  C188  1  0.17793000  0.47617000  0.92320000  1
  C  C189  1  0.09464000  0.49752000  0.88460000  1
  C  C190  1  0.97662000  0.47920000  0.89107000  1
  C  C191  1  0.93718000  0.43944000  0.93658000  1
  C  C192  1  0.02119000  0.41649000  0.97454000  1
  C  C193  1  0.12479000  0.36437000  0.04217000  1
  C  C194  1  0.15220000  0.31227000  0.08698000  1
  C  C195  1  0.09243000  0.31063000  0.13763000  1
  C  C196  1  0.23454000  0.25707000  0.07761000  1
  C  C197  1  0.25236000  0.20307000  0.11727000  1
  C  C198  1  0.18606000  0.20435000  0.16539000  1
  C  C199  1  0.90621000  0.34041000  0.04299000  1
  C  C200  1  0.89960000  0.25865000  0.03092000  1
  C  C201  1  0.43733000  0.42801000  0.56596000  1
  C  C202  1  0.39851000  0.35803000  0.59235000  1
  C  C203  1  0.45250000  0.29328000  0.57534000  1
  C  C204  1  0.41479000  0.22574000  0.59548000  1
  C  C205  1  0.32498000  0.22320000  0.63384000  1
  C  C206  1  0.27130000  0.28741000  0.65180000  1
  C  C207  1  0.30732000  0.35513000  0.63085000  1
  C  C208  1  0.17101000  0.27944000  0.69018000  1
  C  C209  1  0.46625000  0.15561000  0.57565000  1
  C  C210  1  0.86030000  0.43361000  0.53207000  1
  C  C211  1  0.82207000  0.47617000  0.57681000  1
  C  C212  1  0.90537000  0.49752000  0.61540000  1
  C  C213  1  0.02339000  0.47920000  0.60893000  1
  C  C214  1  0.06283000  0.43945000  0.56343000  1
  C  C215  1  0.97881000  0.41649000  0.52547000  1
  C  C216  1  0.87520000  0.36437000  0.45784000  1
  C  C217  1  0.84777000  0.31227000  0.41304000  1
  C  C218  1  0.90754000  0.31064000  0.36240000  1
  C  C219  1  0.76543000  0.25707000  0.42241000  1
  C  C220  1  0.74759000  0.20307000  0.38276000  1
  C  C221  1  0.81387000  0.20433000  0.33464000  1
  C  C222  1  0.09378000  0.34042000  0.45701000  1
  C  C223  1  0.10040000  0.25865000  0.46908000  1
  C  C224  1  0.43717000  0.92797000  0.93409000  1
  C  C225  1  0.39819000  0.85779000  0.90793000  1
  C  C226  1  0.45134000  0.79318000  0.92587000  1
  C  C227  1  0.41263000  0.72543000  0.90662000  1
  C  C228  1  0.32338000  0.72237000  0.86795000  1
  C  C229  1  0.27063000  0.78634000  0.84893000  1
  C  C230  1  0.30721000  0.85440000  0.86920000  1
  C  C231  1  0.17079000  0.77756000  0.81019000  1
  C  C232  1  0.46325000  0.65555000  0.92731000  1
  C  C233  1  0.85999000  0.93356000  0.96793000  1
  C  C234  1  0.82150000  0.97611000  0.92320000  1
  C  C235  1  0.90461000  0.99756000  0.88461000  1
  C  C236  1  0.02268000  0.97930000  0.89105000  1
  C  C237  1  0.06237000  0.93950000  0.93652000  1
  C  C238  1  0.97856000  0.91648000  0.97450000  1
  C  C239  1  0.87529000  0.86432000  0.04216000  1
  C  C240  1  0.84798000  0.81222000  0.08697000  1
  C  C241  1  0.90793000  0.81052000  0.13761000  1
  C  C242  1  0.76562000  0.75702000  0.07755000  1
  C  C243  1  0.74805000  0.70291000  0.11714000  1
  C  C244  1  0.81435000  0.70421000  0.16530000  1
  C  C245  1  0.09399000  0.84040000  0.04286000  1
  C  C246  1  0.10068000  0.75859000  0.03094000  1
  C  C247  1  0.56284000  0.92797000  0.56592000  1
  C  C248  1  0.60182000  0.85779000  0.59207000  1
  C  C249  1  0.54866000  0.79318000  0.57413000  1
  C  C250  1  0.58737000  0.72543000  0.59339000  1
  C  C251  1  0.67661000  0.72237000  0.63207000  1
  C  C252  1  0.72935000  0.78634000  0.65109000  1
  C  C253  1  0.69278000  0.85440000  0.63081000  1
  C  C254  1  0.82921000  0.77757000  0.68981000  1
  C  C255  1  0.53676000  0.65555000  0.57269000  1
  C  C256  1  0.14001000  0.93356000  0.53208000  1
  C  C257  1  0.17851000  0.97611000  0.57681000  1
  C  C258  1  0.09539000  0.99756000  0.61540000  1
  C  C259  1  0.97733000  0.97930000  0.60896000  1
  C  C260  1  0.93764000  0.93950000  0.56349000  1
  C  C261  1  0.02145000  0.91648000  0.52551000  1
  C  C262  1  0.12473000  0.86433000  0.45785000  1
  C  C263  1  0.15206000  0.81222000  0.41306000  1
  C  C264  1  0.09211000  0.81053000  0.36243000  1
  C  C265  1  0.23442000  0.75702000  0.42247000  1
  C  C266  1  0.25202000  0.70290000  0.38289000  1
  C  C267  1  0.18574000  0.70419000  0.33473000  1
  C  C268  1  0.90601000  0.84040000  0.45715000  1
  C  C269  1  0.89932000  0.75860000  0.46906000  1
  C  C270  1  0.43732000  0.57199000  0.06596000  1
  C  C271  1  0.39850000  0.64197000  0.09235000  1
  C  C272  1  0.45250000  0.70673000  0.07533000  1
  C  C273  1  0.41478000  0.77426000  0.09548000  1
  C  C274  1  0.32497000  0.77680000  0.13384000  1
  C  C275  1  0.27128000  0.71259000  0.15179000  1
  C  C276  1  0.30731000  0.64487000  0.13085000  1
  C  C277  1  0.17101000  0.72056000  0.19018000  1
  C  C278  1  0.46625000  0.84440000  0.07566000  1
  C  C279  1  0.86029000  0.56640000  0.03206000  1
  C  C280  1  0.82207000  0.52384000  0.07680000  1
  C  C281  1  0.90536000  0.50249000  0.11540000  1
  C  C282  1  0.02338000  0.52080000  0.10893000  1
  C  C283  1  0.06282000  0.56056000  0.06342000  1
  C  C284  1  0.97881000  0.58351000  0.02547000  1
  C  C285  1  0.87521000  0.63564000  0.95783000  1
  C  C286  1  0.84780000  0.68774000  0.91302000  1
  C  C287  1  0.90758000  0.68938000  0.86237000  1
  C  C288  1  0.76547000  0.74293000  0.92239000  1
  C  C289  1  0.74765000  0.79693000  0.88274000  1
  C  C290  1  0.81395000  0.79565000  0.83462000  1
  C  C291  1  0.09379000  0.65959000  0.95701000  1
  C  C292  1  0.10040000  0.74136000  0.96908000  1
  C  C293  1  0.56268000  0.57199000  0.43404000  1
  C  C294  1  0.60149000  0.64197000  0.40765000  1
  C  C295  1  0.54750000  0.70673000  0.42467000  1
  C  C296  1  0.58521000  0.77427000  0.40453000  1
  C  C297  1  0.67501000  0.77681000  0.36616000  1
  C  C298  1  0.72868000  0.71260000  0.34819000  1
  C  C299  1  0.69267000  0.64488000  0.36915000  1
  C  C300  1  0.82899000  0.72056000  0.30983000  1
  C  C301  1  0.53375000  0.84440000  0.42435000  1
  C  C302  1  0.13971000  0.56640000  0.46794000  1
  C  C303  1  0.17793000  0.52383000  0.42320000  1
  C  C304  1  0.09464000  0.50248000  0.38460000  1
  C  C305  1  0.97662000  0.52080000  0.39107000  1
  C  C306  1  0.93718000  0.56056000  0.43658000  1
  C  C307  1  0.02119000  0.58351000  0.47453000  1
  C  C308  1  0.12481000  0.63564000  0.54216000  1
  C  C309  1  0.15224000  0.68774000  0.58696000  1
  C  C310  1  0.09247000  0.68937000  0.63760000  1
  C  C311  1  0.23458000  0.74293000  0.57759000  1
  C  C312  1  0.25242000  0.79694000  0.61724000  1
  C  C313  1  0.18614000  0.79567000  0.66536000  1
  C  C314  1  0.90622000  0.65959000  0.54299000  1
  C  C315  1  0.89961000  0.74135000  0.53092000  1
  N  N316  1  0.20228000  0.09941000  0.98947000  1
  N  N317  1  0.01390000  0.12602000  0.97782000  1
  N  N318  1  0.10781000  0.24257000  0.82451000  1
  N  N319  1  0.79772000  0.09941000  0.51054000  1
  N  N320  1  0.98610000  0.12602000  0.52219000  1
  N  N321  1  0.89221000  0.24257000  0.67551000  1
  N  N322  1  0.20220000  0.40063000  0.01053000  1
  N  N323  1  0.01389000  0.37403000  0.02224000  1
  N  N324  1  0.10811000  0.25757000  0.17556000  1
  N  N325  1  0.79780000  0.40063000  0.48949000  1
  N  N326  1  0.98611000  0.37403000  0.47777000  1
  N  N327  1  0.89182000  0.25756000  0.32448000  1
  N  N328  1  0.79773000  0.90059000  0.01054000  1
  N  N329  1  0.98610000  0.87398000  0.02219000  1
  N  N330  1  0.89225000  0.75744000  0.17553000  1
  N  N331  1  0.20228000  0.90059000  0.48948000  1
  N  N332  1  0.01390000  0.87398000  0.47782000  1
  N  N333  1  0.10785000  0.75743000  0.32453000  1
  N  N334  1  0.79780000  0.59938000  0.98948000  1
  N  N335  1  0.98611000  0.62597000  0.97777000  1
  N  N336  1  0.89190000  0.74244000  0.82444000  1
  N  N337  1  0.20221000  0.59937000  0.51052000  1
  N  N338  1  0.01390000  0.62597000  0.52224000  1
  N  N339  1  0.10819000  0.74245000  0.67552000  1
  O  O340  1  0.45823000  0.06684000  0.04992000  1
  O  O341  1  0.64099000  0.02253000  0.06115000  1
  O  O342  1  0.86353000  0.28801000  0.20010000  1
  O  O343  1  0.87938000  0.16696000  0.21089000  1
  O  O344  1  0.58916000  0.40349000  0.07726000  1
  O  O345  1  0.43451000  0.33682000  0.04999000  1
  O  O346  1  0.54177000  0.06684000  0.45008000  1
  O  O347  1  0.35901000  0.02253000  0.43885000  1
  O  O348  1  0.13644000  0.28801000  0.29993000  1
  O  O349  1  0.12059000  0.16695000  0.28914000  1
  O  O350  1  0.41085000  0.40350000  0.42274000  1
  O  O351  1  0.56550000  0.33682000  0.45001000  1
  O  O352  1  0.45810000  0.43312000  0.94996000  1
  O  O353  1  0.64075000  0.47758000  0.93883000  1
  O  O354  1  0.86372000  0.21393000  0.79976000  1
  O  O355  1  0.87936000  0.33481000  0.78895000  1
  O  O356  1  0.58338000  0.09614000  0.91686000  1
  O  O357  1  0.43454000  0.16335000  0.94991000  1
  O  O358  1  0.54190000  0.43312000  0.55005000  1
  O  O359  1  0.35925000  0.47758000  0.56118000  1
  O  O360  1  0.13628000  0.21393000  0.70025000  1
  O  O361  1  0.12065000  0.33481000  0.71106000  1
  O  O362  1  0.41662000  0.09614000  0.58314000  1
  O  O363  1  0.56546000  0.16335000  0.55009000  1
  O  O364  1  0.54177000  0.93316000  0.95008000  1
  O  O365  1  0.35901000  0.97747000  0.93885000  1
  O  O366  1  0.13648000  0.71199000  0.79990000  1
  O  O367  1  0.12062000  0.83305000  0.78912000  1
  O  O368  1  0.41085000  0.59651000  0.92274000  1
  O  O369  1  0.56550000  0.66318000  0.95001000  1
  O  O370  1  0.45823000  0.93316000  0.54993000  1
  O  O371  1  0.64100000  0.97747000  0.56115000  1
  O  O372  1  0.86357000  0.71199000  0.70007000  1
  O  O373  1  0.87942000  0.83305000  0.71086000  1
  O  O374  1  0.58916000  0.59651000  0.57727000  1
  O  O375  1  0.43450000  0.66318000  0.54999000  1
  O  O376  1  0.54190000  0.56688000  0.05005000  1
  O  O377  1  0.35925000  0.52242000  0.06118000  1
  O  O378  1  0.13630000  0.78607000  0.20026000  1
  O  O379  1  0.12067000  0.66519000  0.21107000  1
  O  O380  1  0.41663000  0.90386000  0.08315000  1
  O  O381  1  0.56545000  0.83665000  0.05009000  1
  O  O382  1  0.45810000  0.56688000  0.44996000  1
  O  O383  1  0.64075000  0.52243000  0.43882000  1
  O  O384  1  0.86374000  0.78607000  0.29978000  1
  O  O385  1  0.87938000  0.66519000  0.28897000  1
  O  O386  1  0.58338000  0.90386000  0.41687000  1
  O  O387  1  0.43453000  0.83665000  0.44991000  1
