# generated using pymatgen
data_H8C12N5O
_symmetry_space_group_name_H-M   'P 1'
_cell_length_a   25.89200000
_cell_length_b   25.89200000
_cell_length_c   27.31780000
_cell_angle_alpha   90.00000000
_cell_angle_beta   90.00000000
_cell_angle_gamma   120.00000000
_symmetry_Int_Tables_number   1
_chemical_formula_structural   H8C12N5O
_chemical_formula_sum   'H96 C144 N60 O12'
_cell_volume   15860.15946240
_cell_formula_units_Z   12
loop_
 _symmetry_equiv_pos_site_id
 _symmetry_equiv_pos_as_xyz
  1  'x, y, z'
loop_
 _atom_site_type_symbol
 _atom_site_label
 _atom_site_symmetry_multiplicity
 _atom_site_fract_x
 _atom_site_fract_y
 _atom_site_fract_z
 _atom_site_occupancy
  C  1  1  0.42459200  0.45302200  0.99158300  1
  C  2  1  0.46344800  0.44964400  0.02696300  1
  C  3  1  0.49444800  0.41828900  0.01821000  1
  C  4  1  0.48092200  0.38451100  0.97461700  1
  C  5  1  0.44141350  0.38395350  0.93873500  1
  C  6  1  0.41643500  0.42148700  0.94653800  1
  C  9  1  0.39507650  0.48658350  0.00109300  1
  C  10  1  0.36636700  0.48303100  0.04681800  1
  C  11  1  0.33103200  0.51067200  0.05361600  1
  C  12  1  0.33297600  0.54976100  0.01661000  1
  C  13  1  0.36425800  0.55872300  0.97221600  1
  C  14  1  0.39208550  0.52420750  0.96429000  1
  C  21  1  0.36586050  0.60174250  0.93911700  1
  C  22  1  0.42950400  0.34786400  0.89631900  1
  C  23  1  0.53992150  0.42025150  0.04854200  1
  C  24  1  0.29453450  0.50103050  0.09540900  1
  C  29  1  0.88498750  0.46198550  0.32494500  1
  C  30  1  0.84275300  0.42317100  0.36035000  1
  C  31  1  0.78040600  0.39209600  0.35154300  1
  C  32  1  0.76015950  0.40564450  0.30795900  1
  C  33  1  0.79911000  0.44519300  0.27210400  1
  C  34  1  0.86161700  0.47017300  0.27990800  1
  C  37  1  0.94806250  0.49147450  0.33445500  1
  C  38  1  0.97323150  0.52013750  0.38019800  1
  C  39  1  0.03621050  0.55538450  0.38702900  1
  C  40  1  0.07334100  0.55341700  0.35002000  1
  C  41  1  0.05101850  0.52221650  0.30559500  1
  C  42  1  0.98867550  0.49440750  0.29767700  1
  C  49  1  0.09241900  0.52062700  0.27247300  1
  C  50  1  0.77493700  0.45717200  0.22971700  1
  C  51  1  0.73690050  0.34660550  0.38186400  1
  C  52  1  0.06308900  0.59172600  0.42889900  1
  C  57  1  0.43347500  0.00153100  0.65823200  1
  C  58  1  0.43685150  0.04376450  0.69361100  1
  C  59  1  0.46821300  0.10611900  0.68486500  1
  C  60  1  0.50198750  0.12636950  0.64127200  1
  C  61  1  0.50254600  0.08742000  0.60538900  1
  C  62  1  0.46501400  0.02490900  0.61318900  1
  C  65  1  0.39991700  0.93845500  0.66774000  1
  C  66  1  0.40347100  0.91329700  0.71346500  1
  C  67  1  0.37583850  0.85031750  0.72025900  1
  C  68  1  0.33676250  0.81317450  0.68324800  1
  C  69  1  0.32779150  0.83549450  0.63885700  1
  C  70  1  0.36229300  0.89784100  0.63093600  1
  C  77  1  0.28477550  0.79407550  0.60575500  1
  C  78  1  0.53864200  0.11160400  0.56297700  1
  C  79  1  0.46626600  0.14963000  0.71521100  1
  C  80  1  0.38547350  0.82346350  0.76205400  1
  C  85  1  0.43821100  0.26488400  0.85750700  1
  C  86  1  0.42850800  0.27065600  0.80754600  1
  C  87  1  0.42819900  0.23004900  0.77243000  1
  C  88  1  0.43782500  0.18319800  0.78911000  1
  C  97  1  0.68323400  0.44837200  0.19085200  1
  C  98  1  0.69873200  0.45810400  0.14089600  1
  C  99  1  0.65845750  0.45844350  0.10577600  1
  C  100  1  0.60196600  0.44879200  0.12243900  1
  C  109  1  0.62161850  0.20329850  0.52416300  1
  C  110  1  0.61587600  0.18781600  0.47420600  1
  C  111  1  0.65648900  0.22811500  0.43909400  1
  C  112  1  0.70331350  0.28460550  0.45577500  1
  C  121  1  0.38111800  0.64669200  0.85829800  1
  C  122  1  0.38158800  0.63661900  0.80770300  1
  C  123  1  0.37878550  0.67616650  0.77331400  1
  C  124  1  0.37997500  0.72829300  0.79124600  1
  C  133  1  0.12212100  0.50538500  0.19164700  1
  C  134  1  0.11159200  0.50494400  0.14105300  1
  C  135  1  0.15394300  0.50775100  0.10666500  1
  C  136  1  0.20486000  0.50651700  0.12459500  1
  C  145  1  0.23977150  0.76437650  0.52495700  1
  C  146  1  0.24978000  0.77493000  0.47435700  1
  C  147  1  0.21023350  0.73255150  0.43998700  1
  C  148  1  0.15816600  0.68156700  0.45794200  1
  C  625  1  0.42459200  0.45302200  0.55230900  1
  C  626  1  0.46344800  0.44964400  0.58768900  1
  C  627  1  0.49444800  0.41828900  0.57893600  1
  C  628  1  0.48092200  0.38451100  0.53534300  1
  C  629  1  0.44141350  0.38395350  0.49946100  1
  C  630  1  0.41643500  0.42148700  0.50726400  1
  C  633  1  0.39507650  0.48658350  0.56181900  1
  C  634  1  0.36636700  0.48303100  0.60754400  1
  C  635  1  0.33103200  0.51067200  0.61434200  1
  C  636  1  0.33297600  0.54976100  0.57733600  1
  C  637  1  0.36425800  0.55872300  0.53294200  1
  C  638  1  0.39208550  0.52420750  0.52501600  1
  C  645  1  0.36586050  0.60174250  0.49984300  1
  C  646  1  0.42950400  0.34786400  0.45704500  1
  C  647  1  0.53992150  0.42025150  0.60926800  1
  C  648  1  0.29453450  0.50103050  0.65613500  1
  C  653  1  0.88498750  0.46198550  0.88567100  1
  C  654  1  0.84275300  0.42317100  0.92107600  1
  C  655  1  0.78040600  0.39209600  0.91226900  1
  C  656  1  0.76015950  0.40564450  0.86868500  1
  C  657  1  0.79911000  0.44519300  0.83283000  1
  C  658  1  0.86161700  0.47017300  0.84063400  1
  C  661  1  0.94806250  0.49147450  0.89518100  1
  C  662  1  0.97323150  0.52013750  0.94092400  1
  C  663  1  0.03621050  0.55538450  0.94775500  1
  C  664  1  0.07334100  0.55341700  0.91074600  1
  C  665  1  0.05101850  0.52221650  0.86632100  1
  C  666  1  0.98867550  0.49440750  0.85840300  1
  C  673  1  0.09241900  0.52062700  0.83319900  1
  C  674  1  0.77493700  0.45717200  0.79044300  1
  C  675  1  0.73690050  0.34660550  0.94259000  1
  C  676  1  0.06308900  0.59172600  0.98962500  1
  C  681  1  0.43347500  0.00153100  0.21895800  1
  C  682  1  0.43685150  0.04376450  0.25433700  1
  C  683  1  0.46821300  0.10611900  0.24559100  1
  C  684  1  0.50198750  0.12636950  0.20199800  1
  C  685  1  0.50254600  0.08742000  0.16611500  1
  C  686  1  0.46501400  0.02490900  0.17391500  1
  C  689  1  0.39991700  0.93845500  0.22846600  1
  C  690  1  0.40347100  0.91329700  0.27419100  1
  C  691  1  0.37583850  0.85031750  0.28098500  1
  C  692  1  0.33676250  0.81317450  0.24397400  1
  C  693  1  0.32779150  0.83549450  0.19958300  1
  C  694  1  0.36229300  0.89784100  0.19166200  1
  C  701  1  0.28477550  0.79407550  0.16648100  1
  C  702  1  0.53864200  0.11160400  0.12370300  1
  C  703  1  0.46626600  0.14963000  0.27593700  1
  C  704  1  0.38547350  0.82346350  0.32278000  1
  C  709  1  0.43821100  0.26488400  0.41823300  1
  C  710  1  0.42850800  0.27065600  0.36827200  1
  C  711  1  0.42819900  0.23004900  0.33315600  1
  C  712  1  0.43782500  0.18319800  0.34983600  1
  C  721  1  0.68323400  0.44837200  0.75157800  1
  C  722  1  0.69873200  0.45810400  0.70162200  1
  C  723  1  0.65845750  0.45844350  0.66650200  1
  C  724  1  0.60196600  0.44879200  0.68316500  1
  C  733  1  0.62161850  0.20329850  0.08488900  1
  C  734  1  0.61587600  0.18781600  0.03493200  1
  C  735  1  0.65648900  0.22811500  0.99981997  1
  C  736  1  0.70331350  0.28460550  0.01650100  1
  C  745  1  0.38111800  0.64669200  0.41902400  1
  C  746  1  0.38158800  0.63661900  0.36842900  1
  C  747  1  0.37878550  0.67616650  0.33404000  1
  C  748  1  0.37997500  0.72829300  0.35197200  1
  C  757  1  0.12212100  0.50538500  0.75237300  1
  C  758  1  0.11159200  0.50494400  0.70177900  1
  C  759  1  0.15394300  0.50775100  0.66739100  1
  C  760  1  0.20486000  0.50651700  0.68532100  1
  C  769  1  0.23977150  0.76437650  0.08568300  1
  C  770  1  0.24978000  0.77493000  0.03508300  1
  C  771  1  0.21023350  0.73255150  0.00071300  1
  C  772  1  0.15816600  0.68156700  0.01866800  1
  H  7  1  0.47379600  0.47506100  0.05797200  1
  H  8  1  0.50185350  0.36043550  0.96817900  1
  H  15  1  0.31079950  0.57280150  0.02222900  1
  H  16  1  0.41576150  0.53131150  0.93261100  1
  H  19  1  0.39735400  0.44245800  0.88534900  1
  H  20  1  0.38830150  0.46623950  0.10840800  1
  H  25  1  0.35051350  0.62902350  0.95149300  1
  H  26  1  0.40706900  0.35297200  0.86768200  1
  H  27  1  0.56221100  0.39979700  0.03533100  1
  H  28  1  0.29888900  0.48040200  0.12574800  1
  H  35  1  0.85782350  0.41269650  0.39128600  1
  H  36  1  0.71515000  0.38471700  0.30152400  1
  H  43  1  0.11855450  0.57551950  0.35565400  1
  H  44  1  0.97207350  0.47083550  0.26595700  1
  H  47  1  0.90166450  0.48929850  0.21871700  1
  H  48  1  0.93447600  0.49816600  0.44177300  1
  H  53  1  0.13505200  0.53594100  0.28482800  1
  H  54  1  0.80247250  0.47954150  0.20105800  1
  H  55  1  0.69416800  0.32431600  0.36862300  1
  H  56  1  0.03804400  0.58759200  0.45913200  1
  H  63  1  0.41143650  0.02869150  0.72462200  1
  H  64  1  0.52607100  0.17137800  0.63483700  1
  H  71  1  0.31372900  0.76795600  0.68886000  1
  H  72  1  0.35518900  0.91441500  0.59926100  1
  H  75  1  0.44404800  0.98486000  0.55200200  1
  H  76  1  0.42024750  0.95201550  0.77505600  1
  H  81  1  0.25751800  0.75144100  0.61812800  1
  H  82  1  0.53354200  0.08406300  0.53434000  1
  H  83  1  0.48675500  0.19237500  0.70199500  1
  H  84  1  0.40608300  0.84844300  0.79239900  1
  H  92  1  0.40417600  0.26541600  0.71619100  1
  H  93  1  0.40229900  0.20250800  0.70234300  1
  H  94  1  0.42203300  0.30477800  0.79665900  1
  H  104  1  0.71781250  0.48238450  0.04952300  1
  H  105  1  0.65678000  0.48426000  0.03567100  1
  H  106  1  0.73934050  0.46459650  0.13001600  1
  H  116  1  0.62117250  0.16870550  0.38286300  1
  H  117  1  0.68407150  0.22974850  0.36902200  1
  H  118  1  0.58177300  0.14720700  0.46332000  1
  H  128  1  0.37566650  0.62801950  0.71307900  1
  H  129  1  0.37448850  0.69001550  0.70006500  1
  H  130  1  0.38061800  0.59859900  0.79593800  1
  H  140  1  0.10893550  0.51090750  0.04643300  1
  H  141  1  0.17209450  0.51205950  0.03341600  1
  H  142  1  0.07455150  0.50593450  0.12928800  1
  H  152  1  0.25828450  0.77760950  0.37972600  1
  H  153  1  0.19632750  0.71438650  0.36674500  1
  H  154  1  0.28776200  0.81200600  0.46257700  1
  H  631  1  0.47379600  0.47506100  0.61869800  1
  H  632  1  0.50185350  0.36043550  0.52890500  1
  H  639  1  0.31079950  0.57280150  0.58295500  1
  H  640  1  0.41576150  0.53131150  0.49333700  1
  H  643  1  0.39735400  0.44245800  0.44607500  1
  H  644  1  0.38830150  0.46623950  0.66913400  1
  H  649  1  0.35051350  0.62902350  0.51221900  1
  H  650  1  0.40706900  0.35297200  0.42840800  1
  H  651  1  0.56221100  0.39979700  0.59605700  1
  H  652  1  0.29888900  0.48040200  0.68647400  1
  H  659  1  0.85782350  0.41269650  0.95201200  1
  H  660  1  0.71515000  0.38471700  0.86225000  1
  H  667  1  0.11855450  0.57551950  0.91638000  1
  H  668  1  0.97207350  0.47083550  0.82668300  1
  H  671  1  0.90166450  0.48929850  0.77944300  1
  H  672  1  0.93447600  0.49816600  0.00249900  1
  H  677  1  0.13505200  0.53594100  0.84555400  1
  H  678  1  0.80247250  0.47954150  0.76178400  1
  H  679  1  0.69416800  0.32431600  0.92934900  1
  H  680  1  0.03804400  0.58759200  0.01985800  1
  H  687  1  0.41143650  0.02869150  0.28534800  1
  H  688  1  0.52607100  0.17137800  0.19556300  1
  H  695  1  0.31372900  0.76795600  0.24958600  1
  H  696  1  0.35518900  0.91441500  0.15998700  1
  H  699  1  0.44404800  0.98486000  0.11272800  1
  H  700  1  0.42024750  0.95201550  0.33578200  1
  H  705  1  0.25751800  0.75144100  0.17885400  1
  H  706  1  0.53354200  0.08406300  0.09506600  1
  H  707  1  0.48675500  0.19237500  0.26272100  1
  H  708  1  0.40608300  0.84844300  0.35312500  1
  H  716  1  0.40417600  0.26541600  0.27691700  1
  H  717  1  0.40229900  0.20250800  0.26306900  1
  H  718  1  0.42203300  0.30477800  0.35738500  1
  H  728  1  0.71781250  0.48238450  0.61024900  1
  H  729  1  0.65678000  0.48426000  0.59639700  1
  H  730  1  0.73934050  0.46459650  0.69074200  1
  H  740  1  0.62117250  0.16870550  0.94358900  1
  H  741  1  0.68407150  0.22974850  0.92974800  1
  H  742  1  0.58177300  0.14720700  0.02404600  1
  H  752  1  0.37566650  0.62801950  0.27380500  1
  H  753  1  0.37448850  0.69001550  0.26079100  1
  H  754  1  0.38061800  0.59859900  0.35666400  1
  H  764  1  0.10893550  0.51090750  0.60715900  1
  H  765  1  0.17209450  0.51205950  0.59414200  1
  H  766  1  0.07455150  0.50593450  0.69001400  1
  H  776  1  0.25828450  0.77760950  0.94045200  1
  H  777  1  0.19632750  0.71438650  0.92747100  1
  H  778  1  0.28776200  0.81200600  0.02330300  1
  N  89  1  0.44473100  0.17990000  0.83814400  1
  N  90  1  0.44541500  0.21812800  0.86999100  1
  N  91  1  0.41379400  0.23491700  0.72543400  1
  N  95  1  0.44154550  0.30243750  0.89370700  1
  N  96  1  0.44576200  0.14346100  0.76178200  1
  N  101  1  0.59170600  0.44178800  0.17146200  1
  N  102  1  0.62924000  0.44109800  0.20331700  1
  N  103  1  0.67769800  0.47277400  0.05876600  1
  N  107  1  0.71744750  0.44505550  0.22706300  1
  N  108  1  0.55425800  0.44076700  0.09510900  1
  N  113  1  0.70658500  0.29482100  0.50480600  1
  N  114  1  0.66835200  0.25727000  0.53664900  1
  N  115  1  0.65165200  0.20883300  0.39210600  1
  N  119  1  0.58405800  0.16907900  0.56035900  1
  N  120  1  0.74304200  0.33228600  0.42844900  1
  N  125  1  0.38148350  0.73605050  0.84058800  1
  N  126  1  0.38114550  0.69737650  0.87187100  1
  N  127  1  0.37621700  0.66380200  0.72470800  1
  N  131  1  0.37879650  0.60556750  0.89071300  1
  N  132  1  0.37739200  0.76748800  0.75972700  1
  N  137  1  0.21110400  0.50500100  0.17393700  1
  N  138  1  0.17277200  0.50534400  0.20522000  1
  N  139  1  0.14415550  0.51033550  0.05806000  1
  N  143  1  0.08332350  0.50771450  0.22406500  1
  N  144  1  0.24664400  0.50911700  0.09307700  1
  N  149  1  0.15046600  0.67531200  0.50728800  1
  N  150  1  0.18913750  0.71368050  0.53855300  1
  N  151  1  0.22254250  0.74234950  0.39137400  1
  N  155  1  0.28090550  0.80319650  0.55736100  1
  N  156  1  0.11900450  0.63970750  0.42645700  1
  N  713  1  0.44473100  0.17990000  0.39887000  1
  N  714  1  0.44541500  0.21812800  0.43071700  1
  N  715  1  0.41379400  0.23491700  0.28616000  1
  N  719  1  0.44154550  0.30243750  0.45443300  1
  N  720  1  0.44576200  0.14346100  0.32250800  1
  N  725  1  0.59170600  0.44178800  0.73218800  1
  N  726  1  0.62924000  0.44109800  0.76404300  1
  N  727  1  0.67769800  0.47277400  0.61949200  1
  N  731  1  0.71744750  0.44505550  0.78778900  1
  N  732  1  0.55425800  0.44076700  0.65583500  1
  N  737  1  0.70658500  0.29482100  0.06553200  1
  N  738  1  0.66835200  0.25727000  0.09737500  1
  N  739  1  0.65165200  0.20883300  0.95283200  1
  N  743  1  0.58405800  0.16907900  0.12108500  1
  N  744  1  0.74304200  0.33228600  0.98917500  1
  N  749  1  0.38148350  0.73605050  0.40131400  1
  N  750  1  0.38114550  0.69737650  0.43259700  1
  N  751  1  0.37621700  0.66380200  0.28543400  1
  N  755  1  0.37879650  0.60556750  0.45143900  1
  N  756  1  0.37739200  0.76748800  0.32045300  1
  N  761  1  0.21110400  0.50500100  0.73466300  1
  N  762  1  0.17277200  0.50534400  0.76594600  1
  N  763  1  0.14415550  0.51033550  0.61878600  1
  N  767  1  0.08332350  0.50771450  0.78479100  1
  N  768  1  0.24664400  0.50911700  0.65380300  1
  N  773  1  0.15046600  0.67531200  0.06801400  1
  N  774  1  0.18913750  0.71368050  0.09927900  1
  N  775  1  0.22254250  0.74234950  0.95210000  1
  N  779  1  0.28090550  0.80319650  0.11808700  1
  N  780  1  0.11900450  0.63970750  0.98718300  1
  O  17  1  0.37506200  0.41828000  0.91380800  1
  O  18  1  0.36244800  0.44285000  0.08105600  1
  O  45  1  0.89982750  0.51156650  0.24721100  1
  O  46  1  0.93698550  0.52406650  0.41444300  1
  O  73  1  0.46822200  0.98674400  0.58046000  1
  O  74  1  0.44364300  0.94955800  0.74770700  1
  O  641  1  0.37506200  0.41828000  0.47453400  1
  O  642  1  0.36244800  0.44285000  0.64178200  1
  O  669  1  0.89982750  0.51156650  0.80793700  1
  O  670  1  0.93698550  0.52406650  0.97516900  1
  O  697  1  0.46822200  0.98674400  0.14118600  1
  O  698  1  0.44364300  0.94955800  0.30843300  1
