# generated using pymatgen
data_H26C41(N5O)2
_symmetry_space_group_name_H-M   'P 1'
_cell_length_a   20.56167500
_cell_length_b   20.56170000
_cell_length_c   34.99650000
_cell_angle_alpha   90.00000000
_cell_angle_beta   90.00000000
_cell_angle_gamma   120.00012066
_symmetry_Int_Tables_number   1
_chemical_formula_structural   H26C41(N5O)2
_chemical_formula_sum   'H78 C123 N30 O6'
_cell_volume   12813.63135092
_cell_formula_units_Z   3
loop_
 _symmetry_equiv_pos_site_id
 _symmetry_equiv_pos_as_xyz
  1  'x, y, z'
loop_
 _atom_site_type_symbol
 _atom_site_label
 _atom_site_symmetry_multiplicity
 _atom_site_fract_x
 _atom_site_fract_y
 _atom_site_fract_z
 _atom_site_occupancy
  C  1  1  0.70841500  0.65841400  0.98195950  1
  C  2  1  0.72539250  0.72697150  0.00087300  1
  C  3  1  0.63539950  0.65855550  0.05240600  1
  C  4  1  0.61040000  0.59029100  0.03167000  1
  C  5  1  0.53484150  0.53213050  0.03945900  1
  C  6  1  0.48988200  0.53909000  0.06801100  1
  C  7  1  0.52119850  0.60467350  0.09042200  1
  C  8  1  0.59246900  0.66446700  0.08220100  1
  C  9  1  0.76648800  0.79713500  0.98257500  1
  C  10  1  0.79021550  0.80127550  0.94495000  1
  C  11  1  0.77839300  0.73630400  0.92547200  1
  C  12  1  0.73917350  0.66601250  0.94445100  1
  C  13  1  0.72490000  0.57914900  0.03167300  1
  C  14  1  0.69981800  0.51096100  0.05247800  1
  C  15  1  0.60983450  0.44246850  0.00089600  1
  C  16  1  0.62694000  0.51103500  0.98195200  1
  C  17  1  0.56848450  0.37227550  0.98265800  1
  C  18  1  0.54461300  0.36811000  0.94506100  1
  C  19  1  0.55643850  0.43306150  0.92555200  1
  C  20  1  0.59593200  0.50337100  0.94450100  1
  C  21  1  0.80047150  0.63728950  0.03944500  1
  C  22  1  0.84535950  0.63041150  0.06806800  1
  C  23  1  0.81395750  0.56490750  0.09054200  1
  C  24  1  0.74268250  0.50511350  0.08232900  1
  C  37  1  0.66765300  0.58471500  0.00506200  1
  C  38  1  0.63066200  0.44159100  0.04140200  1
  C  41  1  0.70471750  0.72782950  0.04140800  1
  C  48  1  0.20051600  0.54398600  0.31521200  1
  C  49  1  0.25212150  0.52702450  0.33410300  1
  C  50  1  0.27358600  0.61702200  0.38570500  1
  C  51  1  0.23040950  0.64204550  0.36492000  1
  C  52  1  0.24760350  0.71751250  0.37278700  1
  C  53  1  0.29931500  0.76237300  0.40143500  1
  C  54  1  0.33334517  0.73094417  0.42394300  1
  C  55  1  0.32206350  0.65977650  0.41565400  1
  C  56  1  0.28086900  0.48559000  0.31586100  1
  C  57  1  0.26112000  0.46170400  0.27826900  1
  C  58  1  0.20807850  0.47367650  0.25878100  1
  C  59  1  0.17718750  0.51308150  0.27774150  1
  C  60  1  0.10490700  0.52758800  0.36498000  1
  C  61  1  0.06192500  0.55275200  0.38583100  1
  C  62  1  0.08319100  0.64259800  0.33412600  1
  C  63  1  0.13461150  0.62542750  0.31518900  1
  C  64  1  0.05452850  0.68412950  0.31590700  1
  C  65  1  0.07427550  0.70802050  0.27831700  1
  C  66  1  0.12722650  0.69595850  0.25879800  1
  C  67  1  0.15803800  0.65647000  0.27775100  1
  C  68  1  0.08773050  0.45214750  0.37290900  1
  C  69  1  0.03621900  0.40744800  0.40166400  1
  C  70  1  0.00236150  0.43899650  0.42421200  1
  C  71  1  0.01363800  0.51015400  0.41587400  1
  C  84  1  0.16761550  0.58477050  0.33831500  1
  C  85  1  0.06116800  0.62154800  0.37458100  1
  C  88  1  0.27407300  0.54803700  0.37456700  1
  C  95  1  0.59385250  0.05172250  0.64856500  1
  C  96  1  0.52530450  0.00011050  0.66747000  1
  C  97  1  0.59390850  0.97886350  0.71911800  1
  C  98  1  0.66208050  0.02200450  0.69830400  1
  C  99  1  0.72035600  0.00481000  0.70616000  1
  C  100  1  0.71356100  0.95317900  0.73484000  1
  C  101  1  0.64810750  0.91912750  0.75735300  1
  C  102  1  0.58818650  0.93035450  0.74904900  1
  C  103  1  0.45513300  0.97112100  0.64918950  1
  C  104  1  0.45096700  0.99083200  0.61159300  1
  C  105  1  0.51594450  0.04397250  0.59211400  1
  C  106  1  0.58623800  0.07498200  0.61108400  1
  C  107  1  0.67303650  0.14745650  0.69829450  1
  C  108  1  0.74118650  0.19051550  0.71913150  1
  C  109  1  0.80978750  0.16920650  0.66746850  1
  C  110  1  0.74120900  0.11773300  0.64853700  1
  C  111  1  0.87998750  0.19790050  0.64925100  1
  C  112  1  0.88416350  0.17813050  0.61167000  1
  C  113  1  0.81915550  0.12514050  0.59216300  1
  C  114  1  0.74884200  0.09430500  0.61109900  1
  C  115  1  0.61476800  0.16465400  0.70616500  1
  C  116  1  0.62152250  0.21613450  0.73492200  1
  C  117  1  0.68698800  0.25018300  0.75742300  1
  C  118  1  0.74686600  0.23887900  0.74913200  1
  C  131  1  0.66754900  0.08472600  0.67166200  1
  C  132  1  0.81073400  0.19122400  0.70792000  1
  C  135  1  0.52440250  0.97829550  0.70795700  1
  C  142  1  0.52448500  0.30842500  0.76842700  1
  C  144  1  0.46841750  0.28013050  0.83096700  1
  C  145  1  0.48399850  0.35474950  0.83545900  1
  C  147  1  0.53305350  0.38158650  0.77131800  1
  C  149  1  0.56349000  0.43748500  0.74243000  1
  C  154  1  0.56880450  0.29248450  0.74431300  1
  C  156  1  0.47973350  0.38026850  0.87134400  1
  C  158  1  0.03464500  0.72791200  0.10171100  1
  C  160  1  0.06207400  0.78352100  0.16435500  1
  C  161  1  0.12147000  0.76844100  0.16873200  1
  C  163  1  0.09953800  0.71983400  0.10450600  1
  C  165  1  0.12531150  0.68992950  0.07550000  1
  C  170  1  0.97447800  0.68340800  0.07761200  1
  C  172  1  0.15136550  0.77274550  0.20459000  1
  C  174  1  0.94421700  0.21810700  0.43523300  1
  C  176  1  0.97207300  0.19046200  0.49789900  1
  C  177  1  0.89759100  0.13100900  0.50215700  1
  C  179  1  0.87125500  0.15316600  0.43790400  1
  C  181  1  0.81574400  0.12746800  0.40881300  1
  C  186  1  0.95998700  0.27836100  0.41118200  1
  C  188  1  0.87182150  0.10096550  0.53797100  1
  C  190  1  0.81065250  0.86096350  0.76836400  1
  C  192  1  0.86664850  0.88922150  0.83092000  1
  C  193  1  0.85105250  0.81459650  0.83540900  1
  C  195  1  0.80208150  0.78779650  0.77125200  1
  C  197  1  0.77167500  0.73191400  0.74235600  1
  C  202  1  0.76635750  0.87691350  0.74423700  1
  C  204  1  0.85523700  0.78904800  0.87130000  1
  C  206  1  0.30060100  0.44161100  0.10167700  1
  C  208  1  0.27318750  0.38603550  0.16432600  1
  C  209  1  0.21382850  0.40116950  0.16871500  1
  C  211  1  0.23574450  0.44974850  0.10448600  1
  C  213  1  0.20998500  0.47967700  0.07548600  1
  C  218  1  0.36075350  0.48606250  0.07755500  1
  C  220  1  0.18395300  0.39688900  0.20457600  1
  C  222  1  0.39156850  0.95168450  0.43496400  1
  C  224  1  0.36310500  0.97946400  0.49746500  1
  C  225  1  0.43775200  0.03840900  0.50202800  1
  C  227  1  0.46477250  0.01620050  0.43792400  1
  C  229  1  0.52078600  0.04161000  0.40909900  1
  C  234  1  0.37561850  0.89144150  0.41083600  1
  C  236  1  0.46319450  0.06806650  0.53794000  1
  H  25  1  0.84390500  0.55914100  0.11237200  1
  H  26  1  0.72319900  0.45653500  0.09773700  1
  H  27  1  0.55701600  0.32353000  0.99621000  1
  H  28  1  0.51876300  0.31672300  0.93190200  1
  H  29  1  0.60183450  0.54939050  0.93036700  1
  H  30  1  0.82413000  0.68666000  0.02475800  1
  H  31  1  0.51121250  0.48272250  0.02480700  1
  H  32  1  0.49121450  0.61048450  0.11221800  1
  H  33  1  0.61192050  0.71307350  0.09757900  1
  H  34  1  0.73330550  0.62000550  0.93031900  1
  H  35  1  0.77788550  0.84587850  0.99610500  1
  H  36  1  0.81592850  0.85263050  0.93175550  1
  H  39  1  0.63937450  0.39370250  0.04577700  1
  H  40  1  0.58478250  0.43338250  0.06017900  1
  H  42  1  0.69634100  0.77589700  0.04591100  1
  H  43  1  0.75052100  0.73568000  0.06013900  1
  H  72  1  0.96676250  0.40914350  0.44609700  1
  H  73  1  0.98457700  0.52967700  0.43128100  1
  H  74  1  0.01729200  0.69565500  0.32945900  1
  H  75  1  0.04882200  0.73395800  0.26515900  1
  H  76  1  0.19812700  0.65052100  0.26361900  1
  H  77  1  0.11332250  0.42840650  0.35818800  1
  H  78  1  0.22189900  0.74116700  0.35809700  1
  H  79  1  0.36908600  0.76091300  0.44576500  1
  H  80  1  0.35121600  0.64033100  0.43104100  1
  H  81  1  0.13707400  0.51900000  0.26361300  1
  H  82  1  0.31820950  0.47417450  0.32938500  1
  H  83  1  0.28663300  0.43584800  0.26509000  1
  H  86  1  0.00425350  0.61216050  0.37870250  1
  H  87  1  0.09827900  0.66760300  0.39342000  1
  H  89  1  0.33085550  0.55712550  0.37878550  1
  H  90  1  0.23674450  0.50209950  0.39340750  1
  H  119  1  0.69267050  0.28572950  0.77932200  1
  H  120  1  0.79544550  0.26797850  0.76454000  1
  H  121  1  0.92873850  0.23517250  0.66280100  1
  H  122  1  0.93555050  0.20361650  0.59850900  1
  H  123  1  0.70281950  0.05419750  0.59696300  1
  H  124  1  0.56542400  0.13899100  0.69145200  1
  H  125  1  0.76969750  0.03049150  0.69145000  1
  H  126  1  0.64239300  0.88348900  0.77921300  1
  H  127  1  0.53963450  0.90128850  0.76448200  1
  H  128  1  0.63224600  0.11514100  0.59695700  1
  H  129  1  0.40639000  0.93377600  0.66272400  1
  H  130  1  0.39960850  0.96521750  0.59840300  1
  H  133  1  0.85829350  0.24811250  0.71206600  1
  H  134  1  0.81960300  0.15407300  0.72676850  1
  H  136  1  0.47671350  0.92153150  0.71222900  1
  H  137  1  0.51581050  0.01569150  0.72674900  1
  H  148  1  0.44884550  0.24259050  0.85308900  1
  H  152  1  0.52415750  0.37081750  0.69530100  1
  H  153  1  0.57146100  0.46253300  0.68608150  1
  H  155  1  0.61517000  0.33631400  0.73396550  1
  H  157  1  0.43555400  0.34661300  0.88748000  1
  H  164  1  0.04388450  0.80272150  0.18654500  1
  H  168  1  0.09750500  0.72937800  0.02850700  1
  H  169  1  0.14242800  0.68262300  0.01915000  1
  H  171  1  0.97199550  0.63713350  0.06716200  1
  H  173  1  0.16190700  0.81693100  0.22072300  1
  H  180  1  0.00933500  0.20858100  0.52014400  1
  H  184  1  0.88322800  0.15563600  0.36191850  1
  H  185  1  0.79161050  0.11060450  0.35240900  1
  H  187  1  0.91624350  0.28090950  0.40071200  1
  H  189  1  0.90536900  0.09031600  0.55412350  1
  H  196  1  0.88618950  0.92674850  0.85305000  1
  H  200  1  0.81101850  0.79853050  0.69525300  1
  H  201  1  0.76373800  0.70683500  0.68597900  1
  H  203  1  0.72003200  0.83308600  0.73385500  1
  H  205  1  0.89938450  0.82268850  0.88745900  1
  H  212  1  0.29136650  0.36681850  0.18651400  1
  H  216  1  0.23769500  0.44008100  0.02847250  1
  H  217  1  0.19284700  0.48693600  0.01916750  1
  H  219  1  0.36321300  0.53229500  0.06706200  1
  H  221  1  0.17340050  0.35270450  0.22071400  1
  H  228  1  0.32548550  0.96151050  0.51955300  1
  H  232  1  0.45420900  0.01458000  0.36189250  1
  H  233  1  0.54598400  0.05876700  0.35281600  1
  H  235  1  0.41944000  0.88892900  0.40045800  1
  H  237  1  0.42949950  0.07850850  0.55409300  1
  N  44  1  0.54242300  0.42513900  0.88805700  1
  N  45  1  0.79249850  0.74420950  0.88798000  1
  N  46  1  0.42249750  0.48402150  0.07896000  1
  N  47  1  0.91275500  0.68548600  0.07899200  1
  N  91  1  0.13342550  0.71003050  0.22130600  1
  N  92  1  0.20189600  0.45960800  0.22128600  1
  N  93  1  0.31174050  0.82982950  0.41231100  1
  N  94  1  0.02383250  0.34003350  0.41259300  1
  N  138  1  0.82709200  0.11898600  0.55467000  1
  N  139  1  0.50805750  0.05020750  0.55462700  1
  N  140  1  0.76861050  0.94078350  0.74571650  1
  N  141  1  0.56649350  0.22858450  0.74577200  1
  N  143  1  0.49262600  0.26190900  0.79892500  1
  N  146  1  0.51525750  0.40169650  0.80523600  1
  N  151  1  0.55428500  0.42183800  0.70460500  1
  N  159  1  0.01966800  0.75930200  0.13230600  1
  N  162  1  0.13746800  0.73763100  0.13841800  1
  N  167  1  0.11879050  0.69934350  0.03770500  1
  N  175  1  0.99041400  0.23299600  0.46589300  1
  N  178  1  0.85095150  0.11509750  0.47177600  1
  N  183  1  0.83190600  0.13423900  0.37104250  1
  N  191  1  0.84248000  0.90746500  0.79887150  1
  N  194  1  0.81982900  0.76766600  0.80517700  1
  N  199  1  0.78093700  0.74760900  0.70453700  1
  N  207  1  0.31557200  0.41021300  0.13227100  1
  N  210  1  0.19783950  0.43198850  0.13840300  1
  N  215  1  0.21642400  0.47023500  0.03768500  1
  N  223  1  0.34494600  0.93706700  0.46541300  1
  N  226  1  0.48480350  0.05405750  0.47185600  1
  N  231  1  0.50533200  0.03536900  0.37125500  1
  O  150  1  0.59495750  0.51052050  0.75273500  1
  O  166  1  0.16725350  0.65877850  0.08565000  1
  O  182  1  0.74261050  0.08532350  0.41884800  1
  O  198  1  0.74018550  0.65887050  0.75265400  1
  O  214  1  0.16811850  0.51090850  0.08564400  1
  O  230  1  0.59380250  0.08292850  0.41948300  1
