# generated using pymatgen
data_H14C11N4
_symmetry_space_group_name_H-M   'P 1'
_cell_length_a   15.85160000
_cell_length_b   35.92370000
_cell_length_c   35.92370000
_cell_angle_alpha   120.00000000
_cell_angle_beta   90.00000000
_cell_angle_gamma   90.00000000
_symmetry_Int_Tables_number   1
_chemical_formula_structural   H14C11N4
_chemical_formula_sum   'H336 C264 N96'
_cell_volume   17716.00761705
_cell_formula_units_Z   24
loop_
 _symmetry_equiv_pos_site_id
 _symmetry_equiv_pos_as_xyz
  1  'x, y, z'
loop_
 _atom_site_type_symbol
 _atom_site_label
 _atom_site_symmetry_multiplicity
 _atom_site_fract_x
 _atom_site_fract_y
 _atom_site_fract_z
 _atom_site_occupancy
  C  1  1  0.08366400  0.45477800  0.62038900  1
  C  2  1  0.10275200  0.49762100  0.61980800  1
  C  3  1  0.00346400  0.43283100  0.58973700  1
  C  4  1  0.91877200  0.46027100  0.59868300  1
  C  7  1  0.94720300  0.49832500  0.59357700  1
  C  8  1  0.02292100  0.52533000  0.62348300  1
  C  13  1  0.99133900  0.53933600  0.67130100  1
  C  14  1  0.97212100  0.50056500  0.68042600  1
  C  17  1  0.90080400  0.47575500  0.64668000  1
  C  20  1  0.04884900  0.46813400  0.66662100  1
  C  23  1  0.74025900  0.15533500  0.54164100  1
  C  24  1  0.75777000  0.11141300  0.49942600  1
  C  25  1  0.65702500  0.14448700  0.55990500  1
  C  26  1  0.57652800  0.12559500  0.52879600  1
  C  29  1  0.60697900  0.08407900  0.48778700  1
  C  30  1  0.68452900  0.09178200  0.46506400  1
  C  35  1  0.66092200  0.12927400  0.45568100  1
  C  36  1  0.63618700  0.17431200  0.49657600  1
  C  39  1  0.56106500  0.16105100  0.51642900  1
  C  42  1  0.70962400  0.19054100  0.53061900  1
  C  45  1  0.42079000  0.37954700  0.83771600  1
  C  46  1  0.43570500  0.38549500  0.88376500  1
  C  47  1  0.33882400  0.40819300  0.84404800  1
  C  48  1  0.25538100  0.39876200  0.86307300  1
  C  51  1  0.28204700  0.40373300  0.90666400  1
  C  52  1  0.35891600  0.37480200  0.90447000  1
  C  57  1  0.33515800  0.32633700  0.86929000  1
  C  58  1  0.31357700  0.31753900  0.82186800  1
  C  61  1  0.23980300  0.35034500  0.83102300  1
  C  64  1  0.39050200  0.33243500  0.80474700  1
  C  67  1  0.57818700  0.54189300  0.38469000  1
  C  68  1  0.59496800  0.50041800  0.38790400  1
  C  69  1  0.49470600  0.56102600  0.41333700  1
  C  70  1  0.41384300  0.53021700  0.40166000  1
  C  73  1  0.44335500  0.48976100  0.40335300  1
  C  74  1  0.52134200  0.46636600  0.37357800  1
  C  79  1  0.49886400  0.45599700  0.32615400  1
  C  80  1  0.47463300  0.49632800  0.32085200  1
  C  83  1  0.39896900  0.51672300  0.35353800  1
  C  86  1  0.54858300  0.52998500  0.33813200  1
  C  89  1  0.25368400  0.83588700  0.45611800  1
  C  90  1  0.26934200  0.88198100  0.49600500  1
  C  91  1  0.17185000  0.84250200  0.43391000  1
  C  92  1  0.08886500  0.86202400  0.46264500  1
  C  95  1  0.11620500  0.90552100  0.50121400  1
  C  96  1  0.19309700  0.90287800  0.52770200  1
  C  101  1  0.16925800  0.86793500  0.54117400  1
  C  102  1  0.14671600  0.82072100  0.50269300  1
  C  105  1  0.07298300  0.83021700  0.47925200  1
  C  108  1  0.22289800  0.80302800  0.47029400  1
  C  111  1  0.90660900  0.61324900  0.15788000  1
  C  112  1  0.92438600  0.61146800  0.11395900  1
  C  113  1  0.82347700  0.58404400  0.14696400  1
  C  114  1  0.74303700  0.59619700  0.12797700  1
  C  117  1  0.77372000  0.59566000  0.08647300  1
  C  118  1  0.85122600  0.62614200  0.09427800  1
  C  123  1  0.82748200  0.67298000  0.13169200  1
  C  124  1  0.80256200  0.67712200  0.17668800  1
  C  127  1  0.72741600  0.64402500  0.16340100  1
  C  130  1  0.87585500  0.65942200  0.19306600  1
  C  133  1  0.58362500  0.84499200  0.37936600  1
  C  134  1  0.58476200  0.89485100  0.39668000  1
  C  135  1  0.67289600  0.83625800  0.39535900  1
  C  136  1  0.75693900  0.84778200  0.37763300  1
  C  139  1  0.74297300  0.89669300  0.39453300  1
  C  140  1  0.66069500  0.90975100  0.37938500  1
  C  145  1  0.66692300  0.88047300  0.32809500  1
  C  146  1  0.67063900  0.82973000  0.30904900  1
  C  149  1  0.74874500  0.81792900  0.32796700  1
  C  152  1  0.59155500  0.81934200  0.32915800  1
  C  155  1  0.90824200  0.62312700  0.46985800  1
  C  156  1  0.90275300  0.60764100  0.50342600  1
  C  157  1  0.99702200  0.60338800  0.44548700  1
  C  158  1  0.08161300  0.61745500  0.47480600  1
  C  161  1  0.05993700  0.60118500  0.50687000  1
  C  162  1  0.97894300  0.62108300  0.53529900  1
  C  167  1  0.99171800  0.67183300  0.55665400  1
  C  168  1  0.00346400  0.68995000  0.52457600  1
  C  171  1  0.08148600  0.66752600  0.49474000  1
  C  174  1  0.92405700  0.67264000  0.49357300  1
  C  177  1  0.23753400  0.52813300  0.15325000  1
  C  178  1  0.23154200  0.49349900  0.10441800  1
  C  179  1  0.32625800  0.55224700  0.15678900  1
  C  180  1  0.41101900  0.52293100  0.14223700  1
  C  183  1  0.38898300  0.48978600  0.09424800  1
  C  184  1  0.30778000  0.46165200  0.08636100  1
  C  189  1  0.32052900  0.44172300  0.11713100  1
  C  190  1  0.33309000  0.47481800  0.16718200  1
  C  193  1  0.41125600  0.50423900  0.17344700  1
  C  196  1  0.25419500  0.50603600  0.18049000  1
  C  199  1  0.07116600  0.15087600  0.62287900  1
  C  200  1  0.06511000  0.10196700  0.60842100  1
  C  201  1  0.15975000  0.15471500  0.60236600  1
  C  202  1  0.24487100  0.14000100  0.61671300  1
  C  205  1  0.22288000  0.09198100  0.60142100  1
  C  206  1  0.14195400  0.08375700  0.62159200  1
  C  211  1  0.15553000  0.11400300  0.67231700  1
  C  212  1  0.16779400  0.16414900  0.68979300  1
  C  215  1  0.24554600  0.17075800  0.66666600  1
  C  218  1  0.08828200  0.17762300  0.67230000  1
  C  221  1  0.41189000  0.37655000  0.53213200  1
  C  222  1  0.41126300  0.39357200  0.49936000  1
  C  223  1  0.50102200  0.39341700  0.55691900  1
  C  224  1  0.58548500  0.37661300  0.52783100  1
  C  227  1  0.57031500  0.39379500  0.49617900  1
  C  228  1  0.48832200  0.37804800  0.46785500  1
  C  233  1  0.49623500  0.32672100  0.44550900  1
  C  234  1  0.50135500  0.30727700  0.47690600  1
  C  237  1  0.57909000  0.32684300  0.50773200  1
  C  240  1  0.42182400  0.32645900  0.50739700  1
  C  243  1  0.75041600  0.46651500  0.84734100  1
  C  244  1  0.75148900  0.49854300  0.89729800  1
  C  245  1  0.83963700  0.44173700  0.83828100  1
  C  246  1  0.92377400  0.47096400  0.85032400  1
  C  249  1  0.90968800  0.50240500  0.89933800  1
  C  250  1  0.82749500  0.53071600  0.91259600  1
  C  255  1  0.83416100  0.55345200  0.88401500  1
  C  256  1  0.83797800  0.52236200  0.83323300  1
  C  259  1  0.91600800  0.49159200  0.82117800  1
  C  262  1  0.75861100  0.49189600  0.82247200  1
  C  265  1  0.97065400  0.60090400  0.56479100  1
  C  266  1  0.97684100  0.62296400  0.61065900  1
  C  267  1  0.01364100  0.60185000  0.63210900  1
  C  268  1  0.04179400  0.55793700  0.60790100  1
  C  269  1  0.05138200  0.54216400  0.56251500  1
  C  270  1  0.98718900  0.55622300  0.54506200  1
  C  283  1  0.65895400  0.95955800  0.39865600  1
  C  284  1  0.62368300  0.98169900  0.37818800  1
  C  285  1  0.65033300  0.02503200  0.39097500  1
  C  286  1  0.70909400  0.04772400  0.42549000  1
  C  287  1  0.75438500  0.02012500  0.43586800  1
  C  288  1  0.70991700  0.98602400  0.43531500  1
  C  301  1  0.29945200  0.43144800  0.03655900  1
  C  302  1  0.30865000  0.38541700  0.01379700  1
  C  303  1  0.34681600  0.36352900  0.97136600  1
  C  304  1  0.37795400  0.38764600  0.95217600  1
  C  305  1  0.38513300  0.43245100  0.98222400  1
  C  306  1  0.31618200  0.45022300  0.01052300  1
  C  319  1  0.48593100  0.39868300  0.43846400  1
  C  320  1  0.45945500  0.37722700  0.39427500  1
  C  321  1  0.48970900  0.39150400  0.36542900  1
  C  322  1  0.54486600  0.42785900  0.38008400  1
  C  323  1  0.58115700  0.44037500  0.42075800  1
  C  324  1  0.53060300  0.43787200  0.45159600  1
  C  337  1  0.13364000  0.03395600  0.60168500  1
  C  338  1  0.14033200  0.01148300  0.62528200  1
  C  339  1  0.17950200  0.96940000  0.60563900  1
  C  340  1  0.21354200  0.95010000  0.56291900  1
  C  341  1  0.22228600  0.97999800  0.54805800  1
  C  342  1  0.15325800  0.00802700  0.55714800  1
  C  355  1  0.82535500  0.56081400  0.96239800  1
  C  356  1  0.79035600  0.60346700  0.98464300  1
  C  357  1  0.81748900  0.63391400  0.02787300  1
  C  358  1  0.87616500  0.62186700  0.05039300  1
  C  359  1  0.92114400  0.58380300  0.02272100  1
  C  360  1  0.87637700  0.55039400  0.98865600  1
  C  373  1  0.84245300  0.54468200  0.80560200  1
  C  374  1  0.91887400  0.56600400  0.80523600  1
  C  375  1  0.96898700  0.55006900  0.76639900  1
  C  376  1  0.93927300  0.51418600  0.72664400  1
  C  377  1  0.86299300  0.49538100  0.73092900  1
  C  378  1  0.80668700  0.52147600  0.76407500  1
  C  391  1  0.50798700  0.25735200  0.45515300  1
  C  392  1  0.58485100  0.23625300  0.43411100  1
  C  393  1  0.63573400  0.21396300  0.45036200  1
  C  394  1  0.60626800  0.20940600  0.48584500  1
  C  395  1  0.53012200  0.23221200  0.50501600  1
  C  396  1  0.47340900  0.23985300  0.47942700  1
  C  409  1  0.18103600  0.19354500  0.73935200  1
  C  410  1  0.25801800  0.19254800  0.76008700  1
  C  411  1  0.30911600  0.23101800  0.78408300  1
  C  412  1  0.28254600  0.27123900  0.78798900  1
  C  413  1  0.20920200  0.26727300  0.76316500  1
  C  414  1  0.14943600  0.23584800  0.75700400  1
  C  427  1  0.34483000  0.45530300  0.19722200  1
  C  428  1  0.42221500  0.43407600  0.19640600  1
  C  429  1  0.47355400  0.44958800  0.23479700  1
  C  430  1  0.44565200  0.48556500  0.27490800  1
  C  431  1  0.37154600  0.50596900  0.27112400  1
  C  432  1  0.31261200  0.48032000  0.23934200  1
  C  445  1  0.01498800  0.73958600  0.54571700  1
  C  446  1  0.09272800  0.75990300  0.56681900  1
  C  447  1  0.14366400  0.78332200  0.55166300  1
  C  448  1  0.11530300  0.78743300  0.51571300  1
  C  449  1  0.04024200  0.76372600  0.49606300  1
  C  450  1  0.98190200  0.75828700  0.52234300  1
  C  463  1  0.67481600  0.80154200  0.25912900  1
  C  464  1  0.75090900  0.80120800  0.23743200  1
  C  465  1  0.80198900  0.76275800  0.21562300  1
  C  466  1  0.77281900  0.72294400  0.21168700  1
  C  467  1  0.69679400  0.72666400  0.23461900  1
  C  468  1  0.64004900  0.75987400  0.24222100  1
  C  481  1  0.32606200  0.38922700  0.55759100  1
  C  482  1  0.24346400  0.37503500  0.53866800  1
  C  483  1  0.16948100  0.38867700  0.56516100  1
  C  484  1  0.16719400  0.42742700  0.60576800  1
  C  485  1  0.24981000  0.44131500  0.62458200  1
  C  486  1  0.32296400  0.41556600  0.60345400  1
  C  499  1  0.98409700  0.16377600  0.61098700  1
  C  500  1  0.90168700  0.15986400  0.62608400  1
  C  501  1  0.82610400  0.16852300  0.60948500  1
  C  502  1  0.82401000  0.16721800  0.56907500  1
  C  503  1  0.90642500  0.17352000  0.55570200  1
  C  504  1  0.97973500  0.18031200  0.58215900  1
  C  517  1  0.66460900  0.44112200  0.83498200  1
  C  518  1  0.58226800  0.46031800  0.83981900  1
  C  519  1  0.50806200  0.43402000  0.82637200  1
  C  520  1  0.50503400  0.39404900  0.82580200  1
  C  521  1  0.58724600  0.37520200  0.82211700  1
  C  522  1  0.66077700  0.39537900  0.81652200  1
  C  535  1  0.82152000  0.61113900  0.44495800  1
  C  536  1  0.73916300  0.62613900  0.46400800  1
  C  537  1  0.66392700  0.60982400  0.43859400  1
  C  538  1  0.66180600  0.56919200  0.39980300  1
  C  539  1  0.74419700  0.55527600  0.38032300  1
  C  540  1  0.81736900  0.58188800  0.39966100  1
  C  553  1  0.49769700  0.83286400  0.39240600  1
  C  554  1  0.41562300  0.83758200  0.37770900  1
  C  555  1  0.34129000  0.82413100  0.39036500  1
  C  556  1  0.33782000  0.82357500  0.42974400  1
  C  557  1  0.41979400  0.81984800  0.44511900  1
  C  558  1  0.49362300  0.81424700  0.41953800  1
  C  571  1  0.15049000  0.55279200  0.16611900  1
  C  572  1  0.06828400  0.53360700  0.16225000  1
  C  573  1  0.99262600  0.55879300  0.17107800  1
  C  574  1  0.99037300  0.59793700  0.16988300  1
  C  575  1  0.07260400  0.61779300  0.17622600  1
  C  576  1  0.14604200  0.59816800  0.18290000  1
  C  589  1  0.67764900  0.39079400  0.54389300  1
  C  590  1  0.75209500  0.37848200  0.51640900  1
  C  591  1  0.83139700  0.40022300  0.53350500  1
  C  592  1  0.83498700  0.44019000  0.57311900  1
  C  593  1  0.75363300  0.45679800  0.59181300  1
  C  594  1  0.68831500  0.42719000  0.58535600  1
  C  607  1  0.33630600  0.13840100  0.59906100  1
  C  608  1  0.41008300  0.11976500  0.60797100  1
  C  609  1  0.48735600  0.11237600  0.58365300  1
  C  610  1  0.49171100  0.11810500  0.54703600  1
  C  611  1  0.41109300  0.12515300  0.53350300  1
  C  612  1  0.34613600  0.14629600  0.56427600  1
  C  625  1  0.01582800  0.45444600  0.84747300  1
  C  626  1  0.09035000  0.48171400  0.86314700  1
  C  627  1  0.16889200  0.46433500  0.86821100  1
  C  628  1  0.17186200  0.42418800  0.86763800  1
  C  629  1  0.09064000  0.40471800  0.86343000  1
  C  630  1  0.02603500  0.41232600  0.84075600  1
  C  643  1  0.17303600  0.60027300  0.45864000  1
  C  644  1  0.24674400  0.60965900  0.48626400  1
  C  645  1  0.32463600  0.58607000  0.46923600  1
  C  646  1  0.32909000  0.54897700  0.42717600  1
  C  647  1  0.24845400  0.53491900  0.40670600  1
  C  648  1  0.18321200  0.56547600  0.41601300  1
  C  661  1  0.84912500  0.84525500  0.39133800  1
  C  662  1  0.92348500  0.86071800  0.37933500  1
  C  663  1  0.00203800  0.86656500  0.40202200  1
  C  664  1  0.00518600  0.86661200  0.44189700  1
  C  665  1  0.92409000  0.86265800  0.45741600  1
  C  666  1  0.85966600  0.83943500  0.42727200  1
  C  679  1  0.50252500  0.53887000  0.14059300  1
  C  680  1  0.57637800  0.51131300  0.12228100  1
  C  681  1  0.65377600  0.52816700  0.11488600  1
  C  682  1  0.65823500  0.57043700  0.12040700  1
  C  683  1  0.57764400  0.59100200  0.12725900  1
  C  684  1  0.51259800  0.58151900  0.14845700  1
  H  5  1  0.98548200  0.40395100  0.59063300  1
  H  6  1  0.02635600  0.42300100  0.55762200  1
  H  9  1  0.96261000  0.48347900  0.55954800  1
  H  10  1  0.89580700  0.52022400  0.59876400  1
  H  11  1  0.14140500  0.48963200  0.59235400  1
  H  12  1  0.14450200  0.51858300  0.64604000  1
  H  15  1  0.93522400  0.55962300  0.67883600  1
  H  16  1  0.03912600  0.55965600  0.69381800  1
  H  18  1  0.84663800  0.49699800  0.65864000  1
  H  19  1  0.88308400  0.44609800  0.64558800  1
  H  21  1  0.09733400  0.48221500  0.69084900  1
  H  22  1  0.02990800  0.43904400  0.66698300  1
  H  27  1  0.63545700  0.17330800  0.58886800  1
  H  28  1  0.67784500  0.12180700  0.56954500  1
  H  31  1  0.62292200  0.06035700  0.49713400  1
  H  32  1  0.55598800  0.07010600  0.46462200  1
  H  33  1  0.77444600  0.08899300  0.51047000  1
  H  34  1  0.81244600  0.11348300  0.48246700  1
  H  37  1  0.60741400  0.11934700  0.43361300  1
  H  38  1  0.71445300  0.13262900  0.43868000  1
  H  40  1  0.51026400  0.15221100  0.49325000  1
  H  41  1  0.53855800  0.18800500  0.54626600  1
  H  43  1  0.76029600  0.20233700  0.51923100  1
  H  44  1  0.68874400  0.21868200  0.56040200  1
  H  49  1  0.32134500  0.40570200  0.81344800  1
  H  50  1  0.35949000  0.44084400  0.86546800  1
  H  53  1  0.29691000  0.43776600  0.92641900  1
  H  54  1  0.23015400  0.39753500  0.92251600  1
  H  55  1  0.45322200  0.41899600  0.90331000  1
  H  56  1  0.48919900  0.36709200  0.88481500  1
  H  59  1  0.28183800  0.31576900  0.88103900  1
  H  60  1  0.38843900  0.30639900  0.86702100  1
  H  62  1  0.18732400  0.33781400  0.84083200  1
  H  63  1  0.22001000  0.35079300  0.80238800  1
  H  65  1  0.44048500  0.30911500  0.79603200  1
  H  66  1  0.37349400  0.33122400  0.77468100  1
  H  71  1  0.47377000  0.58953400  0.41240900  1
  H  72  1  0.51518400  0.57153100  0.44588300  1
  H  75  1  0.45827000  0.50023300  0.43678200  1
  H  76  1  0.39247000  0.46659100  0.39449700  1
  H  77  1  0.61037500  0.51257500  0.42168600  1
  H  78  1  0.65018500  0.48297900  0.36974100  1
  H  81  1  0.44566300  0.43370100  0.31403100  1
  H  82  1  0.55292900  0.43899700  0.30627100  1
  H  84  1  0.34825400  0.49345400  0.33938500  1
  H  85  1  0.37652800  0.54624200  0.35567800  1
  H  87  1  0.59945200  0.51781400  0.31505400  1
  H  88  1  0.52880500  0.55953700  0.33899300  1
  H  93  1  0.15370000  0.81190400  0.40598400  1
  H  94  1  0.19282600  0.86363800  0.42238300  1
  H  97  1  0.13142500  0.92523400  0.48693900  1
  H  98  1  0.06462400  0.92157500  0.52341100  1
  H  99  1  0.28652300  0.90148300  0.48189500  1
  H  100  1  0.32316600  0.88302800  0.51527100  1
  H  103  1  0.11621600  0.87987700  0.56365500  1
  H  104  1  0.22274000  0.86557500  0.55869100  1
  H  106  1  0.02078600  0.84042000  0.50179400  1
  H  107  1  0.05263800  0.80165100  0.45027100  1
  H  109  1  0.27283000  0.79382400  0.48448700  1
  H  110  1  0.20475900  0.77310600  0.44152900  1
  H  115  1  0.80183100  0.58389800  0.17577300  1
  H  116  1  0.84440600  0.55173500  0.12431100  1
  H  119  1  0.78981200  0.56259200  0.06281000  1
  H  120  1  0.72283500  0.60478500  0.07239100  1
  H  121  1  0.94111000  0.57799700  0.09157700  1
  H  122  1  0.97907400  0.63049400  0.11603600  1
  H  125  1  0.77404200  0.68509900  0.12169600  1
  H  126  1  0.88106700  0.69330600  0.13506600  1
  H  128  1  0.67668800  0.65835400  0.15450300  1
  H  129  1  0.70476200  0.64116500  0.19034700  1
  H  131  1  0.92640400  0.68267600  0.20497000  1
  H  132  1  0.85483500  0.65773100  0.22115600  1
  H  137  1  0.67715500  0.80237400  0.38455100  1
  H  138  1  0.67327600  0.85289100  0.43052300  1
  H  141  1  0.74449200  0.91052700  0.42920500  1
  H  142  1  0.79472900  0.91222400  0.38787900  1
  H  143  1  0.58645600  0.91110700  0.43173600  1
  H  144  1  0.52737300  0.90635200  0.38967900  1
  H  147  1  0.72296700  0.89086000  0.31814500  1
  H  148  1  0.61373500  0.88615200  0.31250500  1
  H  150  1  0.80549100  0.81687000  0.31094600  1
  H  151  1  0.74385000  0.78469400  0.32106400  1
  H  153  1  0.53709300  0.82360700  0.31375200  1
  H  154  1  0.59113900  0.78550900  0.32039700  1
  H  159  1  0.00537400  0.61395100  0.42235500  1
  H  160  1  0.99222100  0.56831400  0.42696700  1
  H  163  1  0.05400700  0.56623500  0.48675100  1
  H  164  1  0.11039800  0.60515400  0.52890700  1
  H  165  1  0.89817300  0.57303600  0.48337200  1
  H  166  1  0.84597000  0.61743700  0.52282600  1
  H  169  1  0.04633600  0.68021300  0.57775600  1
  H  170  1  0.93757900  0.68885300  0.57651900  1
  H  172  1  0.13906400  0.68245500  0.51163900  1
  H  173  1  0.08245200  0.67449600  0.46838400  1
  H  175  1  0.87029200  0.69008000  0.51250100  1
  H  176  1  0.92862600  0.68067700  0.46813600  1
  H  181  1  0.33490000  0.57632800  0.19011800  1
  H  182  1  0.32109000  0.56973400  0.13919500  1
  H  185  1  0.38347500  0.50915100  0.07862200  1
  H  186  1  0.43925600  0.46740200  0.07665000  1
  H  187  1  0.22589500  0.51259900  0.08893200  1
  H  188  1  0.17503600  0.47394500  0.09542700  1
  H  191  1  0.37478800  0.42033200  0.10474700  1
  H  192  1  0.26604800  0.42235600  0.11509300  1
  H  194  1  0.46873400  0.48731000  0.17158600  1
  H  195  1  0.41275300  0.53118900  0.20652000  1
  H  197  1  0.20035200  0.48771800  0.18020700  1
  H  198  1  0.25997400  0.53230800  0.21363700  1
  H  203  1  0.16828000  0.18815200  0.61197600  1
  H  204  1  0.15430600  0.13743000  0.56729700  1
  H  207  1  0.21729600  0.07684900  0.56650200  1
  H  208  1  0.27323400  0.07416500  0.60581300  1
  H  209  1  0.05822800  0.08640500  0.57388200  1
  H  210  1  0.00913400  0.09316900  0.61955200  1
  H  213  1  0.21018000  0.10140300  0.68080300  1
  H  214  1  0.10163600  0.11171000  0.68981400  1
  H  216  1  0.30325000  0.16884700  0.68156600  1
  H  217  1  0.24680500  0.20387800  0.67300700  1
  H  219  1  0.03477800  0.17697200  0.69035300  1
  H  220  1  0.09358600  0.21087900  0.67955200  1
  H  225  1  0.50641500  0.38266700  0.58000500  1
  H  226  1  0.49991800  0.42857400  0.57546400  1
  H  229  1  0.57057300  0.42844400  0.51728200  1
  H  230  1  0.62205000  0.38796000  0.47416700  1
  H  231  1  0.40918200  0.42853200  0.51820200  1
  H  232  1  0.35482800  0.38482600  0.47989100  1
  H  235  1  0.55215300  0.31736700  0.42512900  1
  H  236  1  0.44307100  0.31084600  0.42432400  1
  H  238  1  0.63628900  0.31042300  0.49171100  1
  H  239  1  0.57506400  0.31967500  0.53391800  1
  H  241  1  0.36760400  0.31067400  0.48770100  1
  H  242  1  0.42235900  0.31754000  0.53234400  1
  H  247  1  0.84390300  0.41915000  0.80426400  1
  H  248  1  0.83987100  0.42269200  0.85437500  1
  H  251  1  0.91083700  0.48116600  0.91272000  1
  H  252  1  0.96154400  0.52442200  0.91514500  1
  H  253  1  0.75307200  0.47937600  0.91317400  1
  H  254  1  0.69408700  0.51701600  0.90890500  1
  H  257  1  0.89032100  0.57369500  0.89471200  1
  H  258  1  0.78113200  0.57487500  0.88994100  1
  H  260  1  0.97279900  0.50777000  0.82056800  1
  H  261  1  0.91140900  0.46562200  0.78781200  1
  H  263  1  0.70426900  0.51177300  0.82720300  1
  H  264  1  0.75784800  0.46732000  0.78853600  1
  H  272  1  0.02681100  0.65568000  0.69093500  1
  H  273  1  0.07628800  0.61375400  0.68581700  1
  H  275  1  0.88888200  0.66730000  0.61878900  1
  H  276  1  0.92324400  0.67313400  0.66385400  1
  H  278  1  0.09710600  0.50141100  0.50230700  1
  H  279  1  0.11897200  0.48504200  0.53565000  1
  H  281  1  0.87952500  0.53405300  0.51165200  1
  H  282  1  0.94763200  0.49595200  0.50071100  1
  H  290  1  0.60481700  0.02698700  0.33880400  1
  H  291  1  0.66451900  0.06774600  0.37008200  1
  H  293  1  0.52662200  0.93985600  0.34956600  1
  H  294  1  0.52299900  0.98064900  0.34200600  1
  H  296  1  0.87142100  0.04528700  0.44184400  1
  H  297  1  0.86759600  0.00453100  0.45115100  1
  H  299  1  0.66807100  0.96789900  0.47737100  1
  H  300  1  0.74123900  0.00542800  0.49768800  1
  H  308  1  0.36034200  0.30448600  0.96598900  1
  H  309  1  0.41008300  0.30980200  0.92937800  1
  H  311  1  0.22407800  0.37689200  0.05077700  1
  H  312  1  0.26309600  0.33195300  0.01342300  1
  H  314  1  0.44606800  0.48929700  0.00312200  1
  H  315  1  0.49953800  0.44674800  0.96858900  1
  H  317  1  0.21743600  0.48948400  0.02226000  1
  H  318  1  0.29330800  0.49755500  0.99644900  1
  H  326  1  0.45529000  0.33811000  0.30907800  1
  H  327  1  0.51432500  0.37149800  0.30259200  1
  H  329  1  0.36140200  0.34621300  0.40332500  1
  H  330  1  0.36689600  0.33757000  0.35455300  1
  H  332  1  0.70189100  0.44971900  0.40813200  1
  H  333  1  0.68758500  0.45889700  0.45770700  1
  H  335  1  0.48179800  0.47678800  0.51101200  1
  H  336  1  0.55390500  0.50045200  0.49708300  1
  H  344  1  0.19020200  0.96485600  0.65988800  1
  H  345  1  0.24154000  0.92796600  0.61873500  1
  H  347  1  0.05247400  0.04812900  0.66929600  1
  H  348  1  0.08989000  0.01072300  0.67730500  1
  H  350  1  0.28874000  0.00133700  0.51394300  1
  H  351  1  0.33893800  0.96608300  0.52233600  1
  H  353  1  0.05933200  0.02028600  0.52787500  1
  H  354  1  0.13798600  0.99479000  0.49575100  1
  H  362  1  0.77272300  0.68816500  0.02983100  1
  H  363  1  0.83255900  0.69748700  0.07051500  1
  H  365  1  0.69283800  0.59049400  0.94308500  1
  H  366  1  0.68963900  0.63880200  0.98401300  1
  H  368  1  0.03829800  0.60272300  0.04782900  1
  H  369  1  0.03412200  0.55270200  0.00701300  1
  H  371  1  0.83462200  0.49009800  0.97006600  1
  H  372  1  0.90791500  0.50705400  0.00753300  1
  H  380  1  0.07476200  0.58513400  0.79595900  1
  H  381  1  0.08825600  0.55011700  0.74561200  1
  H  383  1  0.89572500  0.61634800  0.86489900  1
  H  384  1  0.98091700  0.62255600  0.84312000  1
  H  386  1  0.89816200  0.43259000  0.69877400  1
  H  387  1  0.80094700  0.43982600  0.71739200  1
  H  389  1  0.68378100  0.53721000  0.77977400  1
  H  390  1  0.69936100  0.50101300  0.72848800  1
  H  398  1  0.74291500  0.21085700  0.41700600  1
  H  399  1  0.75690200  0.19689900  0.45303300  1
  H  401  1  0.56216500  0.24524600  0.38342500  1
  H  402  1  0.64814200  0.21805100  0.37801100  1
  H  404  1  0.56201100  0.25781100  0.56793200  1
  H  405  1  0.46695500  0.27194000  0.56086800  1
  H  407  1  0.35082800  0.23767400  0.46253200  1
  H  408  1  0.36701000  0.22289600  0.49892100  1
  H  416  1  0.41246200  0.20118400  0.79145800  1
  H  417  1  0.42790500  0.25116000  0.80591200  1
  H  419  1  0.23200800  0.13314500  0.75092100  1
  H  420  1  0.31931800  0.15308600  0.77706200  1
  H  422  1  0.24941400  0.29996500  0.73378500  1
  H  423  1  0.15306400  0.28039000  0.71956200  1
  H  425  1  0.02623600  0.22510600  0.76269700  1
  H  426  1  0.04793200  0.27537800  0.77585300  1
  H  434  1  0.57908300  0.41478900  0.20457200  1
  H  435  1  0.59389700  0.45084000  0.25454100  1
  H  437  1  0.39673000  0.38285500  0.13757000  1
  H  438  1  0.48420900  0.37761000  0.15814600  1
  H  440  1  0.40634200  0.56847400  0.30754500  1
  H  441  1  0.31119800  0.56219000  0.28645300  1
  H  443  1  0.18928600  0.46338700  0.22790200  1
  H  444  1  0.20952400  0.50093300  0.27815100  1
  H  452  1  0.24834300  0.78978600  0.58775300  1
  H  453  1  0.26278000  0.80428000  0.55219400  1
  H  455  1  0.06822000  0.75057100  0.61696400  1
  H  456  1  0.15597800  0.77632700  0.62261500  1
  H  458  1  0.07745000  0.73340100  0.43347900  1
  H  459  1  0.98004600  0.72138100  0.44006400  1
  H  461  1  0.85882200  0.76291200  0.53938800  1
  H  462  1  0.87809500  0.77660000  0.50244700  1
  H  470  1  0.90882400  0.79313400  0.21237400  1
  H  471  1  0.92349600  0.74339100  0.19925200  1
  H  473  1  0.72727700  0.86045300  0.24545700  1
  H  474  1  0.81268100  0.83828600  0.21774200  1
  H  476  1  0.72871400  0.68930300  0.26016600  1
  H  477  1  0.63385400  0.71065600  0.27449500  1
  H  479  1  0.51727200  0.77491800  0.24102600  1
  H  480  1  0.53322500  0.72380800  0.22654000  1
  H  488  1  0.14054000  0.33015200  0.55354900  1
  H  489  1  0.06993600  0.35249200  0.53968700  1
  H  491  1  0.26613700  0.33819900  0.47338300  1
  H  492  1  0.16739900  0.34247500  0.48556200  1
  H  494  1  0.32216200  0.48787800  0.67246500  1
  H  495  1  0.22165600  0.49652000  0.68113200  1
  H  497  1  0.40293100  0.37995800  0.61589600  1
  H  498  1  0.37006400  0.42220600  0.65922400  1
  H  506  1  0.77938400  0.21064300  0.66632100  1
  H  507  1  0.72102600  0.16971900  0.63853700  1
  H  509  1  0.92902100  0.13844100  0.66856200  1
  H  510  1  0.82961200  0.14184400  0.66210400  1
  H  512  1  0.97851800  0.17377600  0.50847000  1
  H  513  1  0.87829600  0.17171300  0.49877300  1
  H  515  1  0.06539400  0.22731800  0.61398100  1
  H  516  1  0.02854000  0.22706600  0.57181400  1
  H  524  1  0.48052100  0.44916700  0.78151800  1
  H  525  1  0.40559900  0.45653100  0.81408800  1
  H  527  1  0.60484800  0.52567500  0.87028200  1
  H  528  1  0.50614400  0.51347600  0.86083100  1
  H  530  1  0.65886100  0.32858400  0.82368500  1
  H  531  1  0.55844700  0.32200100  0.82704400  1
  H  533  1  0.74171500  0.38045400  0.76802300  1
  H  534  1  0.70844500  0.33845600  0.76911300  1
  H  542  1  0.62011900  0.66780000  0.45349500  1
  H  543  1  0.55696500  0.64000400  0.46369800  1
  H  545  1  0.76507100  0.66708300  0.52840700  1
  H  546  1  0.66581200  0.66133500  0.51771600  1
  H  548  1  0.81646100  0.50735300  0.33362500  1
  H  549  1  0.71635100  0.49731500  0.32631900  1
  H  551  1  0.90220600  0.61317400  0.38391200  1
  H  552  1  0.86678400  0.57021100  0.34226700  1
  H  560  1  0.31477000  0.77922800  0.33012000  1
  H  561  1  0.23828400  0.81044500  0.35564100  1
  H  563  1  0.43851900  0.86757000  0.34232800  1
  H  564  1  0.33976400  0.85817800  0.34511200  1
  H  566  1  0.49092700  0.82161000  0.49354700  1
  H  567  1  0.39044700  0.82499800  0.50330200  1
  H  569  1  0.57410000  0.76594400  0.38604700  1
  H  570  1  0.54033000  0.76698900  0.42919600  1
  H  578  1  0.94634400  0.54392400  0.21316100  1
  H  579  1  0.88775200  0.53081900  0.17232900  1
  H  581  1  0.09590800  0.46965900  0.14064800  1
  H  582  1  0.99645400  0.47947300  0.14420300  1
  H  584  1  0.14445200  0.66540400  0.17657700  1
  H  585  1  0.04421600  0.67287100  0.17437800  1
  H  587  1  0.23214000  0.61322200  0.22969900  1
  H  588  1  0.19484400  0.65521100  0.22973500  1
  H  596  1  0.91014100  0.35612200  0.48721600  1
  H  597  1  0.93685800  0.40648800  0.50661300  1
  H  599  1  0.70108400  0.33363600  0.45782500  1
  H  600  1  0.79486700  0.34717300  0.45382500  1
  H  602  1  0.77007900  0.52169500  0.61924500  1
  H  603  1  0.67499700  0.50835300  0.62539500  1
  H  605  1  0.61688900  0.40902800  0.61994700  1
  H  606  1  0.65613700  0.45712400  0.64870300  1
  H  614  1  0.56809300  0.09646400  0.61876800  1
  H  615  1  0.59132800  0.07445700  0.56775800  1
  H  617  1  0.36156000  0.10984500  0.65587100  1
  H  618  1  0.45062800  0.08758500  0.63889800  1
  H  620  1  0.42676500  0.09096100  0.46847300  1
  H  621  1  0.33304500  0.11248400  0.48309500  1
  H  623  1  0.28138400  0.20134900  0.58809600  1
  H  624  1  0.31464400  0.18445700  0.53940400  1
  H  632  1  0.24862400  0.51117000  0.87222100  1
  H  633  1  0.27203600  0.49159700  0.90349200  1
  H  635  1  0.04026700  0.54048000  0.87669400  1
  H  636  1  0.13307800  0.54429000  0.89498800  1
  H  638  1  0.10429800  0.37738300  0.90107500  1
  H  639  1  0.01061000  0.37037000  0.87976200  1
  H  641  1  0.95617500  0.37965900  0.78740800  1
  H  642  1  0.99407700  0.34935700  0.80544000  1
  H  650  1  0.40476700  0.62326900  0.51966500  1
  H  651  1  0.42859900  0.57211000  0.49253600  1
  H  653  1  0.19705800  0.65621600  0.54450500  1
  H  654  1  0.28667800  0.63940500  0.54936200  1
  H  656  1  0.26420000  0.47005300  0.37684700  1
  H  657  1  0.17028600  0.48439200  0.36983600  1
  H  659  1  0.11634800  0.58821000  0.38406200  1
  H  660  1  0.15132200  0.53979900  0.35292500  1
  H  668  1  0.08183100  0.87057500  0.35913500  1
  H  669  1  0.10534300  0.90188300  0.40997600  1
  H  671  1  0.87285300  0.87285200  0.33332200  1
  H  672  1  0.96572500  0.89136200  0.34724500  1
  H  674  1  0.93799500  0.90109900  0.52226200  1
  H  675  1  0.84437700  0.87957400  0.50831400  1
  H  677  1  0.78918800  0.78614100  0.40778300  1
  H  678  1  0.82756900  0.80492300  0.45602500  1
  H  686  1  0.73450100  0.47715600  0.09912000  1
  H  687  1  0.75785300  0.50608000  0.07706100  1
  H  689  1  0.52763100  0.45369500  0.11278100  1
  H  690  1  0.61729500  0.44824400  0.09101100  1
  H  692  1  0.59358500  0.62178100  0.09302900  1
  H  693  1  0.49979900  0.62874800  0.11450500  1
  H  695  1  0.44863700  0.61293300  0.20373100  1
  H  696  1  0.48182500  0.64463800  0.18669700  1
  N  271  1  0.03305600  0.62473800  0.67479400  1
  N  274  1  0.93236100  0.66021200  0.63319500  1
  N  277  1  0.09332200  0.50678800  0.53167900  1
  N  280  1  0.93788600  0.52653500  0.51253300  1
  N  289  1  0.63175200  0.04333900  0.36658300  1
  N  292  1  0.55632100  0.96416600  0.35129500  1
  N  295  1  0.83743500  0.02570100  0.44683700  1
  N  298  1  0.71049500  0.98432600  0.47236500  1
  N  307  1  0.36728200  0.32096600  0.95162400  1
  N  310  1  0.26864200  0.36287300  0.02986000  1
  N  313  1  0.44519300  0.45895100  0.98134500  1
  N  316  1  0.27656500  0.48554700  0.01433400  1
  N  325  1  0.47954100  0.36664000  0.32203100  1
  N  328  1  0.39522900  0.34815700  0.38191200  1
  N  331  1  0.66290400  0.45306400  0.43047300  1
  N  334  1  0.52574400  0.47391200  0.49107700  1
  N  343  1  0.19867400  0.95018600  0.62911700  1
  N  346  1  0.09677200  0.02718600  0.66287500  1
  N  349  1  0.28568700  0.97950800  0.52239600  1
  N  352  1  0.11856200  0.01285000  0.52513800  1
  N  361  1  0.79953400  0.67667700  0.04616300  1
  N  364  1  0.72276100  0.61298400  0.96737200  1
  N  367  1  0.00413800  0.57822700  0.02823100  1
  N  370  1  0.87709300  0.51147500  0.98658000  1
  N  379  1  0.04864700  0.56552500  0.76872500  1
  N  382  1  0.93770200  0.60310700  0.84221400  1
  N  385  1  0.85091900  0.45210800  0.71198100  1
  N  388  1  0.72206700  0.51748000  0.75744800  1
  N  397  1  0.71686100  0.20298000  0.43646300  1
  N  400  1  0.60388300  0.23614300  0.39705400  1
  N  403  1  0.51637000  0.25384300  0.54824000  1
  N  406  1  0.38894600  0.23595800  0.48284400  1
  N  415  1  0.38739400  0.22843600  0.79844400  1
  N  418  1  0.27518400  0.15509100  0.75955600  1
  N  421  1  0.20155600  0.28571000  0.73816400  1
  N  424  1  0.06596200  0.24556500  0.76239200  1
  N  433  1  0.55362100  0.43441700  0.23197900  1
  N  436  1  0.43984900  0.39674700  0.15945000  1
  N  439  1  0.35979400  0.54932300  0.29224800  1
  N  442  1  0.22896800  0.48395400  0.24861700  1
  N  451  1  0.22272800  0.79698200  0.56774900  1
  N  454  1  0.11137600  0.75898200  0.60341500  1
  N  457  1  0.03023000  0.73871400  0.45275200  1
  N  460  1  0.89809300  0.76366500  0.51897800  1
  N  469  1  0.88315500  0.76577600  0.20477100  1
  N  472  1  0.76908300  0.83774600  0.23636600  1
  N  475  1  0.68307900  0.70505800  0.25624600  1
  N  478  1  0.55549000  0.75284900  0.23913300  1
  N  487  1  0.11448600  0.35730800  0.56015400  1
  N  490  1  0.22532800  0.34838900  0.49600000  1
  N  493  1  0.26495100  0.47754200  0.66309700  1
  N  496  1  0.37838300  0.40840100  0.62831900  1
  N  505  1  0.76179700  0.18928900  0.63745100  1
  N  508  1  0.88645800  0.14737900  0.65586100  1
  N  511  1  0.92133300  0.17475800  0.51881200  1
  N  514  1  0.03629900  0.21099900  0.58674600  1
  N  523  1  0.45459100  0.43923500  0.79955700  1
  N  526  1  0.56413200  0.50310200  0.85668000  1
  N  529  1  0.60173000  0.33777600  0.82227600  1
  N  532  1  0.71619800  0.36948100  0.78512100  1
  N  541  1  0.60205800  0.63862200  0.44476000  1
  N  544  1  0.72306800  0.65525700  0.50637600  1
  N  547  1  0.75924700  0.51775400  0.34282400  1
  N  550  1  0.87446100  0.58560600  0.37323200  1
  N  559  1  0.28870800  0.79670200  0.35817200  1
  N  562  1  0.39774400  0.85418700  0.35153500  1
  N  565  1  0.43389300  0.82013900  0.48280600  1
  N  568  1  0.54931300  0.78298700  0.41428200  1
  N  577  1  0.92852500  0.55148900  0.19187400  1
  N  580  1  0.05326200  0.49129000  0.14966900  1
  N  583  1  0.08731900  0.65596700  0.17752500  1
  N  586  1  0.20272400  0.62422300  0.21354200  1
  N  595  1  0.90357900  0.38567200  0.50998700  1
  N  598  1  0.75077700  0.34868200  0.47316500  1
  N  601  1  0.73313600  0.49930200  0.61623900  1
  N  604  1  0.64255200  0.43355300  0.62014100  1
  N  613  1  0.55646900  0.09470700  0.59150200  1
  N  616  1  0.40913100  0.10685700  0.63817100  1
  N  619  1  0.39057800  0.11061800  0.49155600  1
  N  622  1  0.30162200  0.17726700  0.56151000  1
  N  631  1  0.24062600  0.48833500  0.87880700  1
  N  634  1  0.08946000  0.52497900  0.87663500  1
  N  637  1  0.06866800  0.37984600  0.88077500  1
  N  640  1  0.97998300  0.37816600  0.81142700  1
  N  649  1  0.39448900  0.59548300  0.49454300  1
  N  652  1  0.24526200  0.63923700  0.52956100  1
  N  655  1  0.22811000  0.49286300  0.37957400  1
  N  658  1  0.13852200  0.56224300  0.38214100  1
  N  667  1  0.07351200  0.87736000  0.38859400  1
  N  670  1  0.92226700  0.87335500  0.34890000  1
  N  673  1  0.90234400  0.88051500  0.49970800  1
  N  676  1  0.81432100  0.81031900  0.43270100  1
  N  685  1  0.72292300  0.50263900  0.09732300  1
  N  688  1  0.57535500  0.46830900  0.10977700  1
  N  691  1  0.55729500  0.61838200  0.11266700  1
  N  694  1  0.46857100  0.61538000  0.17956300  1
