# generated using pymatgen
data_Al2Cu2H12C16N8O11
_symmetry_space_group_name_H-M   'P 1'
_cell_length_a   13.51423000
_cell_length_b   18.91688000
_cell_length_c   24.43307000
_cell_angle_alpha   89.96586000
_cell_angle_beta   89.96873000
_cell_angle_gamma   90.02816000
_symmetry_Int_Tables_number   1
_chemical_formula_structural   Al2Cu2H12C16N8O11
_chemical_formula_sum   'Al16 Cu16 H96 C128 N64 O88'
_cell_volume   6246.23989375
_cell_formula_units_Z   8
loop_
 _symmetry_equiv_pos_site_id
 _symmetry_equiv_pos_as_xyz
  1  'x, y, z'
loop_
 _atom_site_type_symbol
 _atom_site_label
 _atom_site_symmetry_multiplicity
 _atom_site_fract_x
 _atom_site_fract_y
 _atom_site_fract_z
 _atom_site_occupancy
  Al  Al0  1  0.00073000  0.00029000  0.00104000  1
  Al  Al1  1  0.25046000  0.00006000  0.99987000  1
  Al  Al2  1  0.50063000  0.00019000  0.00010000  1
  Al  Al3  1  0.75054000  0.99942000  0.00156000  1
  Al  Al4  1  0.99987000  0.49987000  0.99977000  1
  Al  Al5  1  0.25014000  0.49994000  0.99967000  1
  Al  Al6  1  0.49994000  0.49984000  0.99981000  1
  Al  Al7  1  0.75008000  0.49980000  0.99997000  1
  Al  Al8  1  0.99949000  0.99986000  0.49998000  1
  Al  Al9  1  0.24955000  0.99995000  0.50079000  1
  Al  Al10  1  0.49971000  0.00010000  0.50040000  1
  Al  Al11  1  0.74962000  0.00013000  0.49966000  1
  Al  Al12  1  0.00165000  0.50010000  0.49997000  1
  Al  Al13  1  0.25172000  0.49928000  0.50104000  1
  Al  Al14  1  0.50177000  0.50004000  0.49996000  1
  Al  Al15  1  0.75173000  0.49995000  0.49913000  1
  Cu  Cu16  1  0.25186000  0.24831000  0.74983000  1
  Cu  Cu17  1  0.00408000  0.25221000  0.74995000  1
  Cu  Cu18  1  0.75125000  0.24982000  0.75017000  1
  Cu  Cu19  1  0.49933000  0.24802000  0.75086000  1
  Cu  Cu20  1  0.24945000  0.74997000  0.74953000  1
  Cu  Cu21  1  0.99678000  0.74948000  0.75006000  1
  Cu  Cu22  1  0.74980000  0.75028000  0.75077000  1
  Cu  Cu23  1  0.49672000  0.74803000  0.74993000  1
  Cu  Cu24  1  0.25353000  0.24951000  0.25020000  1
  Cu  Cu25  1  0.00479000  0.25110000  0.24981000  1
  Cu  Cu26  1  0.75643000  0.24684000  0.25046000  1
  Cu  Cu27  1  0.50781000  0.25422000  0.24994000  1
  Cu  Cu28  1  0.25049000  0.75033000  0.24956000  1
  Cu  Cu29  1  0.00023000  0.74925000  0.25117000  1
  Cu  Cu30  1  0.74879000  0.75046000  0.25031000  1
  Cu  Cu31  1  0.50145000  0.75097000  0.24989000  1
  H  H32  1  0.28502000  0.15041000  0.85929000  1
  H  H33  1  0.96378000  0.15377000  0.64232000  1
  H  H34  1  0.21506000  0.35281000  0.85531000  1
  H  H35  1  0.53824000  0.34940000  0.64337000  1
  H  H36  1  0.21819000  0.34185000  0.63721000  1
  H  H37  1  0.53553000  0.34584000  0.85956000  1
  H  H38  1  0.28431000  0.14668000  0.64238000  1
  H  H39  1  0.96451000  0.15617000  0.85946000  1
  H  H40  1  0.12479000  0.91027000  0.98390000  1
  H  H41  1  0.37514000  0.08814000  0.01859000  1
  H  H42  1  0.18392000  0.38349000  0.73226000  1
  H  H43  1  0.07008000  0.39189000  0.73483000  1
  H  H44  1  0.43084000  0.09985000  0.75373000  1
  H  H45  1  0.31621000  0.10305000  0.75417000  1
  H  H46  1  0.78849000  0.15363000  0.85866000  1
  H  H47  1  0.46602000  0.14885000  0.64323000  1
  H  H48  1  0.71545000  0.34482000  0.85919000  1
  H  H49  1  0.03494000  0.34525000  0.63835000  1
  H  H50  1  0.71458000  0.34661000  0.64160000  1
  H  H51  1  0.03592000  0.35388000  0.85615000  1
  H  H52  1  0.78658000  0.15339000  0.64168000  1
  H  H53  1  0.46784000  0.15222000  0.86064000  1
  H  H54  1  0.62549000  0.91092000  0.98238000  1
  H  H55  1  0.87459000  0.08818000  0.98444000  1
  H  H56  1  0.28488000  0.65308000  0.85868000  1
  H  H57  1  0.96279000  0.64679000  0.64454000  1
  H  H58  1  0.21393000  0.85163000  0.85697000  1
  H  H59  1  0.53514000  0.84519000  0.64080000  1
  H  H60  1  0.21460000  0.84822000  0.64042000  1
  H  H61  1  0.53445000  0.84716000  0.85798000  1
  H  H62  1  0.28337000  0.65443000  0.64071000  1
  H  H63  1  0.96447000  0.65583000  0.86174000  1
  H  H64  1  0.12493000  0.41096000  0.01675000  1
  H  H65  1  0.37503000  0.59141000  0.01215000  1
  H  H66  1  0.42881000  0.60377000  0.74025000  1
  H  H67  1  0.31854000  0.60517000  0.75789000  1
  H  H68  1  0.78377000  0.66102000  0.86327000  1
  H  H69  1  0.46638000  0.65199000  0.63974000  1
  H  H70  1  0.71446000  0.84967000  0.85852000  1
  H  H71  1  0.03335000  0.84544000  0.63990000  1
  H  H72  1  0.71285000  0.84780000  0.64152000  1
  H  H73  1  0.03501000  0.84938000  0.85791000  1
  H  H74  1  0.78693000  0.64892000  0.64576000  1
  H  H75  1  0.46398000  0.64758000  0.85740000  1
  H  H76  1  0.62495000  0.40953000  0.98535000  1
  H  H77  1  0.87503000  0.59006000  0.01538000  1
  H  H78  1  0.81048000  0.61127000  0.76265000  1
  H  H79  1  0.92451000  0.61059000  0.76793000  1
  H  H80  1  0.28826000  0.14853000  0.35784000  1
  H  H81  1  0.96817000  0.15113000  0.14249000  1
  H  H82  1  0.21679000  0.34123000  0.35975000  1
  H  H83  1  0.53672000  0.35065000  0.14024000  1
  H  H84  1  0.21613000  0.34300000  0.14111000  1
  H  H85  1  0.53700000  0.35551000  0.35683000  1
  H  H86  1  0.28888000  0.15002000  0.14223000  1
  H  H87  1  0.96804000  0.15785000  0.36119000  1
  H  H88  1  0.12483000  0.91106000  0.48216000  1
  H  H89  1  0.37478000  0.08932000  0.48557000  1
  H  H90  1  0.07419000  0.39932000  0.25482000  1
  H  H91  1  0.18827000  0.39825000  0.24812000  1
  H  H92  1  0.78563000  0.15165000  0.36219000  1
  H  H93  1  0.46669000  0.16004000  0.14062000  1
  H  H94  1  0.71876000  0.34855000  0.35764000  1
  H  H95  1  0.03728000  0.35123000  0.14187000  1
  H  H96  1  0.71686000  0.34132000  0.13954000  1
  H  H97  1  0.03959000  0.35056000  0.35746000  1
  H  H98  1  0.78616000  0.14031000  0.14559000  1
  H  H99  1  0.46524000  0.15647000  0.35786000  1
  H  H100  1  0.62496000  0.91132000  0.51756000  1
  H  H101  1  0.87472000  0.08723000  0.52006000  1
  H  H102  1  0.68916000  0.38932000  0.24241000  1
  H  H103  1  0.57642000  0.40418000  0.24195000  1
  H  H104  1  0.94149000  0.10988000  0.26164000  1
  H  H105  1  0.82766000  0.10417000  0.26684000  1
  H  H106  1  0.28900000  0.65317000  0.35794000  1
  H  H107  1  0.96413000  0.64757000  0.14413000  1
  H  H108  1  0.21419000  0.85082000  0.35622000  1
  H  H109  1  0.53526000  0.84634000  0.13991000  1
  H  H110  1  0.21490000  0.84520000  0.13951000  1
  H  H111  1  0.53476000  0.84886000  0.35850000  1
  H  H112  1  0.28445000  0.65396000  0.14089000  1
  H  H113  1  0.96852000  0.65402000  0.36175000  1
  H  H114  1  0.12624000  0.41263000  0.48000000  1
  H  H115  1  0.37532000  0.58842000  0.48436000  1
  H  H116  1  0.78476000  0.65327000  0.35993000  1
  H  H117  1  0.46462000  0.64966000  0.14265000  1
  H  H118  1  0.71496000  0.85414000  0.35523000  1
  H  H119  1  0.03656000  0.85027000  0.14339000  1
  H  H120  1  0.71659000  0.84060000  0.13798000  1
  H  H121  1  0.03523000  0.84409000  0.36028000  1
  H  H122  1  0.78513000  0.65035000  0.14254000  1
  H  H123  1  0.46426000  0.65397000  0.35942000  1
  H  H124  1  0.62596000  0.40993000  0.51312000  1
  H  H125  1  0.87559000  0.58729000  0.52018000  1
  H  H126  1  0.67269000  0.89174000  0.22883000  1
  H  H127  1  0.56500000  0.89304000  0.25040000  1
  C  C128  1  0.20725000  0.15846000  0.85067000  1
  C  C129  1  0.04205000  0.15908000  0.65079000  1
  C  C130  1  0.29309000  0.34389000  0.84805000  1
  C  C131  1  0.46011000  0.34102000  0.65078000  1
  C  C132  1  0.29581000  0.33775000  0.64789000  1
  C  C133  1  0.45758000  0.34047000  0.85015000  1
  C  C134  1  0.20659000  0.15548000  0.65077000  1
  C  C135  1  0.04278000  0.16142000  0.85088000  1
  C  C136  1  0.12417000  0.13319000  0.87916000  1
  C  C137  1  0.12306000  0.12995000  0.62285000  1
  C  C138  1  0.37533000  0.36981000  0.87697000  1
  C  C139  1  0.37868000  0.36624000  0.62095000  1
  C  C140  1  0.12402000  0.08559000  0.92646000  1
  C  C141  1  0.12192000  0.08172000  0.57611000  1
  C  C142  1  0.37521000  0.41804000  0.92383000  1
  C  C143  1  0.37933000  0.41446000  0.57398000  1
  C  C144  1  0.71024000  0.15999000  0.85051000  1
  C  C145  1  0.54395000  0.15696000  0.65137000  1
  C  C146  1  0.79358000  0.34012000  0.85000000  1
  C  C147  1  0.95723000  0.33954000  0.64834000  1
  C  C148  1  0.79282000  0.33999000  0.64964000  1
  C  C149  1  0.95807000  0.34462000  0.84847000  1
  C  C150  1  0.70849000  0.15926000  0.65051000  1
  C  C151  1  0.54568000  0.15907000  0.85149000  1
  C  C152  1  0.62885000  0.13292000  0.87939000  1
  C  C153  1  0.62649000  0.13091000  0.62295000  1
  C  C154  1  0.87516000  0.36973000  0.87720000  1
  C  C155  1  0.87448000  0.36640000  0.62056000  1
  C  C156  1  0.62944000  0.08506000  0.92660000  1
  C  C157  1  0.62635000  0.08294000  0.57590000  1
  C  C158  1  0.87483000  0.41809000  0.92399000  1
  C  C159  1  0.87461000  0.41420000  0.57328000  1
  C  C160  1  0.20670000  0.65986000  0.85041000  1
  C  C161  1  0.04080000  0.65593000  0.65171000  1
  C  C162  1  0.29187000  0.84350000  0.84874000  1
  C  C163  1  0.45695000  0.83918000  0.64931000  1
  C  C164  1  0.29241000  0.84065000  0.64926000  1
  C  C165  1  0.45634000  0.84134000  0.84920000  1
  C  C166  1  0.20536000  0.65970000  0.64997000  1
  C  C167  1  0.04228000  0.66115000  0.85177000  1
  C  C168  1  0.12482000  0.63373000  0.87948000  1
  C  C169  1  0.12343000  0.63041000  0.62290000  1
  C  C170  1  0.37457000  0.86994000  0.87695000  1
  C  C171  1  0.37522000  0.86679000  0.62098000  1
  C  C172  1  0.12502000  0.58526000  0.92644000  1
  C  C173  1  0.12433000  0.58186000  0.57622000  1
  C  C174  1  0.37512000  0.91816000  0.92380000  1
  C  C175  1  0.37526000  0.91474000  0.57392000  1
  C  C176  1  0.70595000  0.66407000  0.85292000  1
  C  C177  1  0.54406000  0.65785000  0.64978000  1
  C  C178  1  0.79247000  0.84277000  0.84994000  1
  C  C179  1  0.95542000  0.83922000  0.64903000  1
  C  C180  1  0.79093000  0.84048000  0.64968000  1
  C  C181  1  0.95692000  0.84262000  0.84954000  1
  C  C182  1  0.70854000  0.65663000  0.65259000  1
  C  C183  1  0.54174000  0.65770000  0.85018000  1
  C  C184  1  0.62433000  0.63412000  0.87985000  1
  C  C185  1  0.62760000  0.63005000  0.62314000  1
  C  C186  1  0.87497000  0.86975000  0.87796000  1
  C  C187  1  0.87329000  0.86655000  0.62095000  1
  C  C188  1  0.62492000  0.58570000  0.92673000  1
  C  C189  1  0.62917000  0.58211000  0.57599000  1
  C  C190  1  0.87522000  0.91674000  0.92556000  1
  C  C191  1  0.87407000  0.91412000  0.57363000  1
  C  C192  1  0.21039000  0.15749000  0.35004000  1
  C  C193  1  0.04632000  0.15794000  0.15074000  1
  C  C194  1  0.29514000  0.33790000  0.35085000  1
  C  C195  1  0.45910000  0.34213000  0.14911000  1
  C  C196  1  0.29459000  0.33850000  0.14935000  1
  C  C197  1  0.45946000  0.34494000  0.34920000  1
  C  C198  1  0.21095000  0.15756000  0.15071000  1
  C  C199  1  0.04604000  0.16181000  0.35146000  1
  C  C200  1  0.12755000  0.13288000  0.37912000  1
  C  C201  1  0.12856000  0.13037000  0.12277000  1
  C  C202  1  0.37587000  0.36839000  0.37820000  1
  C  C203  1  0.37558000  0.36687000  0.12078000  1
  C  C204  1  0.12628000  0.08538000  0.42650000  1
  C  C205  1  0.12863000  0.08200000  0.07611000  1
  C  C206  1  0.37493000  0.41655000  0.42511000  1
  C  C207  1  0.37480000  0.41457000  0.07355000  1
  C  C208  1  0.70824000  0.15903000  0.35211000  1
  C  C209  1  0.54487000  0.16212000  0.15016000  1
  C  C210  1  0.79693000  0.34199000  0.34928000  1
  C  C211  1  0.95948000  0.34203000  0.14967000  1
  C  C212  1  0.79506000  0.33725000  0.14874000  1
  C  C213  1  0.96159000  0.34313000  0.34910000  1
  C  C214  1  0.70889000  0.15238000  0.15264000  1
  C  C215  1  0.54382000  0.16178000  0.35021000  1
  C  C216  1  0.62396000  0.13352000  0.37947000  1
  C  C217  1  0.62503000  0.12987000  0.12343000  1
  C  C218  1  0.87907000  0.36993000  0.37715000  1
  C  C219  1  0.87632000  0.36645000  0.12082000  1
  C  C220  1  0.62228000  0.08537000  0.42638000  1
  C  C221  1  0.62360000  0.08196000  0.07646000  1
  C  C222  1  0.87920000  0.41830000  0.42380000  1
  C  C223  1  0.87536000  0.41424000  0.07363000  1
  C  C224  1  0.21070000  0.66008000  0.35017000  1
  C  C225  1  0.04209000  0.65599000  0.15203000  1
  C  C226  1  0.29235000  0.84350000  0.34828000  1
  C  C227  1  0.45732000  0.83942000  0.14869000  1
  C  C228  1  0.29284000  0.83865000  0.14843000  1
  C  C229  1  0.45685000  0.84264000  0.34926000  1
  C  C230  1  0.20649000  0.65916000  0.15036000  1
  C  C231  1  0.04620000  0.66050000  0.35200000  1
  C  C232  1  0.12934000  0.63340000  0.37936000  1
  C  C233  1  0.12444000  0.63033000  0.12317000  1
  C  C234  1  0.37433000  0.87026000  0.37683000  1
  C  C235  1  0.37501000  0.86587000  0.12032000  1
  C  C236  1  0.12972000  0.58539000  0.42656000  1
  C  C237  1  0.12480000  0.58281000  0.07582000  1
  C  C238  1  0.37461000  0.91800000  0.42417000  1
  C  C239  1  0.37506000  0.91422000  0.07332000  1
  C  C240  1  0.70686000  0.66026000  0.35102000  1
  C  C241  1  0.54262000  0.65672000  0.15124000  1
  C  C242  1  0.79286000  0.84438000  0.34818000  1
  C  C243  1  0.95860000  0.84128000  0.15101000  1
  C  C244  1  0.79432000  0.83691000  0.14851000  1
  C  C245  1  0.95728000  0.83946000  0.35072000  1
  C  C246  1  0.70710000  0.65708000  0.15118000  1
  C  C247  1  0.54236000  0.66059000  0.35090000  1
  C  C248  1  0.62441000  0.63343000  0.37924000  1
  C  C249  1  0.62497000  0.62943000  0.12322000  1
  C  C250  1  0.87531000  0.86951000  0.37725000  1
  C  C251  1  0.87650000  0.86604000  0.12151000  1
  C  C252  1  0.62461000  0.58536000  0.42626000  1
  C  C253  1  0.62505000  0.58164000  0.07610000  1
  C  C254  1  0.87520000  0.91817000  0.42389000  1
  C  C255  1  0.87567000  0.91479000  0.07475000  1
  N  N256  1  0.07569000  0.19966000  0.80815000  1
  N  N257  1  0.17665000  0.19587000  0.69289000  1
  N  N258  1  0.42603000  0.30090000  0.80792000  1
  N  N259  1  0.32644000  0.29964000  0.69128000  1
  N  N260  1  0.42757000  0.30174000  0.69300000  1
  N  N261  1  0.32481000  0.30319000  0.80650000  1
  N  N262  1  0.07543000  0.19824000  0.69281000  1
  N  N263  1  0.17688000  0.19768000  0.80795000  1
  N  N264  1  0.57604000  0.19773000  0.80841000  1
  N  N265  1  0.67644000  0.19838000  0.69294000  1
  N  N266  1  0.92741000  0.30420000  0.80654000  1
  N  N267  1  0.82530000  0.30154000  0.69236000  1
  N  N268  1  0.92659000  0.30131000  0.69165000  1
  N  N269  1  0.82611000  0.30119000  0.80757000  1
  N  N270  1  0.57510000  0.19679000  0.69356000  1
  N  N271  1  0.67739000  0.19839000  0.80788000  1
  N  N272  1  0.07325000  0.69935000  0.80846000  1
  N  N273  1  0.17335000  0.69877000  0.69241000  1
  N  N274  1  0.42409000  0.80178000  0.80714000  1
  N  N275  1  0.32330000  0.80143000  0.69181000  1
  N  N276  1  0.42454000  0.80043000  0.69187000  1
  N  N277  1  0.32284000  0.80314000  0.80683000  1
  N  N278  1  0.07202000  0.69635000  0.69353000  1
  N  N279  1  0.17457000  0.69847000  0.80762000  1
  N  N280  1  0.57264000  0.69750000  0.80786000  1
  N  N281  1  0.67518000  0.69617000  0.69446000  1
  N  N282  1  0.92489000  0.80326000  0.80729000  1
  N  N283  1  0.82243000  0.80152000  0.69228000  1
  N  N284  1  0.92368000  0.80071000  0.69186000  1
  N  N285  1  0.82368000  0.80342000  0.80755000  1
  N  N286  1  0.57385000  0.69704000  0.69273000  1
  N  N287  1  0.67374000  0.70162000  0.80955000  1
  N  N288  1  0.07853000  0.19971000  0.30836000  1
  N  N289  1  0.17959000  0.19751000  0.19273000  1
  N  N290  1  0.42995000  0.30461000  0.30700000  1
  N  N291  1  0.32815000  0.30085000  0.19228000  1
  N  N292  1  0.42944000  0.30310000  0.19210000  1
  N  N293  1  0.32876000  0.30013000  0.30801000  1
  N  N294  1  0.07826000  0.19765000  0.19283000  1
  N  N295  1  0.17965000  0.19705000  0.30762000  1
  N  N296  1  0.57840000  0.20014000  0.30796000  1
  N  N297  1  0.67996000  0.19394000  0.19422000  1
  N  N298  1  0.93034000  0.30328000  0.30699000  1
  N  N299  1  0.82811000  0.29935000  0.19168000  1
  N  N300  1  0.92929000  0.30241000  0.19219000  1
  N  N301  1  0.82904000  0.30246000  0.30710000  1
  N  N302  1  0.57909000  0.20028000  0.19257000  1
  N  N303  1  0.67957000  0.19830000  0.30904000  1
  N  N304  1  0.07650000  0.69935000  0.30898000  1
  N  N305  1  0.17477000  0.69812000  0.19293000  1
  N  N306  1  0.42569000  0.80348000  0.30660000  1
  N  N307  1  0.32459000  0.79987000  0.19115000  1
  N  N308  1  0.42589000  0.80050000  0.19144000  1
  N  N309  1  0.32435000  0.80399000  0.30607000  1
  N  N310  1  0.07349000  0.69605000  0.19404000  1
  N  N311  1  0.17782000  0.69902000  0.30784000  1
  N  N312  1  0.57426000  0.69967000  0.30841000  1
  N  N313  1  0.67536000  0.69694000  0.19323000  1
  N  N314  1  0.92532000  0.80014000  0.30838000  1
  N  N315  1  0.82568000  0.79885000  0.19177000  1
  N  N316  1  0.92688000  0.80170000  0.19334000  1
  N  N317  1  0.82415000  0.80348000  0.30669000  1
  N  N318  1  0.57412000  0.69665000  0.19326000  1
  N  N319  1  0.67551000  0.69940000  0.30849000  1
  O  O320  1  0.37562000  0.04294000  0.99993000  1
  O  O321  1  0.12485000  0.36496000  0.75008000  1
  O  O322  1  0.37520000  0.13204000  0.74995000  1
  O  O323  1  0.20868000  0.06655000  0.94457000  1
  O  O324  1  0.03690000  0.06310000  0.55773000  1
  O  O325  1  0.29073000  0.43738000  0.94194000  1
  O  O326  1  0.46420000  0.43332000  0.55547000  1
  O  O327  1  0.29501000  0.43384000  0.55588000  1
  O  O328  1  0.46007000  0.43662000  0.94248000  1
  O  O329  1  0.20605000  0.06231000  0.55785000  1
  O  O330  1  0.03911000  0.06723000  0.94518000  1
  O  O331  1  0.12527000  0.95727000  0.99960000  1
  O  O332  1  0.87542000  0.04252000  0.00250000  1
  O  O333  1  0.71453000  0.06634000  0.94488000  1
  O  O334  1  0.54170000  0.06356000  0.55808000  1
  O  O335  1  0.78997000  0.43679000  0.94245000  1
  O  O336  1  0.95931000  0.43325000  0.55533000  1
  O  O337  1  0.78971000  0.43254000  0.55475000  1
  O  O338  1  0.95929000  0.43747000  0.94202000  1
  O  O339  1  0.71140000  0.06526000  0.55711000  1
  O  O340  1  0.54486000  0.06631000  0.94483000  1
  O  O341  1  0.62527000  0.95690000  0.99983000  1
  O  O342  1  0.37497000  0.54255000  0.00035000  1
  O  O343  1  0.37496000  0.63543000  0.75003000  1
  O  O344  1  0.20961000  0.56623000  0.94456000  1
  O  O345  1  0.03967000  0.56275000  0.55777000  1
  O  O346  1  0.29038000  0.93717000  0.94215000  1
  O  O347  1  0.46008000  0.93355000  0.55533000  1
  O  O348  1  0.29089000  0.93382000  0.55566000  1
  O  O349  1  0.45983000  0.93718000  0.94209000  1
  O  O350  1  0.20887000  0.56255000  0.55817000  1
  O  O351  1  0.04045000  0.56617000  0.94463000  1
  O  O352  1  0.12504000  0.45741000  0.99996000  1
  O  O353  1  0.87500000  0.54266000  0.00040000  1
  O  O354  1  0.87017000  0.63507000  0.74997000  1
  O  O355  1  0.70974000  0.56698000  0.94479000  1
  O  O356  1  0.54484000  0.56288000  0.55769000  1
  O  O357  1  0.79028000  0.93396000  0.94476000  1
  O  O358  1  0.95883000  0.93268000  0.55537000  1
  O  O359  1  0.78932000  0.93288000  0.55497000  1
  O  O360  1  0.95990000  0.93609000  0.94365000  1
  O  O361  1  0.71447000  0.56394000  0.55774000  1
  O  O362  1  0.54016000  0.56657000  0.94478000  1
  O  O363  1  0.62502000  0.45727000  0.99967000  1
  O  O364  1  0.37468000  0.04285000  0.50234000  1
  O  O365  1  0.13033000  0.36786000  0.24992000  1
  O  O366  1  0.21096000  0.06673000  0.44522000  1
  O  O367  1  0.04436000  0.06255000  0.05799000  1
  O  O368  1  0.28993000  0.43377000  0.44439000  1
  O  O369  1  0.45934000  0.43364000  0.05529000  1
  O  O370  1  0.28981000  0.43308000  0.05514000  1
  O  O371  1  0.45945000  0.43711000  0.44229000  1
  O  O372  1  0.21350000  0.06320000  0.05756000  1
  O  O373  1  0.04139000  0.06675000  0.44456000  1
  O  O374  1  0.12470000  0.95701000  0.49966000  1
  O  O375  1  0.87463000  0.04292000  0.50012000  1
  O  O376  1  0.62515000  0.36793000  0.25012000  1
  O  O377  1  0.87996000  0.13191000  0.24989000  1
  O  O378  1  0.70625000  0.06576000  0.44472000  1
  O  O379  1  0.53879000  0.06353000  0.05785000  1
  O  O380  1  0.79491000  0.43758000  0.44200000  1
  O  O381  1  0.96020000  0.43321000  0.05508000  1
  O  O382  1  0.79068000  0.43294000  0.05538000  1
  O  O383  1  0.96417000  0.43724000  0.44217000  1
  O  O384  1  0.70777000  0.06246000  0.05804000  1
  O  O385  1  0.53732000  0.06663000  0.44478000  1
  O  O386  1  0.62483000  0.95723000  0.49992000  1
  O  O387  1  0.37619000  0.54254000  0.50207000  1
  O  O388  1  0.21472000  0.56647000  0.44481000  1
  O  O389  1  0.03994000  0.56406000  0.05757000  1
  O  O390  1  0.28979000  0.93611000  0.44299000  1
  O  O391  1  0.45983000  0.93320000  0.05531000  1
  O  O392  1  0.29027000  0.93280000  0.05512000  1
  O  O393  1  0.45941000  0.93690000  0.44206000  1
  O  O394  1  0.20987000  0.56497000  0.05733000  1
  O  O395  1  0.04512000  0.56675000  0.44480000  1
  O  O396  1  0.12635000  0.45684000  0.50006000  1
  O  O397  1  0.87643000  0.54315000  0.50002000  1
  O  O398  1  0.62501000  0.86463000  0.25008000  1
  O  O399  1  0.70899000  0.56616000  0.44448000  1
  O  O400  1  0.54036000  0.56291000  0.05763000  1
  O  O401  1  0.79074000  0.93760000  0.44184000  1
  O  O402  1  0.95972000  0.93366000  0.05578000  1
  O  O403  1  0.79043000  0.93407000  0.05765000  1
  O  O404  1  0.96005000  0.93697000  0.44231000  1
  O  O405  1  0.70982000  0.56285000  0.05772000  1
  O  O406  1  0.53979000  0.56658000  0.44485000  1
  O  O407  1  0.62650000  0.45715000  0.49769000  1
