# generated using pymatgen
data_H13C15N6O
_symmetry_space_group_name_H-M   'P 1'
_cell_length_a   29.16140000
_cell_length_b   32.27905162
_cell_length_c   32.27520000
_cell_angle_alpha   60.00384127
_cell_angle_beta   90.00000000
_cell_angle_gamma   89.11900141
_symmetry_Int_Tables_number   1
_chemical_formula_structural   H13C15N6O
_chemical_formula_sum   'H156 C180 N72 O12'
_cell_volume   26307.34772777
_cell_formula_units_Z   12
loop_
 _symmetry_equiv_pos_site_id
 _symmetry_equiv_pos_as_xyz
  1  'x, y, z'
loop_
 _atom_site_type_symbol
 _atom_site_label
 _atom_site_symmetry_multiplicity
 _atom_site_fract_x
 _atom_site_fract_y
 _atom_site_fract_z
 _atom_site_occupancy
  H  1  1  0.58019000  0.53755300  0.43357800  1
  H  7  1  0.23288100  0.43392800  0.53751400  1
  H  15  1  0.89950700  0.54150100  0.41987300  1
  H  17  1  0.82616900  0.54534600  0.40031300  1
  H  19  1  0.98969700  0.43708200  0.50289800  1
  H  25  1  0.35827300  0.60396900  0.32254300  1
  H  32  1  0.91912100  0.03052400  0.53426100  1
  H  41  1  0.07180700  0.97477200  0.56646400  1
  H  42  1  0.87249200  0.86625700  0.58765900  1
  H  43  1  0.12597000  0.13251500  0.46324700  1
  H  44  1  0.02246400  0.92290200  0.58104300  1
  H  45  1  0.97041500  0.08326600  0.49965200  1
  H  50  1  0.16454400  0.05558700  0.54055600  1
  H  51  1  0.99462100  0.83880500  0.60597600  1
  H  52  1  0.82918000  0.94359400  0.56159700  1
  H  53  1  0.00188200  0.16588400  0.44132000  1
  H  64  1  0.73190500  0.57045400  0.45588500  1
  H  65  1  0.52907000  0.59399900  0.54142900  1
  H  66  1  0.78951400  0.46959600  0.39850700  1
  H  67  1  0.68147100  0.58988100  0.48831200  1
  H  68  1  0.63286100  0.50550000  0.41266600  1
  H  72  1  0.65638900  0.65632000  0.49838000  1
  H  73  1  0.48878800  0.56596300  0.49245100  1
  H  74  1  0.66584900  0.44874200  0.38632500  1
  H  81  1  0.24235800  0.43798800  0.02527400  1
  H  90  1  0.39405500  0.46461800  0.97028900  1
  H  91  1  0.19221900  0.55068000  0.86086800  1
  H  92  1  0.45043000  0.40479100  0.12906300  1
  H  93  1  0.34351100  0.49780900  0.91848600  1
  H  94  1  0.29470600  0.41359200  0.07921700  1
  H  99  1  0.48939100  0.40909600  0.05013300  1
  H  100  1  0.32257600  0.54226300  0.83499500  1
  H  101  1  0.15027600  0.49705900  0.93784100  1
  H  102  1  0.33002500  0.38477500  0.16492300  1
  H  109  1  0.41824800  0.97737000  0.45948300  1
  H  118  1  0.57003500  0.03239200  0.42851100  1
  H  119  1  0.36282700  0.14171800  0.39369400  1
  H  120  1  0.62779800  0.87400500  0.53074400  1
  H  121  1  0.51841700  0.08423200  0.40344600  1
  H  122  1  0.47117600  0.92423500  0.49001000  1
  H  127  1  0.66511300  0.95113300  0.45428700  1
  H  128  1  0.49793800  0.16459600  0.35513000  1
  H  129  1  0.32599500  0.06502400  0.42796100  1
  H  130  1  0.50526800  0.84046100  0.54931300  1
  H  133  1  0.08070800  0.46498700  0.56211200  1
  H  142  1  0.03231100  0.41325400  0.44982600  1
  H  143  1  0.28790500  0.53752900  0.59182300  1
  H  144  1  0.18311900  0.42178600  0.49824000  1
  H  145  1  0.13216000  0.50117900  0.57866200  1
  H  149  1  0.32659600  0.46039400  0.59173300  1
  H  150  1  0.15467300  0.39714100  0.43921400  1
  H  151  1  0.16379600  0.55917200  0.60340300  1
  H  158  1  0.74217100  0.56793500  0.96559300  1
  H  167  1  0.89423300  0.54579900  0.02232400  1
  H  168  1  0.69369700  0.45749100  0.12953200  1
  H  169  1  0.95161400  0.60252100  0.86564900  1
  H  170  1  0.84436700  0.51144500  0.07347300  1
  H  171  1  0.79467300  0.59004600  0.91303200  1
  H  176  1  0.98808200  0.60084000  0.94311100  1
  H  177  1  0.82491000  0.48431500  0.15410000  1
  H  178  1  0.65162800  0.50845400  0.05234900  1
  H  179  1  0.82725300  0.61379200  0.83220200  1
  H  186  1  0.23802900  0.04182100  0.53419000  1
  H  190  1  0.30567100  0.90310300  0.46528000  1
  H  192  1  0.19763100  0.93095400  0.39612000  1
  H  193  1  0.19310300  0.86813600  0.43396700  1
  H  194  1  0.21062600  0.89275100  0.37358500  1
  H  196  1  0.27686100  0.83811200  0.40318900  1
  H  197  1  0.27419900  0.81780100  0.46535300  1
  H  198  1  0.32222300  0.85017200  0.43121300  1
  H  208  1  0.96717900  0.47028400  0.62745400  1
  H  210  1  0.85951000  0.40438000  0.66836900  1
  H  211  1  0.85352400  0.44180400  0.69385200  1
  H  212  1  0.87233600  0.38131000  0.72918300  1
  H  214  1  0.93691600  0.41130700  0.75437600  1
  H  215  1  0.93393900  0.47340700  0.71209500  1
  H  216  1  0.98248700  0.43818900  0.71461800  1
  H  225  1  0.56190600  0.42776000  0.03282100  1
  H  229  1  0.62776400  0.63408000  0.89918300  1
  H  231  1  0.51920300  0.67731700  0.92233700  1
  H  232  1  0.51342300  0.70265600  0.85943200  1
  H  233  1  0.53161500  0.73786800  0.88438300  1
  H  235  1  0.59662200  0.76149100  0.82958100  1
  H  236  1  0.59437600  0.71911100  0.80993500  1
  H  237  1  0.64247800  0.72067600  0.84294300  1
  H  246  1  0.73824100  0.96520600  0.45867100  1
  H  250  1  0.80604400  0.10021500  0.52988000  1
  H  252  1  0.69803800  0.07707800  0.59571300  1
  H  253  1  0.69190000  0.13998800  0.55803400  1
  H  254  1  0.71055300  0.11502900  0.61837300  1
  H  256  1  0.77514000  0.16969300  0.58771400  1
  H  257  1  0.77233700  0.18922900  0.52569200  1
  H  258  1  0.82084600  0.15624100  0.56067300  1
  H  263  1  0.39965600  0.46413500  0.57241600  1
  H  266  1  0.46701900  0.53617500  0.36561600  1
  H  268  1  0.35345000  0.56613700  0.29753000  1
  H  269  1  0.37107900  0.62630300  0.26199600  1
  H  271  1  0.43690300  0.59530800  0.23820500  1
  H  272  1  0.43472100  0.53329300  0.28056200  1
  H  273  1  0.48257000  0.56755600  0.27889400  1
  H  280  1  0.06128800  0.58001100  0.95972400  1
  H  284  1  0.12760200  0.37137500  0.09707500  1
  H  286  1  0.02020400  0.33133300  0.06884900  1
  H  287  1  0.01498700  0.30596400  0.13171400  1
  H  288  1  0.03319200  0.27043600  0.10671400  1
  H  290  1  0.09875500  0.24458600  0.16165800  1
  H  291  1  0.09567100  0.28628800  0.18219100  1
  H  292  1  0.14405800  0.28419000  0.14973300  1
  H  301  1  0.07377600  0.19784500  0.54155700  1
  H  305  1  0.14842800  0.37354000  0.37260900  1
  H  307  1  0.04974700  0.39373200  0.29327800  1
  H  308  1  0.08970000  0.41515300  0.24613600  1
  H  309  1  0.06088400  0.45545000  0.26003000  1
  H  311  1  0.14840000  0.47408600  0.24908800  1
  H  312  1  0.18459400  0.42486700  0.28661400  1
  H  313  1  0.16363900  0.46403100  0.30633600  1
  H  322  1  0.74393900  0.54680800  0.25751700  1
  H  326  1  0.80954400  0.37350200  0.25704600  1
  H  328  1  0.70912400  0.29991300  0.30536100  1
  H  329  1  0.75590400  0.26057800  0.33595100  1
  H  330  1  0.72660400  0.25763300  0.28929100  1
  H  332  1  0.80780600  0.25743500  0.26474400  1
  H  333  1  0.83897200  0.28620500  0.29001300  1
  H  334  1  0.83077200  0.31422900  0.22708300  1
  H  343  1  0.40188200  0.24820800  0.20392900  1
  H  347  1  0.46928600  0.25924000  0.37148700  1
  H  349  1  0.37309200  0.32629700  0.38568100  1
  H  350  1  0.40163800  0.33216000  0.43027100  1
  H  351  1  0.38316200  0.27493300  0.44265800  1
  H  353  1  0.47798700  0.29762200  0.45853000  1
  H  354  1  0.51189700  0.28134800  0.42374700  1
  H  355  1  0.47043900  0.24112200  0.46299500  1
  H  364  1  0.58365400  0.80623500  0.45241000  1
  H  368  1  0.64577400  0.63120700  0.62335700  1
  H  370  1  0.54787200  0.61106000  0.70243700  1
  H  371  1  0.58924500  0.59043700  0.74894100  1
  H  372  1  0.56124400  0.54946500  0.73636700  1
  H  374  1  0.64894300  0.52997300  0.74582200  1
  H  375  1  0.68322200  0.57983600  0.70930300  1
  H  376  1  0.66456600  0.54138500  0.68830800  1
  H  385  1  0.24033400  0.45922300  0.73419500  1
  H  389  1  0.30901500  0.62745600  0.74203700  1
  H  391  1  0.21018000  0.70762500  0.68234600  1
  H  392  1  0.24906000  0.75532200  0.65859300  1
  H  393  1  0.22082600  0.73876000  0.71327900  1
  H  395  1  0.30959800  0.75096800  0.71919300  1
  H  396  1  0.34568200  0.71203200  0.70967900  1
  H  397  1  0.32374900  0.69370000  0.76758000  1
  H  406  1  0.90577800  0.74042300  0.80299000  1
  H  410  1  0.98757200  0.74467400  0.62877900  1
  H  412  1  0.88760800  0.69408300  0.60353500  1
  H  413  1  0.93364600  0.66395500  0.59328500  1
  H  414  1  0.90378100  0.71197600  0.54464900  1
  H  416  1  0.98598400  0.73330300  0.52203200  1
  H  417  1  0.01810500  0.71007700  0.57588200  1
  H  418  1  0.00785700  0.77267200  0.53970400  1
  C  2  1  0.67414300  0.54303200  0.43720300  1
  C  3  1  0.72149600  0.55216700  0.43967600  1
  C  4  1  0.80317900  0.54816100  0.42263300  1
  C  5  1  0.13963000  0.44559200  0.53583200  1
  C  6  1  0.09176200  0.44902200  0.54349500  1
  C  8  1  0.01017500  0.44400100  0.52444100  1
  C  10  1  0.90104600  0.52996200  0.45555200  1
  C  11  1  0.44668400  0.51609800  0.46570700  1
  C  12  1  0.36298500  0.47665500  0.50946400  1
  C  16  1  0.75672700  0.54010700  0.41746700  1
  C  18  1  0.05719700  0.43246300  0.52484400  1
  C  21  1  0.41003800  0.51244100  0.43881300  1
  C  22  1  0.66522400  0.51633600  0.41367800  1
  C  23  1  0.15027300  0.42359300  0.50782700  1
  C  26  1  0.97846400  0.98467300  0.55527600  1
  C  27  1  0.93044300  0.99590800  0.55098100  1
  C  28  1  0.89607800  0.96081900  0.56732400  1
  C  29  1  0.90974200  0.91185900  0.59191300  1
  C  30  1  0.95653200  0.89788600  0.59774000  1
  C  31  1  0.98941200  0.93451500  0.57823000  1
  C  34  1  0.01316900  0.02112400  0.53787300  1
  C  35  1  0.00314400  0.07141500  0.51064200  1
  C  36  1  0.03669000  0.10738700  0.49643300  1
  C  37  1  0.08290300  0.09277000  0.51000200  1
  C  38  1  0.09541800  0.04368600  0.53445700  1
  C  39  1  0.06084600  0.00937400  0.54702800  1
  C  46  1  0.96941900  0.84932700  0.61945100  1
  C  47  1  0.84920500  0.97203700  0.55490800  1
  C  48  1  0.02522500  0.15593000  0.46708900  1
  C  49  1  0.14219900  0.03041800  0.54323500  1
  C  54  1  0.63862600  0.55980100  0.45686500  1
  C  55  1  0.59085700  0.55466100  0.45100700  1
  C  56  1  0.55590100  0.57092700  0.47004600  1
  C  57  1  0.56852600  0.59615100  0.49371600  1
  C  58  1  0.61509500  0.60406300  0.49963200  1
  C  59  1  0.64854800  0.58438800  0.48234000  1
  C  61  1  0.69948700  0.50267000  0.39138700  1
  C  62  1  0.74527200  0.51624500  0.39234300  1
  C  69  1  0.62843600  0.63733000  0.51323200  1
  C  70  1  0.50928400  0.55935900  0.47055800  1
  C  71  1  0.68900600  0.47419800  0.37134000  1
  C  75  1  0.30078300  0.46280400  0.97995600  1
  C  76  1  0.25302400  0.45603400  0.99074700  1
  C  77  1  0.21804800  0.47520400  0.95534800  1
  C  78  1  0.23077200  0.50054800  0.90647900  1
  C  79  1  0.27733400  0.50840300  0.89273000  1
  C  80  1  0.31067500  0.49029700  0.92986400  1
  C  83  1  0.33622300  0.44287400  0.01665000  1
  C  84  1  0.32740200  0.41691800  0.06705300  1
  C  85  1  0.36213100  0.39457900  0.10278000  1
  C  86  1  0.40827500  0.39851800  0.08769400  1
  C  87  1  0.41943500  0.42533600  0.03873300  1
  C  88  1  0.38372500  0.44729900  0.00483000  1
  C  95  1  0.29066200  0.53125000  0.84434600  1
  C  96  1  0.17115000  0.47536000  0.96632400  1
  C  97  1  0.35229800  0.37078000  0.15186100  1
  C  98  1  0.46588400  0.43128700  0.02524600  1
  C  103  1  0.47628300  0.02276000  0.43493400  1
  C  104  1  0.42858900  0.01183200  0.44025300  1
  C  105  1  0.39324900  0.04719900  0.42207700  1
  C  106  1  0.40537300  0.09602700  0.39484500  1
  C  107  1  0.45174300  0.10974500  0.38819400  1
  C  108  1  0.48559800  0.07283200  0.40878200  1
  C  111  1  0.51228500  0.98636400  0.45364700  1
  C  112  1  0.50372100  0.93612900  0.48059000  1
  C  113  1  0.53850900  0.90014500  0.49566300  1
  C  114  1  0.58444000  0.91462100  0.48308400  1
  C  115  1  0.59551800  0.96358100  0.45918600  1
  C  116  1  0.55978300  0.99791600  0.44619900  1
  C  123  1  0.46462900  0.15771200  0.35985600  1
  C  124  1  0.34681000  0.03639400  0.43481800  1
  C  125  1  0.52842900  0.85154100  0.52356600  1
  C  126  1  0.64200800  0.97644100  0.45154100  1
  C  131  1  0.07060000  0.40871000  0.49968800  1
  C  132  1  0.11725500  0.40401500  0.49070000  1
  C  135  1  0.17461000  0.46293700  0.55489200  1
  C  136  1  0.16489000  0.49014600  0.57791300  1
  C  137  1  0.19881700  0.50437300  0.59961500  1
  C  138  1  0.24503300  0.49080800  0.59859900  1
  C  139  1  0.25713700  0.46637800  0.57396200  1
  C  140  1  0.22221500  0.45369600  0.55234000  1
  C  146  1  0.12996200  0.38316100  0.46323600  1
  C  147  1  0.18757800  0.53353500  0.61893500  1
  C  148  1  0.30380500  0.45763600  0.56934200  1
  C  152  1  0.80100300  0.54446700  0.01166100  1
  C  153  1  0.75312200  0.55026800  0.00023800  1
  C  154  1  0.71846700  0.53083600  0.03521900  1
  C  155  1  0.73153800  0.50662300  0.08424600  1
  C  156  1  0.77822700  0.50016400  0.09864700  1
  C  157  1  0.81131200  0.51805200  0.06184600  1
  C  160  1  0.83626000  0.56462200  0.97556600  1
  C  161  1  0.82716100  0.58881400  0.92517900  1
  C  162  1  0.86118100  0.61126400  0.88948300  1
  C  163  1  0.90702300  0.60971400  0.90457400  1
  C  164  1  0.91866500  0.58420800  0.95379200  1
  C  165  1  0.88365600  0.56205600  0.98767700  1
  C  172  1  0.79225000  0.48215800  0.14662300  1
  C  173  1  0.67176200  0.53010900  0.02388100  1
  C  174  1  0.84960100  0.63106300  0.84097400  1
  C  175  1  0.96512500  0.57865400  0.96776600  1
  C  180  1  0.28569600  0.98764200  0.48110100  1
  C  182  1  0.23983000  0.01806800  0.52217200  1
  C  183  1  0.20243200  0.99052800  0.52305400  1
  C  185  1  0.24992400  0.95611400  0.48630900  1
  C  188  1  0.27370600  0.90816800  0.45264000  1
  C  191  1  0.21307500  0.89631300  0.40541900  1
  C  195  1  0.28499300  0.84712800  0.43075200  1
  C  201  1  0.94717200  0.48972700  0.52716400  1
  C  202  1  0.86300700  0.53063400  0.48210000  1
  C  204  1  0.91042800  0.49470400  0.55329800  1
  C  206  1  0.93483400  0.45989700  0.63497700  1
  C  209  1  0.87432100  0.41332400  0.69392600  1
  C  213  1  0.94520200  0.43848200  0.71778400  1
  C  219  1  0.60820100  0.53427300  0.97628700  1
  C  221  1  0.56279800  0.46342100  0.00868700  1
  C  222  1  0.52419300  0.49052100  0.98228400  1
  C  224  1  0.57095400  0.56105400  0.94580400  1
  C  227  1  0.59502700  0.64224800  0.90076100  1
  C  230  1  0.53397100  0.70248900  0.88782100  1
  C  234  1  0.60519600  0.72468000  0.83917800  1
  C  240  1  0.78583600  0.02059000  0.50967700  1
  C  242  1  0.73970400  0.98936100  0.47015600  1
  C  243  1  0.70171400  0.01737600  0.46915700  1
  C  245  1  0.74921300  0.05235000  0.50450000  1
  C  248  1  0.77350800  0.09831000  0.53983700  1
  C  251  1  0.71270100  0.11154400  0.58647500  1
  C  255  1  0.78355000  0.16002500  0.56061200  1
  C  262  1  0.40096900  0.47619400  0.53664200  1
  C  264  1  0.43452200  0.54720800  0.35752300  1
  C  267  1  0.37353800  0.59447500  0.29744400  1
  C  270  1  0.44532300  0.56802700  0.27499300  1
  C  274  1  0.10857800  0.47210100  0.01434000  1
  C  276  1  0.06273900  0.54419900  0.98340400  1
  C  277  1  0.02468300  0.51785700  0.00967300  1
  C  279  1  0.07194800  0.44603400  0.04474100  1
  C  282  1  0.09570200  0.36415400  0.09205300  1
  C  285  1  0.03537000  0.30568700  0.10344600  1
  C  289  1  0.10680800  0.28104100  0.15277800  1
  C  295  1  0.09897800  0.30937000  0.46320800  1
  C  297  1  0.07665400  0.22771800  0.50860900  1
  C  298  1  0.06151100  0.22858100  0.46689700  1
  C  300  1  0.08546500  0.31031800  0.42037800  1
  C  303  1  0.11911400  0.37760600  0.35506800  1
  C  306  1  0.07655800  0.41982500  0.27524200  1
  C  310  1  0.15505700  0.44632200  0.28613100  1
  C  316  1  0.76265900  0.46799700  0.22256600  1
  C  318  1  0.74494500  0.51393000  0.26007700  1
  C  319  1  0.72632600  0.47358100  0.29947600  1
  C  321  1  0.74569100  0.42660200  0.26304100  1
  C  324  1  0.77838300  0.35931600  0.26383100  1
  C  327  1  0.73913400  0.28180100  0.30108300  1
  C  331  1  0.81467800  0.29202400  0.26170800  1
  C  337  1  0.42299900  0.22943100  0.31248400  1
  C  339  1  0.40205700  0.25556000  0.23128300  1
  C  340  1  0.38531900  0.29944600  0.22488700  1
  C  342  1  0.40740400  0.27425800  0.30617400  1
  C  345  1  0.44182800  0.27822400  0.37096300  1
  C  348  1  0.39759100  0.30864100  0.41530200  1
  C  352  1  0.47756200  0.27880000  0.43829300  1
  C  358  1  0.59953000  0.69307400  0.53497700  1
  C  360  1  0.58368500  0.77679900  0.48593800  1
  C  361  1  0.56498300  0.77854800  0.52516000  1
  C  363  1  0.58307100  0.69510600  0.57530800  1
  C  366  1  0.61670300  0.62770300  0.64099100  1
  C  369  1  0.57572100  0.58514000  0.72041900  1
  C  373  1  0.65476300  0.55834300  0.70906800  1
  C  379  1  0.26130400  0.53697300  0.76948800  1
  C  381  1  0.24213100  0.49207100  0.73153700  1
  C  382  1  0.22480100  0.53351400  0.69142300  1
  C  384  1  0.24547500  0.57956600  0.72830300  1
  C  387  1  0.27913800  0.64479700  0.72978800  1
  C  390  1  0.23663000  0.72513600  0.69169400  1
  C  394  1  0.31585700  0.71360500  0.72933900  1
  C  400  1  0.93719500  0.77538100  0.69209300  1
  C  402  1  0.91074100  0.73794100  0.77296300  1
  C  403  1  0.89473600  0.69881700  0.76976100  1
  C  405  1  0.92276800  0.73516600  0.68892900  1
  C  408  1  0.95697600  0.73592400  0.62199400  1
  C  411  1  0.91707600  0.69883700  0.58081700  1
  C  415  1  0.99289000  0.73749300  0.55300500  1
  N  9  1  0.94016000  0.50876900  0.47927700  1
  N  13  1  0.48705200  0.53908100  0.44823400  1
  N  14  1  0.31941400  0.46748800  0.52585500  1
  N  20  1  0.36960400  0.49502900  0.46178100  1
  N  24  1  0.40635700  0.53676200  0.39176300  1
  N  181  1  0.27854200  0.01619500  0.50046200  1
  N  184  1  0.20950400  0.96124200  0.50462800  1
  N  187  1  0.24607200  0.93392000  0.46160800  1
  N  189  1  0.26219900  0.89304800  0.42021000  1
  N  199  1  0.32556000  0.99346000  0.45685700  1
  N  200  1  0.15866500  0.99709600  0.53301200  1
  N  203  1  0.86977200  0.51269100  0.52976400  1
  N  205  1  0.90684400  0.47060700  0.60026800  1
  N  207  1  0.92317200  0.42796200  0.68249200  1
  N  217  1  0.98775600  0.46580300  0.54554900  1
  N  218  1  0.81916700  0.53959100  0.46565300  1
  N  220  1  0.60176300  0.48652300  0.00526900  1
  N  223  1  0.53040800  0.53809600  0.95236400  1
  N  226  1  0.56676600  0.60811000  0.92308800  1
  N  228  1  0.58295800  0.69002500  0.88484700  1
  N  238  1  0.64875700  0.55195400  0.98132600  1
  N  239  1  0.48064600  0.47436500  0.99048800  1
  N  241  1  0.77880200  0.99153400  0.49103400  1
  N  244  1  0.70856600  0.04721500  0.48681600  1
  N  247  1  0.74536100  0.07533600  0.52854600  1
  N  249  1  0.76159500  0.11434100  0.57152800  1
  N  259  1  0.82634000  0.01489000  0.53330400  1
  N  260  1  0.65785600  0.01067300  0.46013200  1
  N  261  1  0.43980400  0.49665200  0.51355100  1
  N  265  1  0.42264200  0.57914300  0.30974100  1
  N  275  1  0.10169400  0.52016600  0.98611600  1
  N  278  1  0.03134000  0.46997600  0.03876400  1
  N  281  1  0.06808300  0.39918400  0.06663700  1
  N  283  1  0.08434600  0.31676700  0.10690900  1
  N  293  1  0.14911000  0.45364800  0.00901900  1
  N  294  1  0.98096000  0.53500300  0.00174200  1
  N  296  1  0.09328100  0.26817100  0.50514800  1
  N  299  1  0.06683400  0.26983100  0.42442500  1
  N  302  1  0.08687800  0.34776200  0.37651000  1
  N  304  1  0.11463800  0.41539900  0.30806800  1
  N  314  1  0.10987400  0.34546200  0.46929300  1
  N  315  1  0.04597100  0.18848700  0.47121100  1
  N  317  1  0.76011500  0.50994300  0.22263700  1
  N  320  1  0.72803200  0.43121500  0.29978600  1
  N  323  1  0.74451400  0.38399900  0.26638700  1
  N  325  1  0.77156600  0.31604500  0.26468200  1
  N  335  1  0.76253300  0.47415900  0.17905900  1
  N  336  1  0.71091700  0.47899600  0.33479900  1
  N  338  1  0.41943800  0.22254600  0.27434900  1
  N  341  1  0.38975800  0.30734100  0.26243800  1
  N  344  1  0.41120400  0.28843600  0.33831600  1
  N  346  1  0.44281900  0.30054200  0.39864100  1
  N  356  1  0.43934800  0.19390100  0.35391200  1
  N  357  1  0.37553100  0.33286600  0.18040200  1
  N  359  1  0.59799400  0.73411700  0.49196100  1
  N  362  1  0.56639200  0.73780700  0.56869000  1
  N  365  1  0.58364400  0.65796100  0.61947000  1
  N  367  1  0.61300900  0.58889200  0.68726600  1
  N  377  1  0.59995600  0.65342400  0.53250000  1
  N  378  1  0.55131900  0.82086000  0.51737900  1
  N  380  1  0.25752800  0.49532700  0.76923300  1
  N  383  1  0.22779900  0.57573300  0.69113700  1
  N  386  1  0.24622300  0.62337900  0.72207700  1
  N  388  1  0.27551300  0.69230600  0.71915500  1
  N  398  1  0.26455800  0.52890000  0.81359600  1
  N  399  1  0.20904500  0.52905600  0.65567500  1
  N  401  1  0.92969700  0.77481900  0.73385500  1
  N  404  1  0.90117100  0.69939800  0.72764000  1
  N  407  1  0.92345800  0.73177000  0.64965100  1
  N  409  1  0.95010000  0.73423100  0.57987900  1
  N  419  1  0.94820700  0.81800300  0.65660700  1
  N  420  1  0.87198800  0.66464000  0.80581500  1
  O  33  1  0.87710000  0.87727200  0.61078600  1
  O  40  1  0.11656900  0.12623600  0.49514000  1
  O  60  1  0.53467800  0.61655600  0.50735900  1
  O  63  1  0.77971800  0.50180300  0.37333300  1
  O  82  1  0.19727700  0.51650300  0.87188100  1
  O  89  1  0.44309000  0.38005600  0.12088700  1
  O  110  1  0.37182300  0.13013400  0.37180500  1
  O  117  1  0.61922700  0.88107900  0.49832700  1
  O  134  1  0.03792200  0.38977300  0.48379500  1
  O  141  1  0.27902500  0.50553900  0.61730900  1
  O  159  1  0.69789400  0.49173600  0.11805800  1
  O  166  1  0.94114000  0.62830500  0.87145600  1
