# generated using pymatgen
data_Cr3H33C30O13
_symmetry_space_group_name_H-M   'P 1'
_cell_length_a   11.20498622
_cell_length_b   11.20498622
_cell_length_c   18.71162000
_cell_angle_alpha   90.19447596
_cell_angle_beta   90.19447596
_cell_angle_gamma   60.34177236
_symmetry_Int_Tables_number   1
_chemical_formula_structural   Cr3H33C30O13
_chemical_formula_sum   'Cr6 H66 C60 O26'
_cell_volume   2041.48750741
_cell_formula_units_Z   2
loop_
 _symmetry_equiv_pos_site_id
 _symmetry_equiv_pos_as_xyz
  1  'x, y, z'
loop_
 _atom_site_type_symbol
 _atom_site_label
 _atom_site_symmetry_multiplicity
 _atom_site_fract_x
 _atom_site_fract_y
 _atom_site_fract_z
 _atom_site_occupancy
  C  C0  1  0.68382500  0.77135500  0.14590000  1
  C  C1  1  0.22864500  0.31617500  0.85410000  1
  C  C2  1  0.75846000  0.20202000  0.03544000  1
  C  C3  1  0.79798000  0.24154000  0.96456000  1
  C  C4  1  0.15907000  0.21673000  0.95601000  1
  C  C5  1  0.78326500  0.84093500  0.04399000  1
  C  C6  1  0.12567000  0.23151000  0.03643000  1
  C  C7  1  0.76849000  0.87433000  0.96357000  1
  C  C8  1  0.29672000  0.34428000  0.97411000  1
  C  C9  1  0.65573000  0.70329000  0.02589000  1
  C  C10  1  0.05113000  0.46765000  0.94338000  1
  C  C11  1  0.53235000  0.94887000  0.05662000  1
  C  C12  1  0.18404000  0.33396000  0.92971000  1
  C  C13  1  0.66604000  0.81596000  0.07029000  1
  C  C14  1  0.13484000  0.35504000  0.06770000  1
  C  C15  1  0.64496000  0.86516000  0.93230000  1
  C  C16  1  0.28042000  0.33010000  0.05487000  1
  C  C17  1  0.66990000  0.71958000  0.94513000  1
  C  C18  1  0.03526000  0.48744000  0.02533000  1
  C  C19  1  0.51256000  0.96474000  0.97467000  1
  C  C20  1  0.79542000  0.19728000  0.53966000  1
  C  C21  1  0.80272000  0.20458000  0.46034000  1
  C  C22  1  0.73905000  0.37307000  0.13756000  1
  C  C23  1  0.62693000  0.26095000  0.86244000  1
  C  C24  1  0.53000000  0.34072000  0.52628000  1
  C  C25  1  0.65928000  0.47000000  0.47372000  1
  C  C26  1  0.67160000  0.44672000  0.55566000  1
  C  C27  1  0.55328000  0.32840000  0.44434000  1
  C  C28  1  0.66009000  0.31867000  0.56908000  1
  C  C29  1  0.68133000  0.33991000  0.43092000  1
  C  C30  1  0.17315000  0.46759000  0.54076000  1
  C  C31  1  0.53241000  0.82685000  0.45924000  1
  C  C32  1  0.15599000  0.47531000  0.46153000  1
  C  C33  1  0.52469000  0.84401000  0.53847000  1
  C  C34  1  0.29293000  0.20187000  0.52699000  1
  C  C35  1  0.79813000  0.70707000  0.47301000  1
  C  C36  1  0.04725000  0.34317000  0.55748000  1
  C  C37  1  0.65683000  0.95275000  0.44252000  1
  C  C38  1  0.18688000  0.33190000  0.57001000  1
  C  C39  1  0.66810000  0.81312000  0.42999000  1
  C  C40  1  0.14113500  0.35321500  0.43244000  1
  C  C41  1  0.64678000  0.85886000  0.56756000  1
  C  C42  1  0.27997000  0.22539000  0.44525000  1
  C  C43  1  0.77461000  0.72003000  0.55475000  1
  C  C44  1  0.09598000  0.37970000  0.14490000  1
  C  C45  1  0.62030000  0.90402000  0.85510000  1
  C  C46  1  0.03398500  0.33096500  0.47575000  1
  C  C47  1  0.66904000  0.96602000  0.52425000  1
  C  C48  1  0.68356000  0.77032000  0.35428000  1
  C  C49  1  0.22968000  0.31644000  0.64572000  1
  C  C50  1  0.70814000  0.35442000  0.35468000  1
  C  C51  1  0.64558000  0.29186000  0.64532000  1
  C  C52  1  0.09891000  0.37919000  0.35649000  1
  C  C53  1  0.62081000  0.90109000  0.64351000  1
  C  C54  1  0.60432000  0.43620000  0.96433000  1
  C  C55  1  0.56380000  0.39568000  0.03567000  1
  C  C56  1  0.75083000  0.38639000  0.99340000  1
  C  C57  1  0.61362000  0.24916000  0.00660000  1
  C  C58  1  0.70864000  0.34764000  0.06393000  1
  C  C59  1  0.65236000  0.29136000  0.93607000  1
  Cr  Cr60  1  0.93434000  0.60642000  0.25089000  1
  Cr  Cr61  1  0.39358000  0.06566000  0.74911000  1
  Cr  Cr62  1  0.62169000  0.60305000  0.24927000  1
  Cr  Cr63  1  0.39695000  0.37831000  0.75073000  1
  Cr  Cr64  1  0.93739000  0.29057000  0.25079000  1
  Cr  Cr65  1  0.70943000  0.06261000  0.74921000  1
  H  H66  1  0.81895000  0.42803000  0.98238000  1
  H  H67  1  0.57197000  0.18105000  0.01762000  1
  H  H68  1  0.96565000  0.45993000  0.91852000  1
  H  H69  1  0.54007000  0.03435000  0.08148000  1
  H  H70  1  0.93048000  0.52244000  0.04163000  1
  H  H71  1  0.47756000  0.06952000  0.95837000  1
  H  H72  1  0.06263000  0.56711000  0.03954000  1
  H  H73  1  0.43289000  0.93737000  0.96046000  1
  H  H74  1  0.28809000  0.44665000  0.96535000  1
  H  H75  1  0.55336000  0.71190000  0.03465000  1
  H  H76  1  0.29755000  0.40609000  0.08484000  1
  H  H77  1  0.59391000  0.70245000  0.91516000  1
  H  H78  1  0.80970000  0.09700000  0.55390000  1
  H  H79  1  0.90300000  0.19030000  0.44610000  1
  H  H80  1  0.88527000  0.19775000  0.56431000  1
  H  H81  1  0.80225000  0.11473000  0.43569000  1
  H  H82  1  0.48610500  0.28046500  0.54630000  1
  H  H83  1  0.71954000  0.51390000  0.45370000  1
  H  H84  1  0.56785000  0.22967000  0.42386000  1
  H  H85  1  0.77033000  0.43215000  0.57614000  1
  H  H86  1  0.53815000  0.53211000  0.93455000  1
  H  H87  1  0.46789000  0.46185000  0.06545000  1
  H  H88  1  0.58836000  0.53606000  0.58411000  1
  H  H89  1  0.46393000  0.41165000  0.41589000  1
  H  H90  1  0.55152500  0.54893500  0.46364000  1
  H  H91  1  0.45106500  0.44847500  0.53636000  1
  H  H92  1  0.25970000  0.48180000  0.55451000  1
  H  H93  1  0.51820000  0.74030000  0.44549000  1
  H  H94  1  0.08433000  0.55717000  0.56593000  1
  H  H95  1  0.44283000  0.91567000  0.43407000  1
  H  H96  1  0.06933000  0.57517000  0.44795000  1
  H  H97  1  0.42483000  0.93067000  0.55205000  1
  H  H98  1  0.24494000  0.47606000  0.43622000  1
  H  H99  1  0.52394000  0.75506000  0.56378000  1
  H  H100  1  0.39737500  0.15813500  0.54636000  1
  H  H101  1  0.84187000  0.60263000  0.45364000  1
  H  H102  1  0.36355500  0.24036500  0.42435000  1
  H  H103  1  0.75963500  0.63644500  0.57565000  1
  H  H104  1  0.04139000  0.25971000  0.58617000  1
  H  H105  1  0.74029000  0.95861000  0.41383000  1
  H  H106  1  0.96445000  0.44191000  0.57822000  1
  H  H107  1  0.55809000  0.03555000  0.42178000  1
  H  H108  1  0.82502000  0.10540000  0.06460000  1
  H  H109  1  0.89460000  0.17498000  0.93540000  1
  H  H110  1  0.92977000  0.39191000  0.45651000  1
  H  H111  1  0.60809000  0.07023000  0.54349000  1
  H  H112  1  0.06141000  0.22323000  0.46578000  1
  H  H113  1  0.77677000  0.93859000  0.53422000  1
  H  H114  1  0.26423000  0.12237000  0.53750000  1
  H  H115  1  0.87763000  0.73577000  0.46250000  1
  H  H116  1  0.28481500  0.13581500  0.41702000  1
  H  H117  1  0.86418000  0.71518000  0.58298000  1
  H  H118  1  0.24722000  0.11598000  0.94492000  1
  H  H119  1  0.88402000  0.75278000  0.05508000  1
  H  H120  1  0.07279000  0.21933000  0.92540000  1
  H  H121  1  0.78067000  0.92721000  0.07460000  1
  H  H122  1  0.02110000  0.24648000  0.04456000  1
  H  H123  1  0.75352000  0.97890000  0.95544000  1
  H  H124  1  0.19865000  0.13527000  0.06457000  1
  H  H125  1  0.86473000  0.80135000  0.93543000  1
  H  H126  1  0.39752000  0.27424000  0.95280000  1
  H  H127  1  0.72576000  0.60248000  0.04720000  1
  H  H128  1  0.35599000  0.22761000  0.07429000  1
  H  H129  1  0.77239000  0.64401000  0.92571000  1
  H  H130  1  0.05300000  0.55694000  0.91871000  1
  H  H131  1  0.44306000  0.94700000  0.08129000  1
  O  O132  1  0.07730000  0.49444000  0.17011000  1
  O  O133  1  0.50556000  0.92270000  0.82989000  1
  O  O134  1  0.63365000  0.47363000  0.32477000  1
  O  O135  1  0.52637000  0.36635000  0.67523000  1
  O  O136  1  0.82553000  0.26013000  0.33162000  1
  O  O137  1  0.73987000  0.17447000  0.66838000  1
  O  O138  1  0.05424000  0.30402000  0.32687000  1
  O  O139  1  0.69598000  0.94576000  0.67313000  1
  O  O140  1  0.83114000  0.50000000  0.25032000  1
  O  O141  1  0.50000000  0.16886000  0.74968000  1
  O  O142  1  0.80480000  0.72310000  0.17473000  1
  O  O143  1  0.27690000  0.19520000  0.82527000  1
  O  O144  1  0.59125000  0.74455000  0.16769000  1
  O  O145  1  0.25545000  0.40875000  0.83231000  1
  O  O146  1  0.63488000  0.47212000  0.17376000  1
  O  O147  1  0.52788000  0.36512000  0.82624000  1
  O  O148  1  0.82686000  0.25852000  0.16872000  1
  O  O149  1  0.74148000  0.17314000  0.83128000  1
  O  O150  1  0.05548000  0.30252000  0.17587000  1
  O  O151  1  0.69748000  0.94452000  0.82413000  1
  O  O152  1  0.07597000  0.49605000  0.33300000  1
  O  O153  1  0.50395000  0.92403000  0.66700000  1
  O  O154  1  0.80356000  0.72460000  0.32574000  1
  O  O155  1  0.27540000  0.19644000  0.67426000  1
  O  O156  1  0.58992000  0.74616000  0.33059000  1
  O  O157  1  0.25384000  0.41008000  0.66941000  1
