# generated using pymatgen
data_FeHC4SO2
_symmetry_space_group_name_H-M   'P 1'
_cell_length_a   7.14515000
_cell_length_b   15.92684000
_cell_length_c   16.00109495
_cell_angle_alpha   117.65894778
_cell_angle_beta   98.04658482
_cell_angle_gamma   98.28703000
_symmetry_Int_Tables_number   1
_chemical_formula_structural   FeHC4SO2
_chemical_formula_sum   'Fe6 H6 C24 S6 O12'
_cell_volume   1550.89756295
_cell_formula_units_Z   6
loop_
 _symmetry_equiv_pos_site_id
 _symmetry_equiv_pos_as_xyz
  1  'x, y, z'
loop_
 _atom_site_type_symbol
 _atom_site_label
 _atom_site_symmetry_multiplicity
 _atom_site_fract_x
 _atom_site_fract_y
 _atom_site_fract_z
 _atom_site_occupancy
  Fe  Fe0  1  0.02649000  0.61274000  0.27085000  1
  Fe  Fe1  1  0.42291000  0.65897000  0.39031000  1
  Fe  Fe2  1  0.57692000  0.34100000  0.60958000  1
  Fe  Fe3  1  0.76903000  0.73225000  0.33708000  1
  Fe  Fe4  1  0.23111000  0.26739000  0.66307000  1
  Fe  Fe5  1  0.97385000  0.38758000  0.72955000  1
  H  H6  1  0.15734000  0.45698000  0.00606000  1
  H  H7  1  0.30163000  0.45320000  0.45376000  1
  H  H8  1  0.84415000  0.99954000  0.54830000  1
  H  H9  1  0.84310000  0.54312000  0.99419000  1
  H  H10  1  0.69944000  0.54694000  0.54653000  1
  H  H11  1  0.15627000  0.00028000  0.45136000  1
  C  C12  1  0.21573000  0.40602000  0.58113000  1
  C  C13  1  0.55651000  0.45320000  0.90922000  1
  C  C14  1  0.82979000  0.52430000  0.52532000  1
  C  C15  1  0.07184000  0.51740000  0.42941000  1
  C  C16  1  0.55374000  0.91156000  0.48326000  1
  C  C17  1  0.78425000  0.59352000  0.41870000  1
  C  C18  1  0.92857000  0.48230000  0.57046000  1
  C  C19  1  0.30724000  0.47659000  0.00271000  1
  C  C20  1  0.35199000  0.91023000  0.45473000  1
  C  C21  1  0.62821000  0.41614000  0.82274000  1
  C  C22  1  0.19319000  0.82553000  0.40478000  1
  C  C23  1  0.64837000  0.08968000  0.54524000  1
  C  C24  1  0.35828000  0.43011000  0.91485000  1
  C  C25  1  0.69289000  0.99896000  0.52572000  1
  C  C26  1  0.64208000  0.56990000  0.08541000  1
  C  C27  1  0.44657000  0.08819000  0.51650000  1
  C  C28  1  0.30746000  0.00082000  0.47395000  1
  C  C29  1  0.69320000  0.52342000  0.99752000  1
  C  C30  1  0.44367000  0.54707000  0.09093000  1
  C  C31  1  0.17078000  0.47551000  0.47465000  1
  C  C32  1  0.37147000  0.58444000  0.17730000  1
  C  C33  1  0.80654000  0.17464000  0.59569000  1
  C  C34  1  0.10477000  0.45517000  0.54496000  1
  C  C35  1  0.89547000  0.54443000  0.45485000  1
  S  S36  1  0.16906000  0.33512000  0.81845000  1
  S  S37  1  0.64307000  0.81270000  0.48206000  1
  S  S38  1  0.15942000  0.51806000  0.33062000  1
  S  S39  1  0.35681000  0.18696000  0.51785000  1
  S  S40  1  0.84113000  0.48177000  0.66931000  1
  S  S41  1  0.83088000  0.66520000  0.18183000  1
  O  O42  1  0.98363000  0.16624000  0.61205000  1
  O  O43  1  0.85015000  0.63058000  0.36565000  1
  O  O44  1  0.22267000  0.73555000  0.37053000  1
  O  O45  1  0.49265000  0.63685000  0.26589000  1
  O  O46  1  0.61868000  0.60635000  0.43984000  1
  O  O47  1  0.38195000  0.39385000  0.56049000  1
  O  O48  1  0.14923000  0.36834000  0.63362000  1
  O  O49  1  0.50712000  0.36333000  0.73416000  1
  O  O50  1  0.77642000  0.26461000  0.63087000  1
  O  O51  1  0.18742000  0.56459000  0.17134000  1
  O  O52  1  0.01623000  0.83398000  0.38821000  1
  O  O53  1  0.81226000  0.43646000  0.82875000  1
