# generated using pymatgen
data_HoAgH8C14(NO4)2
_symmetry_space_group_name_H-M   'P 1'
_cell_length_a   9.51292000
_cell_length_b   12.06763000
_cell_length_c   16.66751000
_cell_angle_alpha   83.36322000
_cell_angle_beta   89.99312000
_cell_angle_gamma   66.86797000
_symmetry_Int_Tables_number   1
_chemical_formula_structural   HoAgH8C14(NO4)2
_chemical_formula_sum   'Ho4 Ag4 H32 C56 N8 O32'
_cell_volume   1745.62938361
_cell_formula_units_Z   4
loop_
 _symmetry_equiv_pos_site_id
 _symmetry_equiv_pos_as_xyz
  1  'x, y, z'
loop_
 _atom_site_type_symbol
 _atom_site_label
 _atom_site_symmetry_multiplicity
 _atom_site_fract_x
 _atom_site_fract_y
 _atom_site_fract_z
 _atom_site_occupancy
  Ho  Ho0  1  0.69464000  0.01126000  0.56365000  1
  Ho  Ho1  1  0.30543000  0.98874000  0.43262000  1
  Ho  Ho2  1  0.70643000  0.98841000  0.93255000  1
  Ho  Ho3  1  0.29350000  0.01166000  0.06732000  1
  Ag  Ag4  1  0.95954000  0.31853000  0.91675000  1
  Ag  Ag5  1  0.04029000  0.68111000  0.08187000  1
  Ag  Ag6  1  0.72168000  0.31876000  0.41713000  1
  Ag  Ag7  1  0.27797000  0.68116000  0.58307000  1
  H  H8  1  0.59012000  0.81345000  0.77901000  1
  H  H9  1  0.88270000  0.08905000  0.16461000  1
  H  H10  1  0.45089000  0.30301000  0.32667000  1
  H  H11  1  0.44552000  0.58434000  0.86231000  1
  H  H12  1  0.40948000  0.18727000  0.22086000  1
  H  H13  1  0.16229000  0.41048000  0.04832000  1
  H  H14  1  0.42567000  0.41148000  0.54813000  1
  H  H15  1  0.57360000  0.58845000  0.45179000  1
  H  H16  1  0.48458000  0.64382000  0.12095000  1
  H  H17  1  0.55528000  0.41522000  0.13729000  1
  H  H18  1  0.75400000  0.69644000  0.17241000  1
  H  H19  1  0.97096000  0.91090000  0.33475000  1
  H  H20  1  0.95182000  0.28795000  0.55321000  1
  H  H21  1  0.59635000  0.81242000  0.27803000  1
  H  H22  1  0.76003000  0.28858000  0.05287000  1
  H  H23  1  0.02975000  0.41466000  0.63777000  1
  H  H24  1  0.40479000  0.18681000  0.72115000  1
  H  H25  1  0.54893000  0.69777000  0.67310000  1
  H  H26  1  0.04783000  0.71261000  0.44696000  1
  H  H27  1  0.11126000  0.79763000  0.22310000  1
  H  H28  1  0.83798000  0.58939000  0.95116000  1
  H  H29  1  0.51594000  0.35576000  0.87867000  1
  H  H30  1  0.11695000  0.91094000  0.83535000  1
  H  H31  1  0.24049000  0.71116000  0.94650000  1
  H  H32  1  0.89003000  0.20067000  0.77557000  1
  H  H33  1  0.96907000  0.58626000  0.36245000  1
  H  H34  1  0.09060000  0.79785000  0.72354000  1
  H  H35  1  0.24705000  0.30220000  0.82685000  1
  H  H36  1  0.90921000  0.20241000  0.27633000  1
  H  H37  1  0.03059000  0.08775000  0.66396000  1
  H  H38  1  0.87228000  0.64335000  0.62156000  1
  H  H39  1  0.12603000  0.35756000  0.37843000  1
  C  C40  1  0.29051000  0.18935000  0.73064000  1
  C  C41  1  0.62156000  0.76514000  0.02327000  1
  C  C42  1  0.20339000  0.25298000  0.78998000  1
  C  C43  1  0.22697000  0.44661000  0.00697000  1
  C  C44  1  0.78487000  0.13443000  0.19979000  1
  C  C45  1  0.54398000  0.25381000  0.29000000  1
  C  C46  1  0.71064000  0.80967000  0.26839000  1
  C  C47  1  0.03484000  0.93050000  0.01045000  1
  C  C48  1  0.07039000  0.54363000  0.40318000  1
  C  C49  1  0.57616000  0.58249000  0.08827000  1
  C  C50  1  0.32671000  0.05217000  0.62237000  1
  C  C51  1  0.15678000  0.41868000  0.41118000  1
  C  C52  1  0.27176000  0.61381000  0.94930000  1
  C  C53  1  0.08263000  0.13336000  0.69931000  1
  C  C54  1  0.77787000  0.92972000  0.75372000  1
  C  C55  1  0.91890000  0.86534000  0.29944000  1
  C  C56  1  0.38631000  0.54203000  0.90304000  1
  C  C57  1  0.38677000  0.23642000  0.47526000  1
  C  C58  1  0.52101000  0.18999000  0.23063000  1
  C  C59  1  0.03463000  0.93064000  0.51027000  1
  C  C60  1  0.45582000  0.74676000  0.70983000  1
  C  C61  1  0.29271000  0.93103000  0.25483000  1
  C  C62  1  0.71106000  0.63003000  0.53646000  1
  C  C63  1  0.32487000  0.44789000  0.50687000  1
  C  C64  1  0.37871000  0.23474000  0.97651000  1
  C  C65  1  0.99809000  0.80149000  0.23797000  1
  C  C66  1  0.80004000  0.19831000  0.26135000  1
  C  C67  1  0.21490000  0.86572000  0.80020000  1
  C  C68  1  0.23070000  0.12632000  0.68482000  1
  C  C69  1  0.84183000  0.58198000  0.58889000  1
  C  C70  1  0.19978000  0.80194000  0.73856000  1
  C  C71  1  0.65843000  0.63107000  0.03578000  1
  C  C72  1  0.92844000  0.45708000  0.59703000  1
  C  C73  1  0.47868000  0.81054000  0.76926000  1
  C  C74  1  0.28794000  0.37013000  0.46333000  1
  C  C75  1  0.77333000  0.55321000  0.99249000  1
  C  C76  1  0.11339000  0.61523000  0.44961000  1
  C  C77  1  0.88592000  0.38524000  0.55059000  1
  C  C78  1  0.70678000  0.07012000  0.74275000  1
  C  C79  1  0.67437000  0.55207000  0.49306000  1
  C  C80  1  0.34193000  0.36871000  0.96379000  1
  C  C81  1  0.96508000  0.06947000  0.98940000  1
  C  C82  1  0.64409000  0.12708000  0.18504000  1
  C  C83  1  0.62301000  0.05247000  0.12264000  1
  C  C84  1  0.35563000  0.87318000  0.81495000  1
  C  C85  1  0.67600000  0.94696000  0.37656000  1
  C  C86  1  0.00322000  0.19705000  0.76085000  1
  C  C87  1  0.61286000  0.76368000  0.52330000  1
  C  C88  1  0.72875000  0.38593000  0.05008000  1
  C  C89  1  0.77084000  0.87256000  0.31405000  1
  C  C90  1  0.22176000  0.07149000  0.24492000  1
  C  C91  1  0.37690000  0.94761000  0.87741000  1
  C  C92  1  0.96721000  0.06961000  0.48958000  1
  C  C93  1  0.61434000  0.45759000  0.09649000  1
  C  C94  1  0.79766000  0.74578000  0.20913000  1
  C  C95  1  0.42434000  0.41714000  0.91131000  1
  N  N96  1  0.19382000  0.56683000  0.00100000  1
  N  N97  1  0.68156000  0.25663000  0.30667000  1
  N  N98  1  0.23802000  0.56802000  0.50138000  1
  N  N99  1  0.76147000  0.43204000  0.49870000  1
  N  N100  1  0.06301000  0.25548000  0.80642000  1
  N  N101  1  0.80653000  0.43296000  0.99827000  1
  N  N102  1  0.31830000  0.74379000  0.69320000  1
  N  N103  1  0.93811000  0.74298000  0.19261000  1
  O  O104  1  0.53658000  0.96153000  0.37660000  1
  O  O105  1  0.49810000  0.03786000  0.12349000  1
  O  O106  1  0.49160000  0.83344000  0.04410000  1
  O  O107  1  0.18085000  0.12540000  0.17356000  1
  O  O108  1  0.26207000  0.01001000  0.57483000  1
  O  O109  1  0.32593000  0.16661000  0.45591000  1
  O  O110  1  0.67344000  0.83327000  0.54356000  1
  O  O111  1  0.50182000  0.96218000  0.87660000  1
  O  O112  1  0.16110000  0.87274000  0.47964000  1
  O  O113  1  0.84021000  0.12751000  0.51976000  1
  O  O114  1  0.03398000  0.12719000  0.02024000  1
  O  O115  1  0.79054000  0.87831000  0.69047000  1
  O  O116  1  0.47857000  0.79520000  0.49231000  1
  O  O117  1  0.50873000  0.16638000  0.95578000  1
  O  O118  1  0.20964000  0.12162000  0.30879000  1
  O  O119  1  0.96588000  0.87275000  0.97974000  1
  O  O120  1  0.81879000  0.87719000  0.82560000  1
  O  O121  1  0.66691000  0.12129000  0.80610000  1
  O  O122  1  0.46571000  0.03889000  0.62303000  1
  O  O123  1  0.27687000  0.20194000  0.00753000  1
  O  O124  1  0.27026000  0.98887000  0.92512000  1
  O  O125  1  0.69460000  0.12281000  0.67096000  1
  O  O126  1  0.74226000  0.98843000  0.42386000  1
  O  O127  1  0.72972000  0.01111000  0.07502000  1
  O  O128  1  0.52264000  0.20492000  0.50410000  1
  O  O129  1  0.84595000  0.11664000  0.94318000  1
  O  O130  1  0.04066000  0.11661000  0.44417000  1
  O  O131  1  0.15402000  0.88330000  0.05663000  1
  O  O132  1  0.96137000  0.88348000  0.55571000  1
  O  O133  1  0.30529000  0.87696000  0.32614000  1
  O  O134  1  0.72340000  0.79809000  0.99241000  1
  O  O135  1  0.33248000  0.88081000  0.19120000  1
