# generated using pymatgen
data_CuH8C21(NO6)2
_symmetry_space_group_name_H-M   'P 1'
_cell_length_a   7.56739000
_cell_length_b   8.68656000
_cell_length_c   23.52606000
_cell_angle_alpha   94.78176000
_cell_angle_beta   95.62710000
_cell_angle_gamma   103.47551000
_symmetry_Int_Tables_number   1
_chemical_formula_structural   CuH8C21(NO6)2
_chemical_formula_sum   'Cu2 H16 C42 N4 O24'
_cell_volume   1487.61343855
_cell_formula_units_Z   2
loop_
 _symmetry_equiv_pos_site_id
 _symmetry_equiv_pos_as_xyz
  1  'x, y, z'
loop_
 _atom_site_type_symbol
 _atom_site_label
 _atom_site_symmetry_multiplicity
 _atom_site_fract_x
 _atom_site_fract_y
 _atom_site_fract_z
 _atom_site_occupancy
  Cu  Cu0  1  0.31562000  0.48262000  0.49366000  1
  Cu  Cu1  1  0.68438000  0.51738000  0.50634000  1
  H  H2  1  0.23768000  0.40235000  0.78004000  1
  H  H3  1  0.38492000  0.87819000  0.09033000  1
  H  H4  1  0.14965000  0.29670000  0.62341000  1
  H  H5  1  0.26719000  0.69439000  0.36190000  1
  H  H6  1  0.98996000  0.65115000  0.77666000  1
  H  H7  1  0.88040000  0.31431000  0.25155000  1
  H  H8  1  0.20993000  0.68867000  0.56916000  1
  H  H9  1  0.79006000  0.31069000  0.43112000  1
  H  H10  1  0.29225000  0.59577000  0.20564000  1
  H  H11  1  0.79489000  0.59082000  0.68640000  1
  H  H12  1  0.73000000  0.39057000  0.33084000  1
  H  H13  1  0.71218000  0.04214000  0.50736000  1
  H  H14  1  0.28779000  0.95781000  0.49248000  1
  H  H15  1  0.94227000  0.86554000  0.11540000  1
  H  H16  1  0.23751000  0.05459000  0.87775000  1
  H  H17  1  0.94486000  0.02497000  0.90780000  1
  C  C18  1  0.54721000  0.80024000  0.50182000  1
  C  C19  1  0.63416000  0.43634000  0.30383000  1
  C  C20  1  0.68816000  0.54664000  0.76584000  1
  C  C21  1  0.64557000  0.42956000  0.24483000  1
  C  C22  1  0.52807000  0.49654000  0.79229000  1
  C  C23  1  0.51812000  0.48600000  0.20951000  1
  C  C24  1  0.57276000  0.96890000  0.50254000  1
  C  C25  1  0.42721000  0.03105000  0.49731000  1
  C  C26  1  0.49936000  0.49686000  0.60889000  1
  C  C27  1  0.50035000  0.50245000  0.39126000  1
  C  C28  1  0.44962000  0.34820000  0.11374000  1
  C  C29  1  0.45278000  0.19974000  0.49812000  1
  C  C30  1  0.57398000  0.63360000  0.88823000  1
  C  C31  1  0.60709000  0.62250000  0.12815000  1
  C  C32  1  0.49921000  0.35070000  0.87502000  1
  C  C33  1  0.62171000  0.62583000  0.06880000  1
  C  C34  1  0.47999000  0.34317000  0.93404000  1
  C  C35  1  0.54361000  0.48415000  0.03142000  1
  C  C36  1  0.54274000  0.48673000  0.97145000  1
  C  C37  1  0.46569000  0.34048000  0.05409000  1
  C  C38  1  0.60222000  0.63371000  0.94856000  1
  C  C39  1  0.70997000  0.76642000  0.04611000  1
  C  C40  1  0.35790000  0.44379000  0.75872000  1
  C  C41  1  0.40643000  0.19788000  0.95653000  1
  C  C42  1  0.68972000  0.77368000  0.98599000  1
  C  C43  1  0.40177000  0.19627000  0.01659000  1
  C  C44  1  0.84278000  0.89620000  0.08469000  1
  C  C45  1  0.32279000  0.04942000  0.91701000  1
  C  C46  1  0.77777000  0.92244000  0.96237000  1
  C  C47  1  0.33261000  0.04189000  0.03951000  1
  C  C48  1  0.16067000  0.35866000  0.66598000  1
  C  C49  1  0.24799000  0.64760000  0.31700000  1
  C  C50  1  0.87513000  0.59396000  0.79797000  1
  C  C51  1  0.38554000  0.55002000  0.23369000  1
  C  C52  1  0.79407000  0.36489000  0.22263000  1
  C  C53  1  0.06501000  0.66274000  0.55946000  1
  C  C54  1  0.93502000  0.33705000  0.44063000  1
  C  C55  1  0.34225000  0.43613000  0.69866000  1
  C  C56  1  0.37782000  0.56202000  0.29316000  1
  C  C57  1  0.50172000  0.49295000  0.67186000  1
  C  C58  1  0.50234000  0.50136000  0.32861000  1
  C  C59  1  0.67184000  0.54829000  0.70624000  1
  N  N60  1  0.52576000  0.48520000  0.14881000  1
  N  N61  1  0.53499000  0.49385000  0.85341000  1
  N  N62  1  0.96148000  0.54358000  0.51589000  1
  N  N63  1  0.03852000  0.45642000  0.48411000  1
  O  O64  1  0.38023000  0.71387000  0.49588000  1
  O  O65  1  0.58441000  0.77038000  0.86408000  1
  O  O66  1  0.66697000  0.75611000  0.16521000  1
  O  O67  1  0.48680000  0.21784000  0.83931000  1
  O  O68  1  0.83952000  0.03582000  0.08413000  1
  O  O69  1  0.34896000  0.92069000  0.92743000  1
  O  O70  1  0.73469000  0.04661000  0.97542000  1
  O  O71  1  0.90564000  0.91897000  0.92366000  1
  O  O72  1  0.17539000  0.96545000  0.02468000  1
  O  O73  1  0.44802000  0.98385000  0.07768000  1
  O  O74  1  0.01977000  0.35891000  0.68722000  1
  O  O75  1  0.61977000  0.28613000  0.50412000  1
  O  O76  1  0.11907000  0.67041000  0.28619000  1
  O  O77  1  0.90526000  0.56602000  0.84750000  1
  O  O78  1  0.82484000  0.36901000  0.17275000  1
  O  O79  1  0.98600000  0.74208000  0.58828000  1
  O  O80  1  0.01410000  0.25815000  0.41165000  1
  O  O81  1  0.69164000  0.74323000  0.50659000  1
  O  O82  1  0.30836000  0.25677000  0.49341000  1
  O  O83  1  0.34427000  0.48537000  0.57677000  1
  O  O84  1  0.65573000  0.51463000  0.42323000  1
  O  O85  1  0.65568000  0.51472000  0.58747000  1
  O  O86  1  0.34432000  0.48528000  0.41253000  1
  O  O87  1  0.35502000  0.22244000  0.13701000  1
