# generated using pymatgen
data_Cu5H40Rh2C60N10(Cl2O11)2
_symmetry_space_group_name_H-M   'P 1'
_cell_length_a   15.54049000
_cell_length_b   16.46208000
_cell_length_c   16.51090000
_cell_angle_alpha   113.46121000
_cell_angle_beta   89.57704000
_cell_angle_gamma   89.81249000
_symmetry_Int_Tables_number   1
_chemical_formula_structural   Cu5H40Rh2C60N10(Cl2O11)2
_chemical_formula_sum   'Cu10 H80 Rh4 C120 N20 Cl8 O44'
_cell_volume   3874.57333213
_cell_formula_units_Z   2
loop_
 _symmetry_equiv_pos_site_id
 _symmetry_equiv_pos_as_xyz
  1  'x, y, z'
loop_
 _atom_site_type_symbol
 _atom_site_label
 _atom_site_symmetry_multiplicity
 _atom_site_fract_x
 _atom_site_fract_y
 _atom_site_fract_z
 _atom_site_occupancy
  Cu  Cu0  1  0.05662000  0.79772000  0.28512000  1
  Cu  Cu1  1  0.42871000  0.18344000  0.66913000  1
  Cu  Cu2  1  0.44481000  0.71446000  0.20171000  1
  Cu  Cu3  1  0.07226000  0.33800000  0.80462000  1
  Cu  Cu4  1  0.93786000  0.21076000  0.71289000  1
  Cu  Cu5  1  0.57550000  0.80821000  0.33320000  1
  Cu  Cu6  1  0.56112000  0.27813000  0.79976000  1
  Cu  Cu7  1  0.92526000  0.66653000  0.19362000  1
  Cu  Cu8  1  0.25048000  0.22972000  0.76958000  1
  Cu  Cu9  1  0.75103000  0.77254000  0.22950000  1
  H  H10  1  0.16548000  0.84824000  0.91555000  1
  H  H11  1  0.11219000  0.84905000  0.06096000  1
  H  H12  1  0.04938000  0.57267000  0.92150000  1
  H  H13  1  0.11431000  0.58035000  0.78561000  1
  H  H14  1  0.76074000  0.10561000  0.29394000  1
  H  H15  1  0.84941000  0.97668000  0.29061000  1
  H  H16  1  0.07218000  0.10672000  0.24264000  1
  H  H17  1  0.97611000  0.23122000  0.24907000  1
  H  H18  1  0.77771000  0.58631000  0.54361000  1
  H  H19  1  0.84900000  0.58414000  0.40655000  1
  H  H20  1  0.88165000  0.86667000  0.54063000  1
  H  H21  1  0.80701000  0.85867000  0.67121000  1
  H  H22  1  0.33732000  0.46858000  0.28658000  1
  H  H23  1  0.26474000  0.59681000  0.26815000  1
  H  H24  1  0.02163000  0.47128000  0.27061000  1
  H  H25  1  0.10381000  0.34939000  0.29085000  1
  H  H26  1  0.02735000  0.91698000  0.46811000  1
  H  H27  1  0.10147000  0.04630000  0.58520000  1
  H  H28  1  0.33276000  0.96776000  0.42711000  1
  H  H29  1  0.24811000  0.84629000  0.31286000  1
  H  H30  1  0.33083000  0.08159000  0.14998000  1
  H  H31  1  0.38557000  0.93626000  0.14990000  1
  H  H32  1  0.45396000  0.07904000  0.42332000  1
  H  H33  1  0.38935000  0.21559000  0.41445000  1
  H  H34  1  0.74024000  0.71094000  0.89378000  1
  H  H35  1  0.65209000  0.71202000  0.02221000  1
  H  H36  1  0.42790000  0.75526000  0.89248000  1
  H  H37  1  0.52316000  0.74641000  0.76604000  1
  H  H38  1  0.72143000  0.45547000  0.41091000  1
  H  H39  1  0.65068000  0.59337000  0.41402000  1
  H  H40  1  0.62047000  0.46082000  0.13181000  1
  H  H41  1  0.69734000  0.33090000  0.13829000  1
  H  H42  1  0.16288000  0.71558000  0.53076000  1
  H  H43  1  0.23667000  0.73496000  0.40408000  1
  H  H44  1  0.47880000  0.72895000  0.52877000  1
  H  H45  1  0.39550000  0.70568000  0.64796000  1
  H  H46  1  0.47190000  0.53060000  0.08561000  1
  H  H47  1  0.39864000  0.41194000  0.95711000  1
  H  H48  1  0.16843000  0.57192000  0.02954000  1
  H  H49  1  0.25173000  0.68691000  0.15150000  1
  H  H50  1  0.83263000  0.15031000  0.07647000  1
  H  H51  1  0.88307000  0.15417000  0.93189000  1
  H  H52  1  0.95382000  0.42723000  0.07845000  1
  H  H53  1  0.89152000  0.41517000  0.21355000  1
  H  H54  1  0.23254000  0.90457000  0.70976000  1
  H  H55  1  0.14474000  0.03461000  0.71305000  1
  H  H56  1  0.92107000  0.90704000  0.76300000  1
  H  H57  1  0.01636000  0.78087000  0.75503000  1
  H  H58  1  0.22735000  0.41285000  0.45580000  1
  H  H59  1  0.15434000  0.41718000  0.59322000  1
  H  H60  1  0.11635000  0.13534000  0.46025000  1
  H  H61  1  0.19473000  0.14043000  0.33017000  1
  H  H62  1  0.65911000  0.54521000  0.71791000  1
  H  H63  1  0.73107000  0.41585000  0.73381000  1
  H  H64  1  0.97457000  0.54101000  0.73306000  1
  H  H65  1  0.89366000  0.66412000  0.71525000  1
  H  H66  1  0.96777000  0.09214000  0.53180000  1
  H  H67  1  0.89711000  0.95978000  0.41478000  1
  H  H68  1  0.66469000  0.03131000  0.57155000  1
  H  H69  1  0.74612000  0.15585000  0.68593000  1
  H  H70  1  0.67578000  0.90830000  0.85120000  1
  H  H71  1  0.61866000  0.05229000  0.85243000  1
  H  H72  1  0.55438000  0.91119000  0.57759000  1
  H  H73  1  0.62043000  0.77594000  0.58521000  1
  H  H74  1  0.26180000  0.28994000  0.10536000  1
  H  H75  1  0.35199000  0.28575000  0.97679000  1
  H  H76  1  0.57362000  0.24329000  0.11039000  1
  H  H77  1  0.47645000  0.25222000  0.23523000  1
  H  H78  1  0.29358000  0.53785000  0.58710000  1
  H  H79  1  0.36063000  0.39822000  0.58461000  1
  H  H80  1  0.38408000  0.52852000  0.86782000  1
  H  H81  1  0.30978000  0.66014000  0.86022000  1
  H  H82  1  0.83569000  0.29158000  0.47111000  1
  H  H83  1  0.76665000  0.26930000  0.59861000  1
  H  H84  1  0.52140000  0.26175000  0.47461000  1
  H  H85  1  0.59974000  0.28998000  0.35520000  1
  H  H86  1  0.53065000  0.46196000  0.91485000  1
  H  H87  1  0.60244000  0.58468000  0.04125000  1
  H  H88  1  0.83625000  0.43061000  0.97007000  1
  H  H89  1  0.75486000  0.31165000  0.85032000  1
  Rh  Rh90  1  0.20877000  0.71605000  0.72147000  1
  Rh  Rh91  1  0.28996000  0.27653000  0.28236000  1
  Rh  Rh92  1  0.78912000  0.28192000  0.27595000  1
  Rh  Rh93  1  0.71122000  0.72294000  0.71755000  1
  C  C94  1  0.13964000  0.78910000  0.92060000  1
  C  C95  1  0.10953000  0.78954000  0.00017000  1
  C  C96  1  0.07613000  0.71111000  0.00116000  1
  C  C97  1  0.07494000  0.63471000  0.92302000  1
  C  C98  1  0.10992000  0.63887000  0.84712000  1
  C  C99  1  0.04387000  0.70953000  0.08637000  1
  C  C100  1  0.83006000  0.10382000  0.28433000  1
  C  C101  1  0.87979000  0.03251000  0.28237000  1
  C  C102  1  0.96891000  0.03347000  0.26956000  1
  C  C103  1  0.00374000  0.10519000  0.25591000  1
  C  C104  1  0.95083000  0.17420000  0.25853000  1
  C  C105  1  0.02930000  0.96110000  0.27069000  1
  C  C106  1  0.80130000  0.64667000  0.53970000  1
  C  C107  1  0.84082000  0.64625000  0.46383000  1
  C  C108  1  0.86850000  0.72622000  0.46157000  1
  C  C109  1  0.85888000  0.80337000  0.53828000  1
  C  C110  1  0.81746000  0.79945000  0.61153000  1
  C  C111  1  0.90666000  0.72845000  0.37809000  1
  C  C112  1  0.26763000  0.47222000  0.28248000  1
  C  C113  1  0.22701000  0.54288000  0.27209000  1
  C  C114  1  0.13729000  0.54199000  0.26584000  1
  C  C115  1  0.09141000  0.47253000  0.27376000  1
  C  C116  1  0.13652000  0.40527000  0.28534000  1
  C  C117  1  0.08786000  0.61311000  0.25091000  1
  C  C118  1  0.09445000  0.93194000  0.46161000  1
  C  C119  1  0.13582000  0.00241000  0.52615000  1
  C  C120  1  0.22282000  0.01632000  0.51363000  1
  C  C121  1  0.26487000  0.95878000  0.43705000  1
  C  C122  1  0.21823000  0.89099000  0.37440000  1
  C  C123  1  0.27000000  0.09185000  0.58279000  1
  C  C124  1  0.35861000  0.07729000  0.20844000  1
  C  C125  1  0.38920000  0.99794000  0.20840000  1
  C  C126  1  0.42458000  0.99831000  0.28620000  1
  C  C127  1  0.42721000  0.07713000  0.36181000  1
  C  C128  1  0.39222000  0.15286000  0.35720000  1
  C  C129  1  0.45767000  0.91350000  0.28796000  1
  C  C130  1  0.67069000  0.71829000  0.89526000  1
  C  C131  1  0.62131000  0.71960000  0.96649000  1
  C  C132  1  0.53204000  0.73115000  0.96578000  1
  C  C133  1  0.49657000  0.74303000  0.89363000  1
  C  C134  1  0.54901000  0.73977000  0.82403000  1
  C  C135  1  0.47224000  0.73054000  0.03889000  1
  C  C136  1  0.69890000  0.46020000  0.35085000  1
  C  C137  1  0.65921000  0.53627000  0.35188000  1
  C  C138  1  0.63157000  0.53885000  0.27243000  1
  C  C139  1  0.64276000  0.46286000  0.19486000  1
  C  C140  1  0.68523000  0.38971000  0.19801000  1
  C  C141  1  0.59227000  0.62243000  0.27137000  1
  C  C142  1  0.23267000  0.71909000  0.52744000  1
  C  C143  1  0.27399000  0.73028000  0.45759000  1
  C  C144  1  0.36379000  0.73605000  0.45849000  1
  C  C145  1  0.40897000  0.72653000  0.52720000  1
  C  C146  1  0.36314000  0.71358000  0.59337000  1
  C  C147  1  0.41365000  0.75095000  0.38746000  1
  C  C148  1  0.40515000  0.53704000  0.06984000  1
  C  C149  1  0.36429000  0.47167000  0.99971000  1
  C  C150  1  0.27812000  0.48463000  0.98357000  1
  C  C151  1  0.23584000  0.56171000  0.03993000  1
  C  C152  1  0.28182000  0.62491000  0.10794000  1
  C  C153  1  0.23305000  0.41642000  0.90551000  1
  C  C154  1  0.85966000  0.20988000  0.07334000  1
  C  C155  1  0.88809000  0.21184000  0.99412000  1
  C  C156  1  0.92303000  0.29055000  0.99535000  1
  C  C157  1  0.92737000  0.36485000  0.07515000  1
  C  C158  1  0.89393000  0.35828000  0.15057000  1
  C  C159  1  0.95386000  0.29447000  0.91077000  1
  C  C160  1  0.16309000  0.90712000  0.71944000  1
  C  C161  1  0.11426000  0.97896000  0.72148000  1
  C  C162  1  0.02517000  0.97834000  0.73464000  1
  C  C163  1  0.98948000  0.90733000  0.74899000  1
  C  C164  1  0.04221000  0.83784000  0.74557000  1
  C  C165  1  0.96546000  0.05043000  0.73251000  1
  C  C166  1  0.20217000  0.35328000  0.46015000  1
  C  C167  1  0.16136000  0.35503000  0.53580000  1
  C  C168  1  0.13077000  0.27598000  0.53784000  1
  C  C169  1  0.14046000  0.19799000  0.46208000  1
  C  C170  1  0.18392000  0.20032000  0.38916000  1
  C  C171  1  0.09001000  0.27623000  0.62100000  1
  C  C172  1  0.72867000  0.54144000  0.72200000  1
  C  C173  1  0.76931000  0.46997000  0.73085000  1
  C  C174  1  0.85910000  0.46971000  0.73696000  1
  C  C175  1  0.90477000  0.53980000  0.73016000  1
  C  C176  1  0.86048000  0.60821000  0.71984000  1
  C  C177  1  0.90846000  0.39664000  0.74937000  1
  C  C178  1  0.90132000  0.07495000  0.53804000  1
  C  C179  1  0.86196000  0.00281000  0.47366000  1
  C  C180  1  0.77569000  0.98596000  0.48582000  1
  C  C181  1  0.73223000  0.04230000  0.56202000  1
  C  C182  1  0.77699000  0.11192000  0.62468000  1
  C  C183  1  0.73120000  0.90825000  0.41667000  1
  C  C184  1  0.64819000  0.91245000  0.79274000  1
  C  C185  1  0.61614000  0.99139000  0.79301000  1
  C  C186  1  0.58128000  0.99235000  0.71551000  1
  C  C187  1  0.58054000  0.91366000  0.63955000  1
  C  C188  1  0.61677000  0.83788000  0.64307000  1
  C  C189  1  0.54711000  0.07781000  0.71499000  1
  C  C190  1  0.33123000  0.28165000  0.10443000  1
  C  C191  1  0.38167000  0.27899000  0.03339000  1
  C  C192  1  0.47076000  0.26707000  0.03551000  1
  C  C193  1  0.50514000  0.25565000  0.10820000  1
  C  C194  1  0.45170000  0.25938000  0.17712000  1
  C  C195  1  0.53171000  0.26678000  0.96320000  1
  C  C196  1  0.31330000  0.53216000  0.64775000  1
  C  C197  1  0.35096000  0.45515000  0.64669000  1
  C  C198  1  0.37559000  0.45218000  0.72687000  1
  C  C199  1  0.36358000  0.52769000  0.80469000  1
  C  C200  1  0.32281000  0.60123000  0.80062000  1
  C  C201  1  0.41325000  0.36874000  0.72888000  1
  C  C202  1  0.76629000  0.28458000  0.47488000  1
  C  C203  1  0.72762000  0.27155000  0.54507000  1
  C  C204  1  0.63832000  0.26086000  0.54438000  1
  C  C205  1  0.59097000  0.26801000  0.47575000  1
  C  C206  1  0.63419000  0.28337000  0.40940000  1
  C  C207  1  0.59130000  0.24295000  0.61533000  1
  C  C208  1  0.59782000  0.45766000  0.93057000  1
  C  C209  1  0.63779000  0.52524000  0.99956000  1
  C  C210  1  0.72458000  0.51502000  0.01553000  1
  C  C211  1  0.76831000  0.43854000  0.95995000  1
  C  C212  1  0.72327000  0.37310000  0.89302000  1
  C  C213  1  0.76916000  0.58498000  0.09258000  1
  N  N214  1  0.14084000  0.71478000  0.84552000  1
  N  N215  1  0.86503000  0.17429000  0.27354000  1
  N  N216  1  0.78730000  0.72243000  0.61197000  1
  N  N217  1  0.22319000  0.40446000  0.28829000  1
  N  N218  1  0.13442000  0.87776000  0.38664000  1
  N  N219  1  0.35947000  0.15310000  0.28185000  1
  N  N220  1  0.63520000  0.72703000  0.82423000  1
  N  N221  1  0.71394000  0.38863000  0.27485000  1
  N  N222  1  0.27638000  0.71153000  0.59446000  1
  N  N223  1  0.36530000  0.61294000  0.12236000  1
  N  N224  1  0.86159000  0.28214000  0.15011000  1
  N  N225  1  0.12769000  0.83699000  0.72991000  1
  N  N226  1  0.21515000  0.27681000  0.38849000  1
  N  N227  1  0.77342000  0.61023000  0.71759000  1
  N  N228  1  0.86007000  0.12818000  0.61262000  1
  N  N229  1  0.64983000  0.83678000  0.71846000  1
  N  N230  1  0.36581000  0.27293000  0.17577000  1
  N  N231  1  0.29734000  0.60328000  0.72344000  1
  N  N232  1  0.72062000  0.28972000  0.40788000  1
  N  N233  1  0.63908000  0.38227000  0.87896000  1
  Cl  Cl234  1  0.31493000  0.81934000  0.80941000  1
  Cl  Cl235  1  0.10502000  0.61121000  0.62950000  1
  Cl  Cl236  1  0.18423000  0.18944000  0.18149000  1
  Cl  Cl237  1  0.39476000  0.36922000  0.38597000  1
  Cl  Cl238  1  0.68558000  0.18143000  0.19082000  1
  Cl  Cl239  1  0.89223000  0.38461000  0.36645000  1
  Cl  Cl240  1  0.81493000  0.81197000  0.81837000  1
  Cl  Cl241  1  0.60847000  0.63119000  0.61534000  1
  O  O242  1  0.98327000  0.65593000  0.08022000  1
  O  O243  1  0.08190000  0.76176000  0.15508000  1
  O  O244  1  0.99079000  0.90113000  0.29026000  1
  O  O245  1  0.10726000  0.96542000  0.25528000  1
  O  O246  1  0.87427000  0.67176000  0.30710000  1
  O  O247  1  0.96539000  0.78335000  0.38525000  1
  O  O248  1  0.12061000  0.69034000  0.28181000  1
  O  O249  1  0.01765000  0.58794000  0.21001000  1
  O  O250  1  0.34563000  0.10699000  0.56453000  1
  O  O251  1  0.22525000  0.13167000  0.65325000  1
  O  O252  1  0.36326000  0.18803000  0.76621000  1
  O  O253  1  0.51835000  0.92063000  0.34132000  1
  O  O254  1  0.42015000  0.84412000  0.23614000  1
  O  O255  1  0.51070000  0.70925000  0.09758000  1
  O  O256  1  0.39470000  0.74797000  0.03601000  1
  O  O257  1  0.62391000  0.69371000  0.32840000  1
  O  O258  1  0.53336000  0.61489000  0.21686000  1
  O  O259  1  0.38136000  0.71893000  0.31033000  1
  O  O260  1  0.48353000  0.79279000  0.41252000  1
  O  O261  1  0.16064000  0.43684000  0.88509000  1
  O  O262  1  0.27691000  0.34463000  0.86859000  1
  O  O263  1  0.13422000  0.23875000  0.80191000  1
  O  O264  1  0.01663000  0.34565000  0.91690000  1
  O  O265  1  0.91308000  0.24642000  0.84218000  1
  O  O266  1  0.00414000  0.10812000  0.70944000  1
  O  O267  1  0.88781000  0.04788000  0.74998000  1
  O  O268  1  0.12168000  0.33378000  0.69175000  1
  O  O269  1  0.03020000  0.22243000  0.61397000  1
  O  O270  1  0.87502000  0.31975000  0.71655000  1
  O  O271  1  0.97904000  0.41980000  0.78999000  1
  O  O272  1  0.65869000  0.88664000  0.43632000  1
  O  O273  1  0.77477000  0.87307000  0.34466000  1
  O  O274  1  0.63612000  0.80604000  0.23437000  1
  O  O275  1  0.48534000  0.07107000  0.66288000  1
  O  O276  1  0.58466000  0.14726000  0.76658000  1
  O  O277  1  0.49366000  0.28551000  0.90276000  1
  O  O278  1  0.60942000  0.25118000  0.96809000  1
  O  O279  1  0.38110000  0.29764000  0.67185000  1
  O  O280  1  0.47133000  0.37630000  0.78419000  1
  O  O281  1  0.62383000  0.27547000  0.69229000  1
  O  O282  1  0.52308000  0.19810000  0.59081000  1
  O  O283  1  0.84026000  0.56400000  0.11541000  1
  O  O284  1  0.72715000  0.65820000  0.12646000  1
  O  O285  1  0.86603000  0.76580000  0.19488000  1
