# generated using pymatgen
data_CuH13C27O4
_symmetry_space_group_name_H-M   'P 1'
_cell_length_a   18.42389000
_cell_length_b   18.55075005
_cell_length_c   37.89167414
_cell_angle_alpha   78.21066372
_cell_angle_beta   76.05723079
_cell_angle_gamma   60.30411725
_symmetry_Int_Tables_number   1
_chemical_formula_structural   CuH13C27O4
_chemical_formula_sum   'Cu12 H156 C324 O48'
_cell_volume   10862.66085496
_cell_formula_units_Z   12
loop_
 _symmetry_equiv_pos_site_id
 _symmetry_equiv_pos_as_xyz
  1  'x, y, z'
loop_
 _atom_site_type_symbol
 _atom_site_label
 _atom_site_symmetry_multiplicity
 _atom_site_fract_x
 _atom_site_fract_y
 _atom_site_fract_z
 _atom_site_occupancy
  Cu  Cu1  1  0.17598000  0.78428000  0.22478000  1.0
  Cu  Cu2  1  0.24767000  0.72759000  0.27844000  1.0
  Cu  Cu3  1  0.68213000  0.28800000  0.27713000  1.0
  Cu  Cu4  1  0.68492000  0.71604000  0.27508000  1.0
  Cu  Cu5  1  0.75287000  0.77287000  0.22151000  1.0
  Cu  Cu6  1  0.74730000  0.21101000  0.22294000  1.0
  Cu  Cu7  1  0.82402000  0.21572000  0.77522000  1.0
  Cu  Cu8  1  0.75234000  0.27240000  0.72156000  1.0
  Cu  Cu9  1  0.31788000  0.71200000  0.72287000  1.0
  Cu  Cu10  1  0.31509000  0.28395000  0.72493000  1.0
  Cu  Cu11  1  0.24712000  0.22713000  0.77850000  1.0
  Cu  Cu12  1  0.25272000  0.78898000  0.77706000  1.0
  H  H1  1  0.97610000  0.01780000  0.25593000  1.0
  H  H2  1  0.97664000  0.71932000  0.25521000  1.0
  H  H3  1  0.57426000  0.14163000  0.34677000  1.0
  H  H4  1  0.86498000  0.61509000  0.35047000  1.0
  H  H5  1  0.09465000  0.62434000  0.35132000  1.0
  H  H6  1  0.86323000  0.15259000  0.35104000  1.0
  H  H7  1  0.68301000  0.01236000  0.25000000  1.0
  H  H8  1  0.09833000  0.92199000  0.35097000  1.0
  H  H9  1  0.57655000  0.90736000  0.34692000  1.0
  H  H10  1  0.75110000  0.47573000  0.58816000  1.0
  H  H11  1  0.98178000  0.23052000  0.55701000  1.0
  H  H12  1  0.15006000  0.95759000  0.41881000  1.0
  H  H13  1  0.23647000  0.71284000  0.53526000  1.0
  H  H14  1  0.54236000  0.24899000  0.42927000  1.0
  H  H15  1  0.25658000  0.22619000  0.57597000  1.0
  H  H16  1  0.44448000  0.18023000  0.43648000  1.0
  H  H17  1  0.89152000  0.47748000  0.44129000  1.0
  H  H18  1  0.17662000  0.86994000  0.54493000  1.0
  H  H19  1  0.27429000  0.93654000  0.54208000  1.0
  H  H20  1  0.72763000  0.57037000  0.45636000  1.0
  H  H21  1  0.24487000  0.03016000  0.41074000  1.0
  H  H22  1  0.95810000  0.32446000  0.42520000  1.0
  H  H23  1  0.21781000  0.80468000  0.40295000  1.0
  H  H24  1  0.91448000  0.38786000  0.56763000  1.0
  H  H25  1  0.51946000  0.20562000  0.56508000  1.0
  H  H26  1  0.34326000  0.02041000  0.50499000  1.0
  H  H27  1  0.42166000  0.14024000  0.56673000  1.0
  H  H28  1  0.61019000  0.57479000  0.56947000  1.0
  H  H29  1  0.59864000  0.62197000  0.50413000  1.0
  H  H30  1  0.61814000  0.29262000  0.46003000  1.0
  H  H31  1  0.02162000  0.17269000  0.44723000  1.0
  H  H32  1  0.27514000  0.65333000  0.42596000  1.0
  H  H33  1  0.28258000  0.60818000  0.49147000  1.0
  H  H34  1  0.28021000  0.27231000  0.44007000  1.0
  H  H35  1  0.13804000  0.33099000  0.47976000  1.0
  H  H36  1  0.12686000  0.30681000  0.54707000  1.0
  H  H37  1  0.32939000  0.06625000  0.43976000  1.0
  H  H38  1  0.03337000  0.12616000  0.51252000  1.0
  H  H39  1  0.60755000  0.27044000  0.52724000  1.0
  H  H40  1  0.74970000  0.48208000  0.24390000  1.0
  H  H41  1  0.45133000  0.78166000  0.24470000  1.0
  H  H42  1  0.56254000  0.35883000  0.15329000  1.0
  H  H43  1  0.32988000  0.88570000  0.14948000  1.0
  H  H44  1  0.57028000  0.87535000  0.14834000  1.0
  H  H45  1  0.86703000  0.34655000  0.14894000  1.0
  H  H46  1  0.44582000  0.48770000  0.25014000  1.0
  H  H47  1  0.87037000  0.57818000  0.14898000  1.0
  H  H48  1  0.33064000  0.59229000  0.15320000  1.0
  H  H49  1  0.31445000  0.02431000  0.91169000  1.0
  H  H50  1  0.26939000  0.26950000  0.94289000  1.0
  H  H51  1  0.02674000  0.54262000  0.08129000  1.0
  H  H52  1  0.98446000  0.78725000  0.96479000  1.0
  H  H53  1  0.72075000  0.25142000  0.07088000  1.0
  H  H54  1  0.55824000  0.27385000  0.92400000  1.0
  H  H55  1  0.56146000  0.31979000  0.06356000  1.0
  H  H56  1  0.31082000  0.02250000  0.05856000  1.0
  H  H57  1  0.09122000  0.63018000  0.95520000  1.0
  H  H58  1  0.25247000  0.56354000  0.95811000  1.0
  H  H59  1  0.25489000  0.92943000  0.04345000  1.0
  H  H60  1  0.18596000  0.47004000  0.08944000  1.0
  H  H61  1  0.20864000  0.17549000  0.07467000  1.0
  H  H62  1  0.92603000  0.69554000  0.09710000  1.0
  H  H63  1  0.36979000  0.11217000  0.93226000  1.0
  H  H64  1  0.78960000  0.29446000  0.93506000  1.0
  H  H65  1  0.36827000  0.47943000  0.99524000  1.0
  H  H66  1  0.62828000  0.35979000  0.93332000  1.0
  H  H67  1  0.25394000  0.92517000  0.93031000  1.0
  H  H68  1  0.22480000  0.87781000  0.99565000  1.0
  H  H69  1  0.87063000  0.20756000  0.04018000  1.0
  H  H70  1  0.14209000  0.32723000  0.05261000  1.0
  H  H71  1  0.85470000  0.84680000  0.07401000  1.0
  H  H72  1  0.88215000  0.89189000  0.00852000  1.0
  H  H73  1  0.49315000  0.22731000  0.05986000  1.0
  H  H74  1  0.44885000  0.16880000  0.02010000  1.0
  H  H75  1  0.48023000  0.19326000  0.95278000  1.0
  H  H76  1  0.33532000  0.43367000  0.06045000  1.0
  H  H77  1  0.17221000  0.37378000  0.98734000  1.0
  H  H78  1  0.90471000  0.22953000  0.97298000  1.0
  H  H79  1  0.02391000  0.98219000  0.74407000  1.0
  H  H80  1  0.02337000  0.28067000  0.74480000  1.0
  H  H81  1  0.42574000  0.85837000  0.65324000  1.0
  H  H82  1  0.13502000  0.38491000  0.64953000  1.0
  H  H83  1  0.90535000  0.37566000  0.64868000  1.0
  H  H84  1  0.13678000  0.84740000  0.64896000  1.0
  H  H85  1  0.31698000  0.98764000  0.75001000  1.0
  H  H86  1  0.90167000  0.07801000  0.64903000  1.0
  H  H87  1  0.42347000  0.09263000  0.65308000  1.0
  H  H88  1  0.24890000  0.52427000  0.41185000  1.0
  H  H89  1  0.01824000  0.76947000  0.44299000  1.0
  H  H90  1  0.84994000  0.04241000  0.58119000  1.0
  H  H91  1  0.76353000  0.28716000  0.46474000  1.0
  H  H92  1  0.45764000  0.75101000  0.57074000  1.0
  H  H93  1  0.74342000  0.77381000  0.42403000  1.0
  H  H94  1  0.55552000  0.81977000  0.56352000  1.0
  H  H95  1  0.10849000  0.52251000  0.55871000  1.0
  H  H96  1  0.82338000  0.13006000  0.45507000  1.0
  H  H97  1  0.72573000  0.06345000  0.45792000  1.0
  H  H98  1  0.27238000  0.42963000  0.54364000  1.0
  H  H99  1  0.75513000  0.96984000  0.58926000  1.0
  H  H100  1  0.04191000  0.67553000  0.57480000  1.0
  H  H101  1  0.78219000  0.19532000  0.59705000  1.0
  H  H102  1  0.08551000  0.61214000  0.43238000  1.0
  H  H103  1  0.48054000  0.79438000  0.43493000  1.0
  H  H104  1  0.65673000  0.97959000  0.49502000  1.0
  H  H105  1  0.57836000  0.85975000  0.43327000  1.0
  H  H106  1  0.38982000  0.42521000  0.43053000  1.0
  H  H107  1  0.40137000  0.37802000  0.49587000  1.0
  H  H108  1  0.38187000  0.70737000  0.53997000  1.0
  H  H109  1  0.97839000  0.82731000  0.55277000  1.0
  H  H110  1  0.72487000  0.34666000  0.57404000  1.0
  H  H111  1  0.71743000  0.39181000  0.50854000  1.0
  H  H112  1  0.71979000  0.72769000  0.55993000  1.0
  H  H113  1  0.86197000  0.66901000  0.52024000  1.0
  H  H114  1  0.87315000  0.69319000  0.45293000  1.0
  H  H115  1  0.67062000  0.93374000  0.56024000  1.0
  H  H116  1  0.96665000  0.87383000  0.48748000  1.0
  H  H117  1  0.39244000  0.72956000  0.47277000  1.0
  H  H118  1  0.25031000  0.51791000  0.75610000  1.0
  H  H119  1  0.54867000  0.21834000  0.75531000  1.0
  H  H120  1  0.43747000  0.64116000  0.84671000  1.0
  H  H121  1  0.67013000  0.11430000  0.85052000  1.0
  H  H122  1  0.42973000  0.12464000  0.85167000  1.0
  H  H123  1  0.13297000  0.65345000  0.85106000  1.0
  H  H124  1  0.55419000  0.51229000  0.74986000  1.0
  H  H125  1  0.12963000  0.42182000  0.85102000  1.0
  H  H126  1  0.66937000  0.40770000  0.84680000  1.0
  H  H127  1  0.68556000  0.97569000  0.08831000  1.0
  H  H128  1  0.73061000  0.73050000  0.05712000  1.0
  H  H129  1  0.97326000  0.45738000  0.91872000  1.0
  H  H130  1  0.01554000  0.21275000  0.03521000  1.0
  H  H131  1  0.27926000  0.74857000  0.92912000  1.0
  H  H132  1  0.44176000  0.72615000  0.07601000  1.0
  H  H133  1  0.43854000  0.68021000  0.93645000  1.0
  H  H134  1  0.68919000  0.97749000  0.94144000  1.0
  H  H135  1  0.90880000  0.36981000  0.04480000  1.0
  H  H136  1  0.74753000  0.43646000  0.04190000  1.0
  H  H137  1  0.74511000  0.07057000  0.95656000  1.0
  H  H138  1  0.81405000  0.52996000  0.91056000  1.0
  H  H139  1  0.79137000  0.82450000  0.92533000  1.0
  H  H140  1  0.07397000  0.30446000  0.90291000  1.0
  H  H141  1  0.63022000  0.88782000  0.06774000  1.0
  H  H142  1  0.21041000  0.70554000  0.06494000  1.0
  H  H143  1  0.63174000  0.52056000  0.00477000  1.0
  H  H144  1  0.37174000  0.64020000  0.06668000  1.0
  H  H145  1  0.74607000  0.07482000  0.06969000  1.0
  H  H146  1  0.77520000  0.12218000  0.00436000  1.0
  H  H147  1  0.12939000  0.79243000  0.95982000  1.0
  H  H148  1  0.85793000  0.67276000  0.94739000  1.0
  H  H149  1  0.14530000  0.15320000  0.92599000  1.0
  H  H150  1  0.11785000  0.10811000  0.99149000  1.0
  H  H151  1  0.50685000  0.77269000  0.94014000  1.0
  H  H152  1  0.55114000  0.83120000  0.97991000  1.0
  H  H153  1  0.51978000  0.80674000  0.04722000  1.0
  H  H154  1  0.66469000  0.56632000  0.93955000  1.0
  H  H155  1  0.82780000  0.62621000  0.01266000  1.0
  H  H156  1  0.09528000  0.77047000  0.02703000  1.0
  C  C1  1  0.84143000  0.15445000  0.28240000  1.0
  C  C2  1  0.65801000  0.87852000  0.27785000  1.0
  C  C3  1  0.50802000  0.01166000  0.46121000  1.0
  C  C4  1  0.98485000  0.03776000  0.42485000  1.0
  C  C5  1  0.84439000  0.68971000  0.28111000  1.0
  C  C6  1  0.91490000  0.66771000  0.30077000  1.0
  C  C7  1  0.04501000  0.96312000  0.30133000  1.0
  C  C8  1  0.10807000  0.70016000  0.28249000  1.0
  C  C9  1  0.99392000  0.52577000  0.46210000  1.0
  C  C10  1  0.99195000  0.02294000  0.46228000  1.0
  C  C11  1  0.97842000  0.02402000  0.28345000  1.0
  C  C12  1  0.97841000  0.68918000  0.28296000  1.0
  C  C13  1  0.91364000  0.09218000  0.30143000  1.0
  C  C14  1  0.58841000  0.08953000  0.33268000  1.0
  C  C15  1  0.65586000  0.14855000  0.27793000  1.0
  C  C16  1  0.98209000  0.04194000  0.39254000  1.0
  C  C17  1  0.95181000  0.48139000  0.48361000  1.0
  C  C18  1  0.11081000  0.88832000  0.28250000  1.0
  C  C19  1  0.91551000  0.63036000  0.33686000  1.0
  C  C20  1  0.04439000  0.63595000  0.33726000  1.0
  C  C21  1  0.91469000  0.09977000  0.33728000  1.0
  C  C22  1  0.62876000  0.08471000  0.29629000  1.0
  C  C23  1  0.21183000  0.96392000  0.46035000  1.0
  C  C24  1  0.64987000  0.01687000  0.27799000  1.0
  C  C25  1  0.98731000  0.55302000  0.42475000  1.0
  C  C26  1  0.04699000  0.97027000  0.33708000  1.0
  C  C27  1  0.63011000  0.95370000  0.29639000  1.0
  C  C28  1  0.47273000  0.08044000  0.48171000  1.0
  C  C29  1  0.04304000  0.67331000  0.30127000  1.0
  C  C30  1  0.98037000  0.61434000  0.35564000  1.0
  C  C31  1  0.52057000  0.02144000  0.42269000  1.0
  C  C32  1  0.07216000  0.97177000  0.47321000  1.0
  C  C33  1  0.81092000  0.49369000  0.49552000  1.0
  C  C34  1  0.58990000  0.95779000  0.33282000  1.0
  C  C35  1  0.98193000  0.57989000  0.39267000  1.0
  C  C36  1  0.81760000  0.46719000  0.53261000  1.0
  C  C37  1  0.74580000  0.49598000  0.55940000  1.0
  C  C38  1  0.22003000  0.93775000  0.49732000  1.0
  C  C39  1  0.92008000  0.05214000  0.48994000  1.0
  C  C40  1  0.20246000  0.81686000  0.49348000  1.0
  C  C41  1  0.04193000  0.54421000  0.47945000  1.0
  C  C42  1  0.53438000  0.93117000  0.48033000  1.0
  C  C43  1  0.97675000  0.25102000  0.52828000  1.0
  C  C44  1  0.98137000  0.03854000  0.35562000  1.0
  C  C45  1  0.15699000  0.93703000  0.44757000  1.0
  C  C46  1  0.48841000  0.20351000  0.48009000  1.0
  C  C47  1  0.23314000  0.73275000  0.50637000  1.0
  C  C48  1  0.48170000  0.19164000  0.51833000  1.0
  C  C49  1  0.53728000  0.23978000  0.45889000  1.0
  C  C50  1  0.26176000  0.23636000  0.54635000  1.0
  C  C51  1  0.56967000  0.02540000  0.35150000  1.0
  C  C52  1  0.53822000  0.02528000  0.38939000  1.0
  C  C53  1  0.34079000  0.20358000  0.52416000  1.0
  C  C54  1  0.93512000  0.36197000  0.47879000  1.0
  C  C55  1  0.43892000  0.17195000  0.46630000  1.0
  C  C56  1  0.89625000  0.45667000  0.47023000  1.0
  C  C57  1  0.34740000  0.21586000  0.48593000  1.0
  C  C58  1  0.17122000  0.88963000  0.51599000  1.0
  C  C59  1  0.26745000  0.95741000  0.51353000  1.0
  C  C60  1  0.73254000  0.54916000  0.48506000  1.0
  C  C61  1  0.25121000  0.00985000  0.43939000  1.0
  C  C62  1  0.96339000  0.30393000  0.45393000  1.0
  C  C63  1  0.19616000  0.84256000  0.45632000  1.0
  C  C64  1  0.22257000  0.78442000  0.43175000  1.0
  C  C65  1  0.90870000  0.40806000  0.53875000  1.0
  C  C66  1  0.94193000  0.33559000  0.51587000  1.0
  C  C67  1  0.52400000  0.21573000  0.53550000  1.0
  C  C68  1  0.30666000  0.00409000  0.49255000  1.0
  C  C69  1  0.42650000  0.15014000  0.53696000  1.0
  C  C70  1  0.66674000  0.55158000  0.54883000  1.0
  C  C71  1  0.66010000  0.57810000  0.51195000  1.0
  C  C72  1  0.57960000  0.26436000  0.47622000  1.0
  C  C73  1  0.99890000  0.21872000  0.46638000  1.0
  C  C74  1  0.25465000  0.69965000  0.44467000  1.0
  C  C75  1  0.25928000  0.67399000  0.48175000  1.0
  C  C76  1  0.27501000  0.26225000  0.46968000  1.0
  C  C77  1  0.19529000  0.29526000  0.49199000  1.0
  C  C78  1  0.18884000  0.28185000  0.52999000  1.0
  C  C79  1  0.29866000  0.03006000  0.45575000  1.0
  C  C80  1  0.00554000  0.19244000  0.50326000  1.0
  C  C81  1  0.57325000  0.25229000  0.51424000  1.0
  C  C82  1  0.77801000  0.34505000  0.21750000  1.0
  C  C83  1  0.31426000  0.62164000  0.22214000  1.0
  C  C84  1  0.48099000  0.48836000  0.03879000  1.0
  C  C85  1  0.94753000  0.46216000  0.07520000  1.0
  C  C86  1  0.31506000  0.81105000  0.21891000  1.0
  C  C87  1  0.38307000  0.83308000  0.19917000  1.0
  C  C88  1  0.80890000  0.53681000  0.19854000  1.0
  C  C89  1  0.59060000  0.80032000  0.21727000  1.0
  C  C90  1  0.48192000  0.97424000  0.03785000  1.0
  C  C91  1  0.97722000  0.47706000  0.03777000  1.0
  C  C92  1  0.78560000  0.47570000  0.21641000  1.0
  C  C93  1  0.45042000  0.81160000  0.21692000  1.0
  C  C94  1  0.80703000  0.40733000  0.19846000  1.0
  C  C95  1  0.51055000  0.41072000  0.16741000  1.0
  C  C96  1  0.58238000  0.35089000  0.22222000  1.0
  C  C97  1  0.91652000  0.45765000  0.10746000  1.0
  C  C98  1  0.41697000  0.01865000  0.01630000  1.0
  C  C99  1  0.78087000  0.61177000  0.21740000  1.0
  C  C100  1  0.38224000  0.87027000  0.16305000  1.0
  C  C101  1  0.51747000  0.86411000  0.16249000  1.0
  C  C102  1  0.85164000  0.39963000  0.16267000  1.0
  C  C103  1  0.50979000  0.41526000  0.20387000  1.0
  C  C104  1  0.13614000  0.53630000  0.03981000  1.0
  C  C105  1  0.44493000  0.48315000  0.22215000  1.0
  C  C106  1  0.46511000  0.94704000  0.07515000  1.0
  C  C107  1  0.85371000  0.52965000  0.16284000  1.0
  C  C108  1  0.38028000  0.54629000  0.20374000  1.0
  C  C109  1  0.53499000  0.41958000  0.01832000  1.0
  C  C110  1  0.51751000  0.82712000  0.19851000  1.0
  C  C111  1  0.44990000  0.88596000  0.14420000  1.0
  C  C112  1  0.46486000  0.47870000  0.07731000  1.0
  C  C113  1  0.01718000  0.52828000  0.02686000  1.0
  C  C114  1  0.30031000  0.00629000  0.00433000  1.0
  C  C115  1  0.38050000  0.54213000  0.16729000  1.0
  C  C116  1  0.45402000  0.92025000  0.10718000  1.0
  C  C117  1  0.31735000  0.03283000  0.96724000  1.0
  C  C118  1  0.30086000  0.00404000  0.94044000  1.0
  C  C119  1  0.15495000  0.56245000  0.00285000  1.0
  C  C120  1  0.96224000  0.44780000  0.01001000  1.0
  C  C121  1  0.01290000  0.68328000  0.00661000  1.0
  C  C122  1  0.56559000  0.95574000  0.02063000  1.0
  C  C123  1  0.44593000  0.56881000  0.01965000  1.0
  C  C124  1  0.25620000  0.24900000  0.97161000  1.0
  C  C125  1  0.87527000  0.46104000  0.14435000  1.0
  C  C126  1  0.04178000  0.56315000  0.05254000  1.0
  C  C127  1  0.67200000  0.29671000  0.02001000  1.0
  C  C128  1  0.97223000  0.76737000  0.99368000  1.0
  C  C129  1  0.69146000  0.30853000  0.98177000  1.0
  C  C130  1  0.73595000  0.26047000  0.04126000  1.0
  C  C131  1  0.54415000  0.26363000  0.95361000  1.0
  C  C132  1  0.44657000  0.47483000  0.14854000  1.0
  C  C133  1  0.45296000  0.47506000  0.11061000  1.0
  C  C134  1  0.56846000  0.29634000  0.97584000  1.0
  C  C135  1  0.27636000  0.13804000  0.02110000  1.0
  C  C136  1  0.57736000  0.32808000  0.03375000  1.0
  C  C137  1  0.32352000  0.04336000  0.02964000  1.0
  C  C138  1  0.54938000  0.28399000  0.01407000  1.0
  C  C139  1  0.07672000  0.61052000  0.98413000  1.0
  C  C140  1  0.23809000  0.54266000  0.98665000  1.0
  C  C141  1  0.26701000  0.95074000  0.01476000  1.0
  C  C142  1  0.20051000  0.49029000  0.06080000  1.0
  C  C143  1  0.22185000  0.19604000  0.04595000  1.0
  C  C144  1  0.99533000  0.65761000  0.04376000  1.0
  C  C145  1  0.93909000  0.71576000  0.06829000  1.0
  C  C146  1  0.35552000  0.09198000  0.96114000  1.0
  C  C147  1  0.29365000  0.16443000  0.98402000  1.0
  C  C148  1  0.77484000  0.28435000  0.96464000  1.0
  C  C149  1  0.30302000  0.49586000  0.00766000  1.0
  C  C150  1  0.61343000  0.34989000  0.96309000  1.0
  C  C151  1  0.26686000  0.94837000  0.95097000  1.0
  C  C152  1  0.25018000  0.92175000  0.98785000  1.0
  C  C153  1  0.82000000  0.23582000  0.02396000  1.0
  C  C154  1  0.18448000  0.28123000  0.03349000  1.0
  C  C155  1  0.89918000  0.80048000  0.05533000  1.0
  C  C156  1  0.91504000  0.82611000  0.01826000  1.0
  C  C157  1  0.50722000  0.23752000  0.03025000  1.0
  C  C158  1  0.48257000  0.20456000  0.00791000  1.0
  C  C159  1  0.50037000  0.21813000  0.96991000  1.0
  C  C160  1  0.28437000  0.46993000  0.04445000  1.0
  C  C161  1  0.20150000  0.30753000  0.99661000  1.0
  C  C162  1  0.83941000  0.24776000  0.98594000  1.0
  C  C163  1  0.15857000  0.84555000  0.71760000  1.0
  C  C164  1  0.34200000  0.12148000  0.72215000  1.0
  C  C165  1  0.49198000  0.98834000  0.53879000  1.0
  C  C166  1  0.01515000  0.96224000  0.57515000  1.0
  C  C167  1  0.15562000  0.31028000  0.71890000  1.0
  C  C168  1  0.08509000  0.33229000  0.69924000  1.0
  C  C169  1  0.95499000  0.03688000  0.69868000  1.0
  C  C170  1  0.89195000  0.29983000  0.71751000  1.0
  C  C171  1  0.00609000  0.47423000  0.53790000  1.0
  C  C172  1  0.00806000  0.97705000  0.53772000  1.0
  C  C173  1  0.02157000  0.97598000  0.71656000  1.0
  C  C174  1  0.02158000  0.31082000  0.71705000  1.0
  C  C175  1  0.08636000  0.90781000  0.69858000  1.0
  C  C176  1  0.41159000  0.91046000  0.66733000  1.0
  C  C177  1  0.34415000  0.85144000  0.72208000  1.0
  C  C178  1  0.01791000  0.95806000  0.60746000  1.0
  C  C179  1  0.04820000  0.51860000  0.51639000  1.0
  C  C180  1  0.88921000  0.11167000  0.71750000  1.0
  C  C181  1  0.08450000  0.36964000  0.66314000  1.0
  C  C182  1  0.95560000  0.36405000  0.66275000  1.0
  C  C183  1  0.08531000  0.90023000  0.66273000  1.0
  C  C184  1  0.37124000  0.91529000  0.70372000  1.0
  C  C185  1  0.78817000  0.03608000  0.53965000  1.0
  C  C186  1  0.35013000  0.98313000  0.72201000  1.0
  C  C187  1  0.01269000  0.44698000  0.57526000  1.0
  C  C188  1  0.95301000  0.02972000  0.66293000  1.0
  C  C189  1  0.36988000  0.04630000  0.70362000  1.0
  C  C190  1  0.52728000  0.91956000  0.51829000  1.0
  C  C191  1  0.95696000  0.32669000  0.69873000  1.0
  C  C192  1  0.01964000  0.38566000  0.64436000  1.0
  C  C193  1  0.47943000  0.97856000  0.57731000  1.0
  C  C194  1  0.92786000  0.02822000  0.52679000  1.0
  C  C195  1  0.18910000  0.50630000  0.50448000  1.0
  C  C196  1  0.41010000  0.04220000  0.66719000  1.0
  C  C197  1  0.01807000  0.42011000  0.60733000  1.0
  C  C198  1  0.18240000  0.53281000  0.46739000  1.0
  C  C199  1  0.25420000  0.50402000  0.44060000  1.0
  C  C200  1  0.77997000  0.06225000  0.50268000  1.0
  C  C201  1  0.07992000  0.94786000  0.51006000  1.0
  C  C202  1  0.79755000  0.18313000  0.50652000  1.0
  C  C203  1  0.95806000  0.45579000  0.52056000  1.0
  C  C204  1  0.46561000  0.06883000  0.51968000  1.0
  C  C205  1  0.02324000  0.74898000  0.47173000  1.0
  C  C206  1  0.01862000  0.96146000  0.64439000  1.0
  C  C207  1  0.84302000  0.06296000  0.55244000  1.0
  C  C208  1  0.51160000  0.79648000  0.51991000  1.0
  C  C209  1  0.76686000  0.26725000  0.49364000  1.0
  C  C210  1  0.51831000  0.80836000  0.48167000  1.0
  C  C211  1  0.46273000  0.76021000  0.54112000  1.0
  C  C212  1  0.73824000  0.76364000  0.45365000  1.0
  C  C213  1  0.43035000  0.97459000  0.64850000  1.0
  C  C214  1  0.46179000  0.97471000  0.61061000  1.0
  C  C215  1  0.65921000  0.79642000  0.47584000  1.0
  C  C216  1  0.06489000  0.63802000  0.52121000  1.0
  C  C217  1  0.56107000  0.82805000  0.53371000  1.0
  C  C218  1  0.10376000  0.54333000  0.52977000  1.0
  C  C219  1  0.65259000  0.78414000  0.51408000  1.0
  C  C220  1  0.82880000  0.11036000  0.48401000  1.0
  C  C221  1  0.73256000  0.04258000  0.48647000  1.0
  C  C222  1  0.26745000  0.45084000  0.51495000  1.0
  C  C223  1  0.74879000  0.99014000  0.56062000  1.0
  C  C224  1  0.03661000  0.69607000  0.54608000  1.0
  C  C225  1  0.80386000  0.15743000  0.54368000  1.0
  C  C226  1  0.77745000  0.21557000  0.56825000  1.0
  C  C227  1  0.09131000  0.59193000  0.46125000  1.0
  C  C228  1  0.05809000  0.66440000  0.48413000  1.0
  C  C229  1  0.47599000  0.78427000  0.46451000  1.0
  C  C230  1  0.69334000  0.99591000  0.50746000  1.0
  C  C231  1  0.57350000  0.84985000  0.46305000  1.0
  C  C232  1  0.33326000  0.44842000  0.45117000  1.0
  C  C233  1  0.33990000  0.42190000  0.48805000  1.0
  C  C234  1  0.42041000  0.73564000  0.52378000  1.0
  C  C235  1  0.00110000  0.78128000  0.53362000  1.0
  C  C236  1  0.74537000  0.30034000  0.55533000  1.0
  C  C237  1  0.74073000  0.32600000  0.51825000  1.0
  C  C238  1  0.72500000  0.73774000  0.53032000  1.0
  C  C239  1  0.80471000  0.70474000  0.50802000  1.0
  C  C240  1  0.81116000  0.71815000  0.47002000  1.0
  C  C241  1  0.70134000  0.96994000  0.54425000  1.0
  C  C242  1  0.99446000  0.80756000  0.49674000  1.0
  C  C243  1  0.42675000  0.74771000  0.48576000  1.0
  C  C244  1  0.22199000  0.65495000  0.78250000  1.0
  C  C245  1  0.68574000  0.37836000  0.77786000  1.0
  C  C246  1  0.51901000  0.51164000  0.96122000  1.0
  C  C247  1  0.05247000  0.53784000  0.92480000  1.0
  C  C248  1  0.68495000  0.18895000  0.78109000  1.0
  C  C249  1  0.61695000  0.16691000  0.80083000  1.0
  C  C250  1  0.19111000  0.46319000  0.80146000  1.0
  C  C251  1  0.40941000  0.19968000  0.78273000  1.0
  C  C252  1  0.51808000  0.02576000  0.96216000  1.0
  C  C253  1  0.02278000  0.52294000  0.96223000  1.0
  C  C254  1  0.21440000  0.52429000  0.78360000  1.0
  C  C255  1  0.54958000  0.18840000  0.78309000  1.0
  C  C256  1  0.19298000  0.59267000  0.80154000  1.0
  C  C257  1  0.48946000  0.58928000  0.83259000  1.0
  C  C258  1  0.41764000  0.64910000  0.77778000  1.0
  C  C259  1  0.08349000  0.54234000  0.89254000  1.0
  C  C260  1  0.58303000  0.98135000  0.98371000  1.0
  C  C261  1  0.21914000  0.38823000  0.78260000  1.0
  C  C262  1  0.61777000  0.12972000  0.83695000  1.0
  C  C263  1  0.48253000  0.13588000  0.83752000  1.0
  C  C264  1  0.14836000  0.60037000  0.83734000  1.0
  C  C265  1  0.49022000  0.58473000  0.79613000  1.0
  C  C266  1  0.86387000  0.46369000  0.96019000  1.0
  C  C267  1  0.55509000  0.51684000  0.77785000  1.0
  C  C268  1  0.53490000  0.05295000  0.92485000  1.0
  C  C269  1  0.14629000  0.47034000  0.83717000  1.0
  C  C270  1  0.61972000  0.45371000  0.79626000  1.0
  C  C271  1  0.46502000  0.58042000  0.98168000  1.0
  C  C272  1  0.48251000  0.17287000  0.80149000  1.0
  C  C273  1  0.55011000  0.11403000  0.85580000  1.0
  C  C274  1  0.53513000  0.52130000  0.92270000  1.0
  C  C275  1  0.98282000  0.47171000  0.97315000  1.0
  C  C276  1  0.69969000  0.99370000  0.99568000  1.0
  C  C277  1  0.61950000  0.45787000  0.83272000  1.0
  C  C278  1  0.54598000  0.07974000  0.89283000  1.0
  C  C279  1  0.68266000  0.96717000  0.03276000  1.0
  C  C280  1  0.69915000  0.99595000  0.05957000  1.0
  C  C281  1  0.84505000  0.43754000  0.99716000  1.0
  C  C282  1  0.03776000  0.55220000  0.98999000  1.0
  C  C283  1  0.98711000  0.31671000  0.99340000  1.0
  C  C284  1  0.43440000  0.04426000  0.97938000  1.0
  C  C285  1  0.55406000  0.43119000  0.98036000  1.0
  C  C286  1  0.74380000  0.75100000  0.02839000  1.0
  C  C287  1  0.12472000  0.53896000  0.85566000  1.0
  C  C288  1  0.95821000  0.43685000  0.94747000  1.0
  C  C289  1  0.32800000  0.70329000  0.97999000  1.0
  C  C290  1  0.02777000  0.23263000  0.00632000  1.0
  C  C291  1  0.30854000  0.69147000  0.01823000  1.0
  C  C292  1  0.26406000  0.73953000  0.95874000  1.0
  C  C293  1  0.45585000  0.73637000  0.04639000  1.0
  C  C294  1  0.55343000  0.52517000  0.85146000  1.0
  C  C295  1  0.54704000  0.52493000  0.88940000  1.0
  C  C296  1  0.43155000  0.70365000  0.02416000  1.0
  C  C297  1  0.72363000  0.86196000  0.97891000  1.0
  C  C298  1  0.42263000  0.67192000  0.96626000  1.0
  C  C299  1  0.67648000  0.95664000  0.97036000  1.0
  C  C300  1  0.45061000  0.71601000  0.98594000  1.0
  C  C301  1  0.92329000  0.38947000  0.01587000  1.0
  C  C302  1  0.76191000  0.45734000  0.01335000  1.0
  C  C303  1  0.73299000  0.04926000  0.98524000  1.0
  C  C304  1  0.79948000  0.50971000  0.93921000  1.0
  C  C305  1  0.77815000  0.80396000  0.95406000  1.0
  C  C306  1  0.00468000  0.34238000  0.95624000  1.0
  C  C307  1  0.06092000  0.28424000  0.93171000  1.0
  C  C308  1  0.64448000  0.90802000  0.03887000  1.0
  C  C309  1  0.70635000  0.83556000  0.01599000  1.0
  C  C310  1  0.22516000  0.71565000  0.03536000  1.0
  C  C311  1  0.69699000  0.50413000  0.99234000  1.0
  C  C312  1  0.38659000  0.65010000  0.03691000  1.0
  C  C313  1  0.73314000  0.05163000  0.04903000  1.0
  C  C314  1  0.74983000  0.07824000  0.01216000  1.0
  C  C315  1  0.18001000  0.76417000  0.97604000  1.0
  C  C316  1  0.81552000  0.71877000  0.96652000  1.0
  C  C317  1  0.10083000  0.19951000  0.94467000  1.0
  C  C318  1  0.08496000  0.17389000  0.98175000  1.0
  C  C319  1  0.49280000  0.76247000  0.96975000  1.0
  C  C320  1  0.51744000  0.79543000  0.99210000  1.0
  C  C321  1  0.49963000  0.78186000  0.03010000  1.0
  C  C322  1  0.71562000  0.53007000  0.95556000  1.0
  C  C323  1  0.79851000  0.69246000  0.00340000  1.0
  C  C324  1  0.16059000  0.75224000  0.01406000  1.0
  O  O1  1  0.84787000  0.72635000  0.24864000  1.0
  O  O2  1  0.78535000  0.67213000  0.29833000  1.0
  O  O3  1  0.16938000  0.83266000  0.30016000  1.0
  O  O4  1  0.16568000  0.68521000  0.30033000  1.0
  O  O5  1  0.63818000  0.20702000  0.29662000  1.0
  O  O6  1  0.10208000  0.88506000  0.25043000  1.0
  O  O7  1  0.09993000  0.73738000  0.25014000  1.0
  O  O8  1  0.84380000  0.14180000  0.25008000  1.0
  O  O9  1  0.78216000  0.21489000  0.30012000  1.0
  O  O10  1  0.69682000  0.13822000  0.24525000  1.0
  O  O11  1  0.63982000  0.82183000  0.29622000  1.0
  O  O12  1  0.69980000  0.87596000  0.24537000  1.0
  O  O13  1  0.32289000  0.77474000  0.25143000  1.0
  O  O14  1  0.25571000  0.82823000  0.20165000  1.0
  O  O15  1  0.80116000  0.66766000  0.19981000  1.0
  O  O16  1  0.65130000  0.81455000  0.19925000  1.0
  O  O17  1  0.64113000  0.29213000  0.20355000  1.0
  O  O18  1  0.73700000  0.61487000  0.24946000  1.0
  O  O19  1  0.58712000  0.76387000  0.24977000  1.0
  O  O20  1  0.73557000  0.35783000  0.24979000  1.0
  O  O21  1  0.79656000  0.28453000  0.19983000  1.0
  O  O22  1  0.58107000  0.36105000  0.25487000  1.0
  O  O23  1  0.25724000  0.67771000  0.20383000  1.0
  O  O24  1  0.32137000  0.62499000  0.25449000  1.0
  O  O25  1  0.15214000  0.27364000  0.75136000  1.0
  O  O26  1  0.21466000  0.32786000  0.70167000  1.0
  O  O27  1  0.83064000  0.16733000  0.69984000  1.0
  O  O28  1  0.83433000  0.31478000  0.69968000  1.0
  O  O29  1  0.36182000  0.79298000  0.70338000  1.0
  O  O30  1  0.89791000  0.11494000  0.74958000  1.0
  O  O31  1  0.90009000  0.26261000  0.74986000  1.0
  O  O32  1  0.15620000  0.85820000  0.74992000  1.0
  O  O33  1  0.21783000  0.78511000  0.69989000  1.0
  O  O34  1  0.30318000  0.86177000  0.75476000  1.0
  O  O35  1  0.36019000  0.17816000  0.70378000  1.0
  O  O36  1  0.30020000  0.12403000  0.75464000  1.0
  O  O37  1  0.67711000  0.22525000  0.74858000  1.0
  O  O38  1  0.74429000  0.17176000  0.79836000  1.0
  O  O39  1  0.19886000  0.33233000  0.80019000  1.0
  O  O40  1  0.34870000  0.18544000  0.80076000  1.0
  O  O41  1  0.35887000  0.70786000  0.79646000  1.0
  O  O42  1  0.26300000  0.38513000  0.75055000  1.0
  O  O43  1  0.41289000  0.23612000  0.75024000  1.0
  O  O44  1  0.26444000  0.64217000  0.75021000  1.0
  O  O45  1  0.20344000  0.71547000  0.80018000  1.0
  O  O46  1  0.41893000  0.63895000  0.74513000  1.0
  O  O47  1  0.74276000  0.32229000  0.79617000  1.0
  O  O48  1  0.67864000  0.37501000  0.74551000  1.0
