# generated using pymatgen
data_DyZnH10C20N3O10
_symmetry_space_group_name_H-M   'P 1'
_cell_length_a   10.66000000
_cell_length_b   11.37700000
_cell_length_c   12.50900000
_cell_angle_alpha   86.24000000
_cell_angle_beta   81.85000000
_cell_angle_gamma   89.07000000
_symmetry_Int_Tables_number   1
_chemical_formula_structural   DyZnH10C20N3O10
_chemical_formula_sum   'Dy2 Zn2 H20 C40 N6 O20'
_cell_volume   1498.48530809
_cell_formula_units_Z   2
loop_
 _symmetry_equiv_pos_site_id
 _symmetry_equiv_pos_as_xyz
  1  'x, y, z'
loop_
 _atom_site_type_symbol
 _atom_site_label
 _atom_site_symmetry_multiplicity
 _atom_site_fract_x
 _atom_site_fract_y
 _atom_site_fract_z
 _atom_site_occupancy
  Dy  Dy1  1  0.57331000  0.51408000  0.23813000  1.0
  Dy  Dy2  1  0.42669000  0.48592000  0.76187000  1.0
  Zn  Zn1  1  0.36811000  0.16410000  0.20067000  1.0
  Zn  Zn2  1  0.63189000  0.83590000  0.79933000  1.0
  H  H1  1  0.27560000  0.94240000  0.58240000  1.0
  H  H2  1  0.31730000  0.10210000  0.67710000  1.0
  H  H3  1  0.23700000  0.38340000  0.10380000  1.0
  H  H4  1  0.29430000  0.96120000  0.39590000  1.0
  H  H5  1  0.09460000  0.12390000  0.30350000  1.0
  H  H6  1  0.89640000  0.20770000  0.31560000  1.0
  H  H7  1  0.04230000  0.47250000  0.11100000  1.0
  H  H8  1  0.67300000  0.18060000  0.17980000  1.0
  H  H9  1  0.81200000  0.88330000  0.05170000  1.0
  H  H10  1  0.84560000  0.06980000  0.10850000  1.0
  H  H11  1  0.72440000  0.05760000  0.41760000  1.0
  H  H12  1  0.68270000  0.89790000  0.32290000  1.0
  H  H13  1  0.76300000  0.61660000  0.89620000  1.0
  H  H14  1  0.70570000  0.03880000  0.60410000  1.0
  H  H15  1  0.90540000  0.87610000  0.69650000  1.0
  H  H16  1  0.10360000  0.79230000  0.68440000  1.0
  H  H17  1  0.95770000  0.52750000  0.88900000  1.0
  H  H18  1  0.32700000  0.81940000  0.82020000  1.0
  H  H19  1  0.18800000  0.11670000  0.94830000  1.0
  H  H20  1  0.15440000  0.93020000  0.89150000  1.0
  C  C1  1  0.39650000  0.31690000  0.61060000  1.0
  C  C2  1  0.62080000  0.88550000  0.08900000  1.0
  C  C3  1  0.30110000  0.01350000  0.54550000  1.0
  C  C4  1  0.32720000  0.10840000  0.60190000  1.0
  C  C5  1  0.38180000  0.21790000  0.43230000  1.0
  C  C6  1  0.36870000  0.21450000  0.54520000  1.0
  C  C7  1  0.16800000  0.34790000  0.14710000  1.0
  C  C8  1  0.31340000  0.02510000  0.43330000  1.0
  C  C9  1  0.08410000  0.19510000  0.26480000  1.0
  C  C10  1  0.96430000  0.24480000  0.27220000  1.0
  C  C11  1  0.05110000  0.40170000  0.15100000  1.0
  C  C12  1  0.65980000  0.10660000  0.15610000  1.0
  C  C13  1  0.81670000  0.40770000  0.21980000  1.0
  C  C14  1  0.38140000  0.92010000  0.14440000  1.0
  C  C15  1  0.60000000  0.76200000  0.05530000  1.0
  C  C16  1  0.43420000  0.32420000  0.36190000  1.0
  C  C17  1  0.51980000  0.95760000  0.13150000  1.0
  C  C18  1  0.74360000  0.92880000  0.08020000  1.0
  C  C19  1  0.94610000  0.35050000  0.21440000  1.0
  C  C20  1  0.76390000  0.04020000  0.11400000  1.0
  C  C21  1  0.60350000  0.68310000  0.38940000  1.0
  C  C22  1  0.37920000  0.11450000  0.91100000  1.0
  C  C23  1  0.69890000  0.98650000  0.45450000  1.0
  C  C24  1  0.67280000  0.89160000  0.39810000  1.0
  C  C25  1  0.61820000  0.78210000  0.56770000  1.0
  C  C26  1  0.63130000  0.78550000  0.45480000  1.0
  C  C27  1  0.83200000  0.65210000  0.85290000  1.0
  C  C28  1  0.68660000  0.97490000  0.56670000  1.0
  C  C29  1  0.91590000  0.80490000  0.73520000  1.0
  C  C30  1  0.03570000  0.75520000  0.72780000  1.0
  C  C31  1  0.94890000  0.59830000  0.84900000  1.0
  C  C32  1  0.34020000  0.89340000  0.84390000  1.0
  C  C33  1  0.18330000  0.59230000  0.78020000  1.0
  C  C34  1  0.61860000  0.07990000  0.85560000  1.0
  C  C35  1  0.40000000  0.23800000  0.94470000  1.0
  C  C36  1  0.56580000  0.67580000  0.63810000  1.0
  C  C37  1  0.48020000  0.04240000  0.86850000  1.0
  C  C38  1  0.25640000  0.07120000  0.91980000  1.0
  C  C39  1  0.05390000  0.64950000  0.78560000  1.0
  C  C40  1  0.23610000  0.95980000  0.88600000  1.0
  N  N1  1  0.35220000  0.12650000  0.37700000  1.0
  N  N2  1  0.18660000  0.24500000  0.20420000  1.0
  N  N3  1  0.53990000  0.06640000  0.16360000  1.0
  N  N4  1  0.64780000  0.87350000  0.62300000  1.0
  N  N5  1  0.81340000  0.75500000  0.79580000  1.0
  N  N6  1  0.46010000  0.93360000  0.83640000  1.0
  O  O1  1  0.50300000  0.32280000  0.64170000  1.0
  O  O2  1  0.30740000  0.38860000  0.63910000  1.0
  O  O3  1  0.72270000  0.35880000  0.28120000  1.0
  O  O4  1  0.60790000  0.68010000  0.12600000  1.0
  O  O5  1  0.29880000  0.99840000  0.17480000  1.0
  O  O6  1  0.58260000  0.74850000  0.95890000  1.0
  O  O7  1  0.80190000  0.50260000  0.16410000  1.0
  O  O8  1  0.44720000  0.31790000  0.25910000  1.0
  O  O9  1  0.46820000  0.41280000  0.40480000  1.0
  O  O10  1  0.35770000  0.81730000  0.12510000  1.0
  O  O11  1  0.49700000  0.67720000  0.35830000  1.0
  O  O12  1  0.69260000  0.61140000  0.36090000  1.0
  O  O13  1  0.27730000  0.64120000  0.71880000  1.0
  O  O14  1  0.39210000  0.31990000  0.87400000  1.0
  O  O15  1  0.70120000  0.00160000  0.82520000  1.0
  O  O16  1  0.41740000  0.25150000  0.04110000  1.0
  O  O17  1  0.19810000  0.49740000  0.83590000  1.0
  O  O18  1  0.55280000  0.68210000  0.74090000  1.0
  O  O19  1  0.53180000  0.58720000  0.59520000  1.0
  O  O20  1  0.64230000  0.18270000  0.87490000  1.0
