# generated using pymatgen
data_H9C16N2O3
_symmetry_space_group_name_H-M   'P 1'
_cell_length_a   15.33835000
_cell_length_b   15.33835000
_cell_length_c   92.03010000
_cell_angle_alpha   90.00000000
_cell_angle_beta   90.00000000
_cell_angle_gamma   120.00000000
_symmetry_Int_Tables_number   1
_chemical_formula_structural   H9C16N2O3
_chemical_formula_sum   'H108 C192 N24 O36'
_cell_volume   18750.71413128
_cell_formula_units_Z   12
loop_
 _symmetry_equiv_pos_site_id
 _symmetry_equiv_pos_as_xyz
  1  'x, y, z'
loop_
 _atom_site_type_symbol
 _atom_site_label
 _atom_site_symmetry_multiplicity
 _atom_site_fract_x
 _atom_site_fract_y
 _atom_site_fract_z
 _atom_site_occupancy
  C  1  1  0.95815350  0.03512750  0.92282900  1
  C  2  1  0.03798550  0.13675550  0.92087100  1
  C  3  1  0.09081150  0.19823850  0.93310800  1
  C  4  1  0.05470150  0.15816850  0.94709900  1
  C  5  1  0.97833100  0.05779100  0.94931600  1
  C  6  1  0.93114750  0.99494850  0.93714000  1
  C  7  1  0.05644500  0.17579000  0.90656900  1
  C  8  1  0.85590750  0.89310350  0.93884500  1
  C  10  1  0.90409050  0.97359750  0.91060700  1
  C  11  1  0.93045700  0.01396000  0.89629900  1
  C  12  1  0.87920250  0.95264550  0.88416500  1
  C  13  1  0.80114150  0.85310350  0.88640000  1
  C  14  1  0.76796200  0.81198700  0.90041400  1
  C  15  1  0.82337100  0.87241700  0.91258900  1
  C  16  1  0.00554250  0.11580650  0.89458000  1
  C  18  1  0.80542600  0.83303000  0.92685800  1
  C  23  1  0.95480750  0.02412550  0.96391100  1
  C  24  1  0.17822350  0.29588850  0.93231600  1
  C  25  1  0.90127950  0.98528550  0.86954400  1
  C  26  1  0.67991850  0.71487250  0.90129700  1
  C  31  1  0.07780050  0.04250050  0.25617000  1
  C  32  1  0.09952450  0.96260850  0.25421800  1
  C  33  1  0.10807250  0.90974250  0.26645800  1
  C  34  1  0.10382500  0.94571100  0.28044700  1
  C  35  1  0.07993050  0.02215150  0.28266200  1
  C  36  1  0.06451250  0.06947250  0.27047900  1
  C  37  1  0.12020600  0.94418200  0.23992000  1
  C  38  1  0.03810200  0.14485400  0.27217600  1
  C  40  1  0.07052550  0.09665650  0.24394600  1
  C  41  1  0.08458950  0.07029350  0.22964100  1
  C  42  1  0.07462900  0.12157300  0.21750000  1
  C  43  1  0.05334300  0.19976700  0.21973200  1
  C  44  1  0.04527100  0.23290300  0.23374200  1
  C  45  1  0.05015650  0.17744350  0.24591900  1
  C  46  1  0.11135400  0.99520800  0.22793100  1
  C  48  1  0.02868200  0.19541500  0.26018500  1
  C  53  1  0.06964450  0.04547850  0.29725800  1
  C  54  1  0.11837850  0.82237150  0.26566900  1
  C  55  1  0.08504400  0.09935400  0.20287900  1
  C  56  1  0.03621250  0.32095850  0.23461700  1
  C  61  1  0.96673950  0.92330150  0.58944900  1
  C  62  1  0.86511150  0.90153450  0.58749800  1
  C  63  1  0.80371950  0.89303250  0.59974100  1
  C  64  1  0.84394500  0.89726800  0.61372900  1
  C  65  1  0.94428050  0.92114650  0.61594100  1
  C  66  1  0.00701500  0.93660300  0.60375700  1
  C  67  1  0.82599450  0.88086550  0.57320100  1
  C  68  1  0.10883050  0.96309250  0.60545100  1
  C  70  1  0.02816050  0.93057250  0.57722300  1
  C  71  1  0.98772650  0.91649450  0.56291900  1
  C  72  1  0.04894150  0.92641250  0.55077800  1
  C  73  1  0.14841550  0.94766150  0.55300900  1
  C  74  1  0.18962750  0.95573350  0.56701900  1
  C  75  1  0.12930950  0.95090550  0.57919600  1
  C  76  1  0.88587750  0.88975250  0.56121000  1
  C  78  1  0.16878950  0.97247750  0.59346000  1
  C  83  1  0.97799200  0.93143800  0.63053200  1
  C  84  1  0.70601400  0.88270200  0.59895700  1
  C  85  1  0.01628750  0.91596750  0.53615800  1
  C  86  1  0.28672250  0.96477750  0.56790500  1
  C  91  1  0.94064950  0.98418650  0.41118000  1
  C  92  1  0.92425450  0.88566450  0.41435500  1
  C  93  1  0.88429100  0.80793300  0.40358600  1
  C  94  1  0.85356600  0.82954400  0.39021200  1
  C  95  1  0.87218400  0.92662800  0.38663000  1
  C  96  1  0.91714050  0.00492450  0.39708100  1
  C  97  1  0.94253500  0.86671900  0.42874600  1
  C  98  1  0.93832550  0.10372050  0.39390200  1
  C  100  1  0.98096000  0.06238300  0.42195300  1
  C  101  1  0.00372650  0.04146450  0.43608900  1
  C  102  1  0.04759200  0.11950700  0.44659600  1
  C  103  1  0.06718150  0.21684050  0.44297400  1
  C  104  1  0.03782500  0.23880500  0.42951700  1
  C  105  1  0.99787000  0.16104500  0.41875000  1
  C  106  1  0.98296550  0.94273550  0.43923800  1
  C  108  1  0.97990650  0.18002750  0.40434100  1
  C  113  1  0.85603250  0.94273650  0.37191600  1
  C  114  1  0.87722500  0.71191300  0.40505700  1
  C  115  1  0.06335750  0.10222450  0.46126800  1
  C  116  1  0.04495350  0.33484050  0.42804400  1
  C  121  1  0.01623450  0.95667050  0.07791600  1
  C  122  1  0.11476500  0.03874500  0.08110200  1
  C  123  1  0.19257050  0.07649250  0.07034500  1
  C  124  1  0.17101250  0.02419850  0.05696900  1
  C  125  1  0.07388850  0.94589450  0.05337000  1
  C  126  1  0.99554400  0.91247800  0.06381300  1
  C  127  1  0.13366350  0.07591550  0.09549700  1
  C  128  1  0.89674500  0.83490900  0.06062400  1
  C  130  1  0.93798650  0.91879650  0.08868000  1
  C  131  1  0.95887050  0.96240750  0.10282000  1
  C  132  1  0.88078900  0.92820800  0.11332200  1
  C  133  1  0.78342700  0.85058600  0.10968900  1
  C  134  1  0.76150400  0.79929700  0.09622700  1
  C  135  1  0.83931200  0.83712200  0.08546500  1
  C  136  1  0.05760500  0.04031300  0.10598100  1
  C  138  1  0.82038900  0.80018300  0.07105700  1
  C  143  1  0.05781300  0.91352000  0.03866100  1
  C  144  1  0.28859550  0.16541950  0.07182600  1
  C  145  1  0.89806900  0.96104900  0.12800300  1
  C  146  1  0.66543650  0.71042350  0.09472700  1
  C  151  1  0.04300450  0.05906250  0.74451900  1
  C  152  1  0.96087200  0.07544500  0.74769900  1
  C  153  1  0.92309200  0.11544300  0.73693700  1
  C  154  1  0.97530000  0.14600100  0.72355300  1
  C  155  1  0.05376600  0.12741600  0.71996500  1
  C  156  1  0.08721650  0.08255650  0.73041600  1
  C  157  1  0.92371250  0.05721750  0.76209400  1
  C  158  1  0.16486350  0.06142550  0.72723700  1
  C  160  1  0.08093450  0.01878850  0.75529000  1
  C  161  1  0.03730700  0.99607500  0.76943000  1
  C  162  1  0.07154450  0.95226850  0.77993600  1
  C  163  1  0.14933300  0.93276100  0.77631700  1
  C  164  1  0.20051150  0.96191350  0.76284600  1
  C  165  1  0.16266000  0.00184200  0.75208100  1
  C  166  1  0.95936950  0.01686250  0.77258600  1
  C  168  1  0.19962100  0.01986300  0.73767400  1
  C  173  1  0.08619400  0.14385800  0.70526200  1
  C  174  1  0.83419700  0.12259400  0.73841900  1
  C  175  1  0.03867900  0.93669800  0.79461600  1
  C  176  1  0.28934450  0.95464050  0.76136200  1
  C  181  1  0.99660250  0.93099450  0.01493900  1
  C  182  1  0.90516300  0.90759500  0.00802200  1
  C  183  1  0.89970600  0.91339100  0.99284500  1
  C  184  1  0.98631600  0.94506800  0.98414700  1
  C  185  1  0.07784950  0.96666550  0.99093000  1
  C  188  1  0.08254200  0.96003200  0.00615000  1
  C  196  1  0.93484250  0.00423050  0.34821000  1
  C  197  1  0.00258500  0.09587500  0.34131300  1
  C  198  1  0.01374550  0.10154050  0.32613400  1
  C  199  1  0.95907950  0.01495350  0.31742300  1
  C  200  1  0.88944750  0.92321850  0.32418900  1
  C  203  1  0.87806300  0.91833700  0.33940800  1
  C  211  1  0.06992500  0.06555900  0.68154000  1
  C  212  1  0.09401050  0.99790550  0.67465700  1
  C  213  1  0.08896650  0.98698950  0.65947500  1
  C  214  1  0.05733550  0.04181150  0.65074600  1
  C  215  1  0.03507300  0.11137100  0.65750000  1
  C  218  1  0.04117150  0.12255150  0.67272300  1
  C  226  1  0.33814250  0.41221150  0.91996900  1
  C  227  1  0.41845650  0.41598650  0.91187300  1
  C  228  1  0.50746150  0.50731250  0.90912800  1
  C  229  1  0.52020300  0.60088200  0.91389900  1
  C  230  1  0.43934650  0.59761150  0.92192400  1
  C  233  1  0.35076150  0.50560050  0.92476900  1
  C  241  1  0.07496500  0.66254200  0.25331400  1
  C  242  1  0.99849350  0.58222850  0.24520900  1
  C  243  1  0.00094850  0.49331550  0.24244700  1
  C  244  1  0.08175900  0.48059600  0.24723200  1
  C  245  1  0.15923650  0.56141450  0.25527700  1
  C  248  1  0.15575300  0.64997100  0.25812000  1
  C  256  1  0.58960850  0.92605750  0.58659400  1
  C  257  1  0.58574750  0.00249550  0.57848300  1
  C  258  1  0.49437950  0.00004150  0.57572200  1
  C  259  1  0.40086100  0.91925200  0.58051400  1
  C  260  1  0.40421350  0.84181050  0.58856700  1
  C  263  1  0.49626400  0.84532400  0.59141500  1
  C  271  1  0.95304050  0.61210550  0.41382000  1
  C  272  1  0.04614200  0.61751100  0.41686000  1
  C  273  1  0.05306150  0.53066550  0.41934500  1
  C  274  1  0.96673350  0.43314350  0.41941800  1
  C  275  1  0.87283550  0.42742350  0.41654000  1
  C  278  1  0.86666650  0.51475950  0.41388100  1
  C  286  1  0.38833900  0.34108500  0.08057300  1
  C  287  1  0.38288400  0.42877400  0.08359900  1
  C  288  1  0.46969450  0.52256550  0.08608700  1
  C  289  1  0.56724650  0.53383650  0.08614700  1
  C  290  1  0.57301200  0.44565800  0.08329000  1
  C  293  1  0.48569900  0.35209700  0.08065500  1
  C  301  1  0.65857900  0.04674800  0.74717800  1
  C  302  1  0.57089450  0.95362950  0.75021400  1
  C  303  1  0.47711100  0.94668000  0.75269700  1
  C  304  1  0.46587500  0.03298200  0.75276000  1
  C  305  1  0.55406550  0.12690950  0.74989800  1
  C  308  1  0.64760950  0.13311850  0.74726300  1
  C  316  1  0.00279700  0.00452100  0.84835800  1
  C  317  1  0.92856400  0.93683800  0.83859500  1
  C  318  1  0.94840450  0.94097450  0.82364600  1
  C  319  1  0.04359650  0.01200050  0.81800500  1
  C  320  1  0.11787500  0.08092700  0.82771500  1
  C  323  1  0.09822450  0.07492450  0.84275900  1
  C  331  1  0.00252100  0.99753700  0.18172500  1
  C  332  1  0.00880300  0.07160300  0.17195300  1
  C  333  1  0.99283300  0.05155900  0.15701100  1
  C  334  1  0.96866850  0.95632250  0.15138700  1
  C  335  1  0.96361700  0.88222300  0.16110600  1
  C  338  1  0.97749650  0.90206450  0.17614400  1
  C  346  1  0.99654950  0.99821250  0.51500400  1
  C  347  1  0.06407300  0.99174900  0.50520000  1
  C  348  1  0.05963300  0.00748500  0.49025800  1
  C  349  1  0.98846100  0.03161200  0.48466600  1
  C  350  1  0.91968000  0.03686400  0.49441700  1
  C  353  1  0.92598000  0.02317500  0.50945300  1
  H  9  1  0.09101450  0.19987950  0.95611800  1
  H  17  1  0.76340700  0.81175400  0.87742400  1
  H  19  1  0.02300950  0.14894750  0.88454800  1
  H  20  1  0.10560550  0.25009150  0.90457000  1
  H  21  1  0.75535950  0.75898650  0.92887200  1
  H  22  1  0.83612750  0.86048350  0.94889100  1
  H  39  1  0.10938050  0.90949850  0.28946700  1
  H  47  1  0.04959900  0.23739500  0.21075000  1
  H  49  1  0.12705050  0.97772050  0.21790000  1
  H  50  1  0.14541450  0.89507150  0.23792800  1
  H  51  1  0.00475800  0.24553000  0.26219400  1
  H  52  1  0.02528450  0.16469850  0.28221800  1
  H  69  1  0.80219900  0.89182900  0.62274600  1
  H  77  1  0.18977650  0.95138850  0.54402700  1
  H  79  1  0.85266750  0.87397050  0.55118100  1
  H  80  1  0.75166150  0.85561650  0.57121300  1
  H  81  1  0.24283150  0.99641150  0.59546700  1
  H  82  1  0.14151800  0.97596600  0.61549300  1
  H  99  1  0.82711750  0.77635550  0.38213000  1
  H  107  1  0.09333200  0.26992900  0.45106800  1
  H  109  1  0.99709550  0.92408750  0.44928400  1
  H  110  1  0.92495850  0.79619650  0.43202800  1
  H  111  1  0.99790700  0.25063500  0.40104000  1
  H  112  1  0.92380900  0.12219800  0.38386900  1
  H  129  1  0.22424700  0.05091700  0.04889200  1
  H  137  1  0.73030300  0.82348700  0.11777600  1
  H  139  1  0.07621750  0.07304750  0.11603100  1
  H  140  1  0.20418300  0.12882500  0.09878600  1
  H  141  1  0.74978850  0.74759850  0.06774900  1
  H  142  1  0.87829550  0.80195950  0.05058800  1
  H  159  1  0.94876900  0.17280000  0.71548900  1
  H  167  1  0.17625550  0.90648350  0.78439500  1
  H  169  1  0.92665850  0.00279150  0.78263700  1
  H  170  1  0.87083000  0.07486700  0.76538200  1
  H  171  1  0.25221050  0.00184450  0.73436800  1
  H  172  1  0.19784150  0.07594550  0.71720200  1
  H  186  1  0.83276100  0.89754100  0.98819500  1
  H  187  1  0.84209700  0.88832700  0.01407800  1
  H  189  1  0.15111650  0.98315450  0.01082900  1
  H  191  1  0.19282900  0.07251300  0.98187800  1
  H  193  1  0.96388250  0.96574150  0.03438000  1
  H  195  1  0.02002900  0.93831700  0.96320700  1
  H  201  1  0.06471050  0.16857550  0.32149200  1
  H  202  1  0.04622000  0.15891500  0.34738100  1
  H  204  1  0.83289900  0.84965800  0.34407700  1
  H  206  1  0.88083100  0.80859100  0.31509700  1
  H  208  1  0.00218900  0.03687900  0.36766000  1
  H  210  1  0.91865750  0.98144950  0.29649800  1
  H  216  1  0.10511950  0.93605950  0.65484300  1
  H  217  1  0.11316750  0.95412750  0.68073700  1
  H  219  1  0.01747600  0.16762500  0.67737400  1
  H  221  1  0.92930200  0.12015000  0.64835700  1
  H  223  1  0.03451500  0.99781500  0.70096100  1
  H  225  1  0.06463550  0.08243850  0.62982100  1
  H  231  1  0.56465250  0.50329850  0.90411200  1
  H  232  1  0.41433500  0.35078900  0.90831200  1
  H  234  1  0.29329650  0.50878150  0.92984400  1
  H  236  1  0.42195900  0.70991900  0.91886300  1
  H  238  1  0.24900450  0.26394750  0.91694100  1
  H  240  1  0.61268300  0.74868800  0.91692800  1
  H  246  1  0.93981800  0.43614400  0.23741200  1
  H  247  1  0.93749350  0.58638550  0.24162200  1
  H  249  1  0.21629200  0.70739300  0.26321800  1
  H  251  1  0.28899650  0.57889850  0.25224500  1
  H  253  1  0.01575850  0.75162450  0.25028400  1
  H  255  1  0.13714150  0.38817050  0.25026000  1
  H  261  1  0.49831550  0.06113750  0.57067800  1
  H  262  1  0.65089700  0.06347100  0.57488800  1
  H  264  1  0.49312450  0.78475050  0.59650500  1
  H  266  1  0.29193600  0.71204500  0.58553800  1
  H  268  1  0.73791100  0.98529500  0.58356500  1
  H  270  1  0.25304800  0.86391500  0.58355100  1
  H  276  1  0.12344950  0.54014150  0.42045500  1
  H  277  1  0.11138150  0.68566250  0.41675600  1
  H  279  1  0.79664950  0.50611150  0.41269400  1
  H  281  1  0.76288100  0.32288900  0.42665300  1
  H  283  1  0.01359600  0.76187000  0.41343700  1
  H  285  1  0.90898650  0.28373950  0.41961500  1
  H  291  1  0.46017300  0.58347000  0.08716100  1
  H  292  1  0.31471800  0.42583200  0.08348400  1
  H  294  1  0.49438650  0.29075650  0.07946600  1
  H  296  1  0.67763500  0.44039900  0.09340300  1
  H  298  1  0.23858100  0.25183900  0.08018600  1
  H  300  1  0.71665350  0.62554750  0.08633800  1
  H  306  1  0.41619350  0.87626250  0.75376800  1
  H  307  1  0.57377600  0.88837800  0.75008300  1
  H  309  1  0.70895150  0.20313950  0.74605900  1
  H  311  1  0.55938500  0.23683200  0.76000700  1
  H  313  1  0.74779950  0.98618750  0.74678500  1
  H  315  1  0.37421200  0.09071600  0.75295200  1
  H  321  1  0.89243400  0.89179400  0.81687800  1
  H  322  1  0.86005300  0.88208700  0.84234000  1
  H  324  1  0.15368500  0.12352700  0.84965100  1
  H  326  1  0.21127300  0.21235600  0.82142200  1
  H  328  1  0.03920950  0.99964950  0.86918800  1
  H  330  1  0.10173550  0.08432350  0.79919500  1
  H  336  1  0.99943300  0.10741600  0.15023500  1
  H  337  1  0.02254500  0.14013400  0.17568600  1
  H  339  1  0.97087750  0.84672950  0.18304400  1
  H  341  1  0.00171050  0.78888050  0.15481100  1
  H  343  1  0.96159250  0.96133450  0.20257000  1
  H  345  1  0.98274300  0.89809500  0.13258100  1
  H  351  1  0.10873450  0.00079450  0.48346100  1
  H  352  1  0.11894550  0.97805550  0.50890800  1
  H  354  1  0.87748400  0.02996900  0.51637500  1
  H  356  1  0.78811200  0.99878000  0.48818800  1
  H  358  1  0.00154600  0.03930900  0.53584700  1
  H  360  1  0.91581000  0.01748700  0.46589100  1
  N  192  1  0.00201750  0.93774150  0.02979500  1
  N  194  1  0.98375300  0.96040100  0.96955500  1
  N  207  1  0.93609350  0.99871250  0.36306600  1
  N  209  1  0.97707350  0.01784750  0.30282800  1
  N  222  1  0.06260650  0.06400550  0.69639000  1
  N  224  1  0.04253550  0.02397150  0.63614300  1
  N  237  1  0.25325050  0.32069750  0.92234900  1
  N  239  1  0.60626950  0.69139250  0.91145500  1
  N  252  1  0.06825100  0.74737700  0.25569400  1
  N  254  1  0.08625650  0.39456550  0.24478400  1
  N  267  1  0.68116450  0.93277750  0.58897200  1
  N  269  1  0.31032450  0.91474050  0.57806900  1
  N  282  1  0.95111600  0.69949500  0.41137300  1
  N  284  1  0.97057350  0.34657050  0.42174100  1
  N  297  1  0.30096950  0.25174250  0.07813200  1
  N  299  1  0.65380200  0.62429200  0.08845000  1
  N  312  1  0.74788500  0.04866700  0.74473100  1
  N  314  1  0.37543200  0.02910300  0.75506900  1
  N  327  1  0.98646200  0.99789600  0.86303600  1
  N  329  1  0.06266450  0.01709650  0.80340200  1
  N  342  1  0.01245050  0.01404750  0.19639900  1
  N  344  1  0.95446200  0.93705000  0.13679100  1
  N  357  1  0.00349650  0.98850050  0.52967600  1
  N  359  1  0.98310750  0.04566550  0.47007200  1
  O  27  1  0.92806200  0.07763200  0.97272800  1
  O  28  1  0.20094750  0.35741450  0.94402400  1
  O  29  1  0.82672750  0.98616850  0.86177000  1
  O  30  1  0.65498650  0.65360050  0.88952400  1
  O  57  1  0.14971050  0.07242650  0.30612300  1
  O  58  1  0.15707350  0.79961150  0.27738600  1
  O  59  1  0.16029600  0.17387100  0.19507600  1
  O  60  1  0.99998750  0.34593150  0.22283500  1
  O  87  1  0.92439250  0.85137650  0.63938100  1
  O  88  1  0.64449000  0.84339900  0.61065300  1
  O  89  1  0.01551100  0.84066900  0.52836000  1
  O  90  1  0.34779550  0.00049550  0.55610300  1
  O  117  1  0.76126450  0.88746650  0.36666100  1
  O  118  1  0.81002600  0.63593600  0.39646900  1
  O  119  1  0.15601100  0.16256900  0.46696300  1
  O  120  1  0.11167900  0.41090800  0.43666000  1
  O  147  1  0.11304350  0.87393350  0.03342400  1
  O  148  1  0.36461650  0.17417650  0.06325000  1
  O  149  1  0.83773600  0.99328900  0.13372300  1
  O  150  1  0.58940850  0.70163050  0.10330100  1
  O  177  1  0.12628800  0.23878000  0.70004700  1
  O  178  1  0.82542300  0.18981000  0.72983500  1
  O  179  1  0.00642300  0.84411500  0.80033400  1
  O  180  1  0.29811400  0.88733100  0.76991900  1
  O  190  1  0.16397050  0.99946450  0.98309200  1
  O  205  1  0.83639900  0.83715100  0.31633100  1
  O  220  1  0.00227300  0.16453400  0.64962400  1
  O  235  1  0.44314450  0.68296050  0.92697100  1
  O  250  1  0.24074950  0.55761850  0.26034200  1
  O  265  1  0.31890600  0.76029800  0.59363300  1
  O  280  1  0.78477150  0.33783750  0.41646100  1
  O  295  1  0.66262900  0.44723900  0.08321000  1
  O  310  1  0.55251150  0.21496050  0.74981700  1
  O  325  1  0.21151950  0.14895350  0.82287500  1
  O  340  1  0.93804100  0.78855300  0.15628400  1
  O  355  1  0.85152150  0.06244150  0.48962500  1
