# generated using pymatgen
data_MnCu3H48(C11O4)6
_symmetry_space_group_name_H-M   'P 1'
_cell_length_a   12.03908000
_cell_length_b   15.72015000
_cell_length_c   16.72375000
_cell_angle_alpha   109.99575000
_cell_angle_beta   97.25064000
_cell_angle_gamma   108.69574000
_symmetry_Int_Tables_number   1
_chemical_formula_structural   MnCu3H48(C11O4)6
_chemical_formula_sum   'Mn1 Cu3 H48 C66 O24'
_cell_volume   2716.66797546
_cell_formula_units_Z   1
loop_
 _symmetry_equiv_pos_site_id
 _symmetry_equiv_pos_as_xyz
  1  'x, y, z'
loop_
 _atom_site_type_symbol
 _atom_site_label
 _atom_site_symmetry_multiplicity
 _atom_site_fract_x
 _atom_site_fract_y
 _atom_site_fract_z
 _atom_site_occupancy
  Mn  Mn0  1  0.50000000  0.50000000  0.50000000  1
  Cu  Cu1  1  0.81650000  0.63384000  0.57044000  1
  Cu  Cu2  1  0.18350000  0.36617000  0.42956000  1
  Cu  Cu3  1  0.00000000  0.50002000  0.50000000  1
  H  H4  1  0.27159000  0.59982000  0.90749000  1
  H  H5  1  0.55169000  0.79209000  0.02516000  1
  H  H6  1  0.68601000  0.88683000  0.10562000  1
  H  H7  1  0.83183000  0.87190000  0.79985000  1
  H  H8  1  0.58126000  0.05589000  0.13173000  1
  H  H9  1  0.67743000  0.03544000  0.20761000  1
  H  H10  1  0.46031000  0.77224000  0.14391000  1
  H  H11  1  0.43926000  0.87202000  0.22329000  1
  H  H12  1  0.84453000  0.81122000  0.42805000  1
  H  H13  1  0.81574000  0.90834000  0.34088000  1
  H  H14  1  0.20570000  0.86462000  0.95510000  1
  H  H15  1  0.81013000  0.97020000  0.94748000  1
  H  H16  1  0.12591000  0.51996000  0.75709000  1
  H  H17  1  0.40429000  0.91775000  0.01895000  1
  H  H18  1  0.33564000  0.90740000  0.10584000  1
  H  H19  1  0.44926000  0.75347000  0.88542000  1
  H  H20  1  0.47265000  0.65711000  0.73938000  1
  H  H21  1  0.79781000  0.36476000  0.34292000  1
  H  H22  1  0.45261000  0.12008000  0.38046000  1
  H  H23  1  0.54376000  0.29448000  0.49146000  1
  H  H24  1  0.46309000  0.63220000  0.33527000  1
  H  H25  1  0.71347000  0.19328000  0.23453000  1
  H  H26  1  0.43155000  0.72872000  0.25023000  1
  H  H27  1  0.05512000  0.78147000  0.80756000  1
  H  H28  1  0.72841000  0.40018000  0.09251000  1
  H  H29  1  0.44832000  0.20792000  0.97484000  1
  H  H30  1  0.31400000  0.11318000  0.89439000  1
  H  H31  1  0.16818000  0.12811000  0.20015000  1
  H  H32  1  0.41875000  0.94412000  0.86827000  1
  H  H33  1  0.32258000  0.96457000  0.79240000  1
  H  H34  1  0.53969000  0.22776000  0.85609000  1
  H  H35  1  0.56075000  0.12799000  0.77671000  1
  H  H36  1  0.15548000  0.18878000  0.57196000  1
  H  H37  1  0.18426000  0.09166000  0.65913000  1
  H  H38  1  0.79431000  0.13539000  0.04491000  1
  H  H39  1  0.18987000  0.02980000  0.05252000  1
  H  H40  1  0.87410000  0.48005000  0.24291000  1
  H  H41  1  0.59571000  0.08225000  0.98106000  1
  H  H42  1  0.66437000  0.09261000  0.89416000  1
  H  H43  1  0.55075000  0.24653000  0.11458000  1
  H  H44  1  0.52735000  0.34289000  0.26063000  1
  H  H45  1  0.20220000  0.63524000  0.65708000  1
  H  H46  1  0.54739000  0.87993000  0.61954000  1
  H  H47  1  0.45625000  0.70553000  0.50855000  1
  H  H48  1  0.53691000  0.36780000  0.66473000  1
  H  H49  1  0.28654000  0.80672000  0.76547000  1
  H  H50  1  0.56846000  0.27128000  0.74977000  1
  H  H51  1  0.94489000  0.21855000  0.19245000  1
  C  C52  1  0.22339000  0.63859000  0.88469000  1
  C  C53  1  0.66594000  0.69701000  0.67493000  1
  C  C54  1  0.00799000  0.60667000  0.68058000  1
  C  C55  1  0.65381000  0.75862000  0.76149000  1
  C  C56  1  0.51824000  0.90626000  0.12274000  1
  C  C57  1  0.59740000  0.87156000  0.06439000  1
  C  C58  1  0.74863000  0.84748000  0.81957000  1
  C  C59  1  0.58245000  0.01751000  0.17567000  1
  C  C60  1  0.50060000  0.85184000  0.18396000  1
  C  C61  1  0.72985000  0.44407000  0.48515000  1
  C  C62  1  0.75507000  0.79368000  0.38823000  1
  C  C63  1  0.73947000  0.84767000  0.34022000  1
  C  C64  1  0.24895000  0.73695000  0.93951000  1
  C  C65  1  0.18733000  0.78892000  0.91290000  1
  C  C66  1  0.62303000  0.82360000  0.28898000  1
  C  C67  1  0.73651000  0.90203000  0.90125000  1
  C  C68  1  0.14205000  0.59437000  0.80170000  1
  C  C69  1  0.39286000  0.88183000  0.06507000  1
  C  C70  1  0.53330000  0.77903000  0.86708000  1
  C  C71  1  0.54603000  0.72527000  0.78572000  1
  C  C72  1  0.72674000  0.30978000  0.35296000  1
  C  C73  1  0.65539000  0.71489000  0.38603000  1
  C  C74  1  0.08207000  0.64639000  0.77317000  1
  C  C75  1  0.62897000  0.86700000  0.92507000  1
  C  C76  1  0.67080000  0.65557000  0.43640000  1
  C  C77  1  0.68117000  0.34006000  0.42589000  1
  C  C78  1  0.53014000  0.17410000  0.37414000  1
  C  C79  1  0.58122000  0.27091000  0.43580000  1
  C  C80  1  0.57809000  0.14474000  0.30152000  1
  C  C81  1  0.53959000  0.69283000  0.33599000  1
  C  C82  1  0.67721000  0.21304000  0.29119000  1
  C  C83  1  0.52237000  0.74682000  0.28790000  1
  C  C84  1  0.10329000  0.74268000  0.83039000  1
  C  C85  1  0.77662000  0.36142000  0.11531000  1
  C  C86  1  0.33406000  0.30300000  0.32507000  1
  C  C87  1  0.99202000  0.39335000  0.31943000  1
  C  C88  1  0.34620000  0.24139000  0.23851000  1
  C  C89  1  0.48177000  0.09375000  0.87726000  1
  C  C90  1  0.40260000  0.12845000  0.93562000  1
  C  C91  1  0.25138000  0.15253000  0.18043000  1
  C  C92  1  0.41755000  0.98249000  0.82434000  1
  C  C93  1  0.49940000  0.14816000  0.81604000  1
  C  C94  1  0.27016000  0.55593000  0.51486000  1
  C  C95  1  0.24494000  0.20632000  0.61177000  1
  C  C96  1  0.26054000  0.15233000  0.65978000  1
  C  C97  1  0.75105000  0.26305000  0.06050000  1
  C  C98  1  0.81267000  0.21109000  0.08711000  1
  C  C99  1  0.37697000  0.17640000  0.71103000  1
  C  C100  1  0.26349000  0.09798000  0.09875000  1
  C  C101  1  0.85795000  0.40564000  0.19831000  1
  C  C102  1  0.60715000  0.11818000  0.93493000  1
  C  C103  1  0.46671000  0.22097000  0.13292000  1
  C  C104  1  0.45397000  0.27473000  0.21428000  1
  C  C105  1  0.27327000  0.69023000  0.64704000  1
  C  C106  1  0.34461000  0.28511000  0.61398000  1
  C  C107  1  0.91794000  0.35363000  0.22683000  1
  C  C108  1  0.37103000  0.13300000  0.07493000  1
  C  C109  1  0.32921000  0.34444000  0.56360000  1
  C  C110  1  0.31884000  0.65994000  0.57411000  1
  C  C111  1  0.46986000  0.82590000  0.62586000  1
  C  C112  1  0.41879000  0.72909000  0.56420000  1
  C  C113  1  0.42192000  0.85526000  0.69848000  1
  C  C114  1  0.46041000  0.30718000  0.66401000  1
  C  C115  1  0.32280000  0.78697000  0.70881000  1
  C  C116  1  0.47763000  0.25319000  0.71210000  1
  C  C117  1  0.89672000  0.25733000  0.16962000  1
  O  O118  1  0.67175000  0.48015000  0.53601000  1
  O  O119  1  0.33723000  0.77604000  0.01694000  1
  O  O120  1  0.95511000  0.65859000  0.66297000  1
  O  O121  1  0.57226000  0.62353000  0.62242000  1
  O  O122  1  0.77279000  0.72392000  0.66221000  1
  O  O123  1  0.57745000  0.58612000  0.43256000  1
  O  O124  1  0.01104000  0.52718000  0.62487000  1
  O  O125  1  0.78009000  0.67986000  0.48046000  1
  O  O126  1  0.61707000  0.87900000  0.24157000  1
  O  O127  1  0.52196000  0.04858000  0.24256000  1
  O  O128  1  0.83368000  0.50632000  0.48415000  1
  O  O129  1  0.61761000  0.92257000  0.00634000  1
  O  O130  1  0.32826000  0.51985000  0.46399000  1
  O  O131  1  0.66277000  0.22396000  0.98307000  1
  O  O132  1  0.04490000  0.34143000  0.33703000  1
  O  O133  1  0.42774000  0.37647000  0.37758000  1
  O  O134  1  0.22721000  0.27608000  0.33779000  1
  O  O135  1  0.42255000  0.41388000  0.56744000  1
  O  O136  1  0.98897000  0.47283000  0.37514000  1
  O  O137  1  0.21991000  0.32014000  0.51954000  1
  O  O138  1  0.38293000  0.12101000  0.75843000  1
  O  O139  1  0.47804000  0.95143000  0.75744000  1
  O  O140  1  0.16632000  0.49369000  0.51585000  1
  O  O141  1  0.38240000  0.07744000  0.99367000  1
