# generated using pymatgen
data_VH4C16O5F4
_symmetry_space_group_name_H-M   'P 1'
_cell_length_a   7.23805000
_cell_length_b   14.82331000
_cell_length_c   22.59718000
_cell_angle_alpha   90.00002000
_cell_angle_beta   90.00167000
_cell_angle_gamma   88.67868000
_symmetry_Int_Tables_number   1
_chemical_formula_structural   VH4C16O5F4
_chemical_formula_sum   'V4 H16 C64 O20 F16'
_cell_volume   2423.84877058
_cell_formula_units_Z   4
loop_
 _symmetry_equiv_pos_site_id
 _symmetry_equiv_pos_as_xyz
  1  'x, y, z'
loop_
 _atom_site_type_symbol
 _atom_site_label
 _atom_site_symmetry_multiplicity
 _atom_site_fract_x
 _atom_site_fract_y
 _atom_site_fract_z
 _atom_site_occupancy
  V  V0  1  0.83216000  0.74998000  0.49317000  1
  V  V1  1  0.66784000  0.25002000  0.99317000  1
  V  V2  1  0.33216000  0.75002000  0.50683000  1
  V  V3  1  0.16784000  0.24998000  0.00683000  1
  H  H4  1  0.06230000  0.36974000  0.81466000  1
  H  H5  1  0.43785000  0.63030000  0.31464000  1
  H  H6  1  0.42193000  0.13432000  0.19078000  1
  H  H7  1  0.07800000  0.86567000  0.69078000  1
  H  H8  1  0.78687000  0.66524000  0.87317000  1
  H  H9  1  0.71287000  0.33471000  0.37319000  1
  H  H10  1  0.58672000  0.82876000  0.11650000  1
  H  H11  1  0.91341000  0.17125000  0.61650000  1
  H  H12  1  0.13799000  0.35302000  0.72686000  1
  H  H13  1  0.36211000  0.64701000  0.22684000  1
  H  H14  1  0.41628000  0.15314000  0.28166000  1
  H  H15  1  0.08354000  0.84684000  0.78167000  1
  H  H16  1  0.21398000  0.33567000  0.62441000  1
  H  H17  1  0.28615000  0.66436000  0.12439000  1
  H  H18  1  0.41806000  0.17161000  0.38689000  1
  H  H19  1  0.08173000  0.82837000  0.88689000  1
  C  C20  1  0.55393000  0.62628000  0.42643000  1
  C  C21  1  0.94607000  0.37372000  0.92643000  1
  C  C22  1  0.05044000  0.87352000  0.57359000  1
  C  C23  1  0.44956000  0.12648000  0.07359000  1
  C  C24  1  0.55039000  0.87301000  0.42601000  1
  C  C25  1  0.94961000  0.12699000  0.92601000  1
  C  C26  1  0.05376000  0.62737000  0.57438000  1
  C  C27  1  0.44625000  0.37263000  0.07437000  1
  C  C28  1  0.84786000  0.60148000  0.85881000  1
  C  C29  1  0.65198000  0.39849000  0.35883000  1
  C  C30  1  0.55051000  0.89469000  0.13432000  1
  C  C31  1  0.94958000  0.10531000  0.63432000  1
  C  C32  1  0.94556000  0.44901000  0.88366000  1
  C  C33  1  0.55442000  0.55099000  0.38366000  1
  C  C34  1  0.46634000  0.05095000  0.11585000  1
  C  C35  1  0.03367000  0.94905000  0.61585000  1
  C  C36  1  0.12925000  0.46982000  0.59971000  1
  C  C37  1  0.37082000  0.53019000  0.09970000  1
  C  C38  1  0.49074000  0.03374000  0.40591000  1
  C  C39  1  0.00916000  0.96625000  0.90591000  1
  C  C40  1  0.15506000  0.39941000  0.63953000  1
  C  C41  1  0.34503000  0.60061000  0.13951000  1
  C  C42  1  0.45192000  0.10588000  0.36841000  1
  C  C43  1  0.04793000  0.89411000  0.86841000  1
  C  C44  1  0.10946000  0.41040000  0.69888000  1
  C  C45  1  0.39062000  0.58963000  0.19887000  1
  C  C46  1  0.45212000  0.09418000  0.30735000  1
  C  C47  1  0.04776000  0.90581000  0.80735000  1
  C  C48  1  0.03115000  0.49239000  0.72028000  1
  C  C49  1  0.46888000  0.50762000  0.22027000  1
  C  C50  1  0.49645000  0.00947000  0.28152000  1
  C  C51  1  0.00351000  0.99053000  0.78152000  1
  C  C52  1  0.00205000  0.56506000  0.67900000  1
  C  C53  1  0.49795000  0.43494000  0.17900000  1
  C  C54  1  0.54036000  0.93521000  0.32023000  1
  C  C55  1  0.95964000  0.06479000  0.82023000  1
  C  C56  1  0.98157000  0.50433000  0.78136000  1
  C  C57  1  0.51843000  0.49568000  0.28136000  1
  C  C58  1  0.49791000  0.99632000  0.21857000  1
  C  C59  1  0.00208000  0.00368000  0.71857000  1
  C  C60  1  0.90190000  0.58828000  0.79964000  1
  C  C61  1  0.59801000  0.41171000  0.29965000  1
  C  C62  1  0.54581000  0.90956000  0.19575000  1
  C  C63  1  0.95424000  0.09044000  0.69575000  1
  C  C64  1  0.87405000  0.65817000  0.75876000  1
  C  C65  1  0.62583000  0.34181000  0.25877000  1
  C  C66  1  0.59174000  0.83850000  0.23419000  1
  C  C67  1  0.90835000  0.16151000  0.73419000  1
  C  C68  1  0.92409000  0.64738000  0.69974000  1
  C  C69  1  0.57585000  0.35261000  0.19974000  1
  C  C70  1  0.58826000  0.85059000  0.29519000  1
  C  C71  1  0.91182000  0.14942000  0.79519000  1
  C  C72  1  0.00468000  0.43546000  0.82499000  1
  C  C73  1  0.49537000  0.56456000  0.32498000  1
  C  C74  1  0.45676000  0.06646000  0.17715000  1
  C  C75  1  0.04320000  0.93354000  0.67715000  1
  C  C76  1  0.86730000  0.53234000  0.90014000  1
  C  C77  1  0.63256000  0.46764000  0.40016000  1
  C  C78  1  0.51283000  0.96476000  0.09482000  1
  C  C79  1  0.98723000  0.03524000  0.59482000  1
  C  C80  1  0.05444000  0.55314000  0.61836000  1
  C  C81  1  0.44558000  0.44686000  0.11836000  1
  C  C82  1  0.53382000  0.94803000  0.38292000  1
  C  C83  1  0.96616000  0.05198000  0.88292000  1
  O  O84  1  0.39081000  0.84481000  0.44734000  1
  O  O85  1  0.10919000  0.15519000  0.94734000  1
  O  O86  1  0.89081000  0.65519000  0.55266000  1
  O  O87  1  0.60919000  0.34481000  0.05266000  1
  O  O88  1  0.72055000  0.65582000  0.44042000  1
  O  O89  1  0.77945000  0.34418000  0.94042000  1
  O  O90  1  0.22055000  0.84418000  0.55958000  1
  O  O91  1  0.27945000  0.15582000  0.05958000  1
  O  O92  1  0.72053000  0.84413000  0.44042000  1
  O  O93  1  0.77947000  0.15587000  0.94042000  1
  O  O94  1  0.22053000  0.65587000  0.55958000  1
  O  O95  1  0.27947000  0.34413000  0.05958000  1
  O  O96  1  0.89083000  0.84481000  0.55266000  1
  O  O97  1  0.60917000  0.15519000  0.05266000  1
  O  O98  1  0.39083000  0.65519000  0.44734000  1
  O  O99  1  0.10917000  0.34481000  0.94734000  1
  O  O100  1  0.55731000  0.74998000  0.53682000  1
  O  O101  1  0.94269000  0.25002000  0.03682000  1
  O  O102  1  0.05731000  0.75002000  0.46318000  1
  O  O103  1  0.44269000  0.24998000  0.96318000  1
  F  F104  1  0.80773000  0.54648000  0.95645000  1
  F  F105  1  0.69205000  0.45348000  0.45647000  1
  F  F106  1  0.52509000  0.94883000  0.03576000  1
  F  F107  1  0.97502000  0.05118000  0.53576000  1
  F  F108  1  0.79441000  0.73790000  0.77586000  1
  F  F109  1  0.70539000  0.26207000  0.27588000  1
  F  F110  1  0.64436000  0.75639000  0.21248000  1
  F  F111  1  0.85578000  0.24363000  0.71248000  1
  F  F112  1  0.18062000  0.45708000  0.54243000  1
  F  F113  1  0.31947000  0.54294000  0.04241000  1
  F  F114  1  0.48298000  0.04724000  0.46533000  1
  F  F115  1  0.01691000  0.95275000  0.96533000  1
  F  F116  1  0.89181000  0.71855000  0.66321000  1
  F  F117  1  0.60810000  0.28143000  0.16322000  1
  F  F118  1  0.63697000  0.77854000  0.32921000  1
  F  F119  1  0.86316000  0.22148000  0.82921000  1
