# generated using pymatgen
data_CuH12C21NO5
_symmetry_space_group_name_H-M   'P 1'
_cell_length_a   10.42359000
_cell_length_b   10.85200000
_cell_length_c   10.86140000
_cell_angle_alpha   89.94689000
_cell_angle_beta   89.60171000
_cell_angle_gamma   90.26433000
_symmetry_Int_Tables_number   1
_chemical_formula_structural   CuH12C21NO5
_chemical_formula_sum   'Cu2 H24 C42 N2 O10'
_cell_volume   1228.56347302
_cell_formula_units_Z   2
loop_
 _symmetry_equiv_pos_site_id
 _symmetry_equiv_pos_as_xyz
  1  'x, y, z'
loop_
 _atom_site_type_symbol
 _atom_site_label
 _atom_site_symmetry_multiplicity
 _atom_site_fract_x
 _atom_site_fract_y
 _atom_site_fract_z
 _atom_site_occupancy
  Cu  Cu0  1  0.37470000  0.50000000  0.50000000  1
  Cu  Cu1  1  0.62530000  0.50000000  0.50000000  1
  H  H2  1  0.03252000  0.73605000  0.73738000  1
  H  H3  1  0.17423000  0.27598000  0.14886000  1
  H  H4  1  0.62975000  0.81427000  0.76199000  1
  H  H5  1  0.37038000  0.18570000  0.23800000  1
  H  H6  1  0.85093000  0.93961000  0.44868000  1
  H  H7  1  0.14900000  0.06043000  0.55122000  1
  H  H8  1  0.04460000  0.84362000  0.53626000  1
  H  H9  1  0.95538000  0.15633000  0.46347000  1
  H  H10  1  0.68966000  0.11942000  0.56922000  1
  H  H11  1  0.31034000  0.88058000  0.43081000  1
  H  H12  1  0.86436000  0.82455000  0.26007000  1
  H  H13  1  0.96758000  0.26382000  0.26232000  1
  H  H14  1  0.13613000  0.17498000  0.74016000  1
  H  H15  1  0.66072000  0.75054000  0.17433000  1
  H  H16  1  0.33959000  0.24929000  0.82600000  1
  H  H17  1  0.07586000  0.78068000  0.29750000  1
  H  H18  1  0.92465000  0.21863000  0.70242000  1
  H  H19  1  0.84257000  0.41060000  0.06765000  1
  H  H20  1  0.15734000  0.58922000  0.93198000  1
  H  H21  1  0.04626000  0.48427000  0.15570000  1
  H  H22  1  0.95382000  0.51527000  0.84381000  1
  H  H23  1  0.69836000  0.54323000  0.88041000  1
  H  H24  1  0.30164000  0.45681000  0.11958000  1
  H  H25  1  0.82595000  0.72391000  0.85097000  1
  C  C26  1  0.50079000  0.50445000  0.26151000  1
  C  C27  1  0.25590000  0.30802000  0.82966000  1
  C  C28  1  0.73681000  0.57488000  0.11577000  1
  C  C29  1  0.26328000  0.42496000  0.88422000  1
  C  C30  1  0.84662000  0.50069000  0.11035000  1
  C  C31  1  0.15341000  0.49907000  0.88941000  1
  C  C32  1  0.96229000  0.54243000  0.16013000  1
  C  C33  1  0.03784000  0.45717000  0.83957000  1
  C  C34  1  0.97033000  0.65898000  0.21468000  1
  C  C35  1  0.02996000  0.34053000  0.78518000  1
  C  C36  1  0.61175000  0.52324000  0.93254000  1
  C  C37  1  0.49921000  0.49556000  0.73848000  1
  C  C38  1  0.38824000  0.47681000  0.06746000  1
  C  C39  1  0.49778000  0.49314000  0.87210000  1
  C  C40  1  0.50223000  0.50690000  0.12790000  1
  C  C41  1  0.50055000  0.73845000  0.50397000  1
  C  C42  1  0.49945000  0.26155000  0.49603000  1
  C  C43  1  0.38474000  0.46761000  0.94036000  1
  C  C44  1  0.61527000  0.53241000  0.05964000  1
  C  C45  1  0.92807000  0.50000000  0.49999000  1
  C  C46  1  0.07193000  0.50000000  0.50001000  1
  C  C47  1  0.83043000  0.76926000  0.76232000  1
  C  C48  1  0.49840000  0.12799000  0.49391000  1
  C  C49  1  0.16970000  0.23067000  0.23753000  1
  C  C50  1  0.71980000  0.82102000  0.71201000  1
  C  C51  1  0.28030000  0.17894000  0.28792000  1
  C  C52  1  0.72604000  0.88219000  0.59803000  1
  C  C53  1  0.27399000  0.11780000  0.40193000  1
  C  C54  1  0.84424000  0.89137000  0.53574000  1
  C  C55  1  0.15575000  0.10864000  0.46414000  1
  C  C56  1  0.95407000  0.83765000  0.58535000  1
  C  C57  1  0.04595000  0.16231000  0.41444000  1
  C  C58  1  0.94722000  0.77681000  0.69866000  1
  C  C59  1  0.50159000  0.87201000  0.50611000  1
  C  C60  1  0.05287000  0.22311000  0.30111000  1
  C  C61  1  0.60726000  0.06726000  0.53740000  1
  C  C62  1  0.39273000  0.93274000  0.46263000  1
  C  C63  1  0.38997000  0.06019000  0.45480000  1
  C  C64  1  0.61002000  0.93981000  0.54522000  1
  C  C65  1  0.86025000  0.73369000  0.21949000  1
  C  C66  1  0.14011000  0.26590000  0.78061000  1
  C  C67  1  0.74436000  0.69173000  0.17049000  1
  N  N68  1  0.81359000  0.49999000  0.49999000  1
  N  N69  1  0.18641000  0.50001000  0.50001000  1
  O  O70  1  0.39419000  0.50001000  0.31965000  1
  O  O71  1  0.91400000  0.30215000  0.73797000  1
  O  O72  1  0.60581000  0.49999000  0.68035000  1
  O  O73  1  0.60581000  0.50001000  0.31964000  1
  O  O74  1  0.39419000  0.49999000  0.68036000  1
  O  O75  1  0.39419000  0.68036000  0.50001000  1
  O  O76  1  0.60581000  0.31964000  0.49999000  1
  O  O77  1  0.60581000  0.68035000  0.50001000  1
  O  O78  1  0.39419000  0.31965000  0.49999000  1
  O  O79  1  0.08640000  0.69721000  0.26180000  1
