# generated using pymatgen
data_EuH12(C4O)6
_symmetry_space_group_name_H-M   'P 1'
_cell_length_a   10.95357000
_cell_length_b   13.69799000
_cell_length_c   31.25137000
_cell_angle_alpha   89.95446000
_cell_angle_beta   98.48134000
_cell_angle_gamma   89.96839000
_symmetry_Int_Tables_number   1
_chemical_formula_structural   EuH12(C4O)6
_chemical_formula_sum   'Eu4 H48 C96 O24'
_cell_volume   4637.73286427
_cell_formula_units_Z   4
loop_
 _symmetry_equiv_pos_site_id
 _symmetry_equiv_pos_as_xyz
  1  'x, y, z'
loop_
 _atom_site_type_symbol
 _atom_site_label
 _atom_site_symmetry_multiplicity
 _atom_site_fract_x
 _atom_site_fract_y
 _atom_site_fract_z
 _atom_site_occupancy
  Eu  Eu1  1  0.06367000  0.92224000  0.45916000  1.0
  Eu  Eu2  1  0.93504000  0.42162000  0.04066000  1.0
  Eu  Eu3  1  0.93524000  0.07854000  0.54110000  1.0
  Eu  Eu4  1  0.06494000  0.57827000  0.95961000  1.0
  H  H1  1  0.21929000  0.01318000  0.64327000  1.0
  H  H2  1  0.36992000  0.97019000  0.70833000  1.0
  H  H3  1  0.55573000  0.77599000  0.63033000  1.0
  H  H4  1  0.40505000  0.82268000  0.56485000  1.0
  H  H5  1  0.22607000  0.19879000  0.11393000  1.0
  H  H6  1  0.38082000  0.15054000  0.17732000  1.0
  H  H7  1  0.17289000  0.30829000  0.26201000  1.0
  H  H8  1  0.02070000  0.35813000  0.19781000  1.0
  H  H9  1  0.85120000  0.73396000  0.47193000  1.0
  H  H10  1  0.72201000  0.58430000  0.46018000  1.0
  H  H11  1  0.52080000  0.67147000  0.56265000  1.0
  H  H12  1  0.65264000  0.82198000  0.57433000  1.0
  H  H13  1  0.78034000  0.51443000  0.85620000  1.0
  H  H14  1  0.62885000  0.47063000  0.79150000  1.0
  H  H15  1  0.44649000  0.27581000  0.87035000  1.0
  H  H16  1  0.59870000  0.32275000  0.93533000  1.0
  H  H17  1  0.77095000  0.70145000  0.38590000  1.0
  H  H18  1  0.61739000  0.65165000  0.32235000  1.0
  H  H19  1  0.82818000  0.80692000  0.23755000  1.0
  H  H20  1  0.97986000  0.85638000  0.30188000  1.0
  H  H21  1  0.14918000  0.23383000  0.02821000  1.0
  H  H22  1  0.27816000  0.08392000  0.03995000  1.0
  H  H23  1  0.47934000  0.17129000  0.93741000  1.0
  H  H24  1  0.34783000  0.32219000  0.92593000  1.0
  H  H25  1  0.77997000  0.98613000  0.35665000  1.0
  H  H26  1  0.62962000  0.02956000  0.29158000  1.0
  H  H27  1  0.44466000  0.22428000  0.36964000  1.0
  H  H28  1  0.59537000  0.17749000  0.43505000  1.0
  H  H29  1  0.77236000  0.79958000  0.88610000  1.0
  H  H30  1  0.61756000  0.84746000  0.82268000  1.0
  H  H31  1  0.82819000  0.69282000  0.73790000  1.0
  H  H32  1  0.98126000  0.64430000  0.80196000  1.0
  H  H33  1  0.14935000  0.26678000  0.52821000  1.0
  H  H34  1  0.27891000  0.41653000  0.53997000  1.0
  H  H35  1  0.47944000  0.32910000  0.43736000  1.0
  H  H36  1  0.34765000  0.17845000  0.42585000  1.0
  H  H37  1  0.21919000  0.48630000  0.14344000  1.0
  H  H38  1  0.37000000  0.52923000  0.20849000  1.0
  H  H39  1  0.55484000  0.72386000  0.13013000  1.0
  H  H40  1  0.40375000  0.67704000  0.06482000  1.0
  H  H41  1  0.22834000  0.29957000  0.61424000  1.0
  H  H42  1  0.38222000  0.34876000  0.67776000  1.0
  H  H43  1  0.17216000  0.19262000  0.76249000  1.0
  H  H44  1  0.02087000  0.14265000  0.69813000  1.0
  H  H45  1  0.85088000  0.76580000  0.97178000  1.0
  H  H46  1  0.72204000  0.91569000  0.95994000  1.0
  H  H47  1  0.52107000  0.82920000  0.06266000  1.0
  H  H48  1  0.65228000  0.67838000  0.07431000  1.0
  C  C1  1  0.79511000  0.05775000  0.43698000  1.0
  C  C2  1  0.69795000  0.08111000  0.39926000  1.0
  C  C3  1  0.70585000  0.03799000  0.35887000  1.0
  C  C4  1  0.62207000  0.06235000  0.32273000  1.0
  C  C5  1  0.52779000  0.13148000  0.32628000  1.0
  C  C6  1  0.48205000  0.82796000  0.63261000  1.0
  C  C7  1  0.39840000  0.85330000  0.59653000  1.0
  C  C8  1  0.44498000  0.16200000  0.28993000  1.0
  C  C9  1  0.02205000  0.31059000  0.11430000  1.0
  C  C10  1  0.11322000  0.28014000  0.15237000  1.0
  C  C11  1  0.21511000  0.22188000  0.14644000  1.0
  C  C12  1  0.30114000  0.19486000  0.18159000  1.0
  C  C13  1  0.28622000  0.22459000  0.22396000  1.0
  C  C14  1  0.18433000  0.28471000  0.22963000  1.0
  C  C15  1  0.09931000  0.31188000  0.19414000  1.0
  C  C16  1  0.37110000  0.19312000  0.25965000  1.0
  C  C17  1  0.83040000  0.87981000  0.53152000  1.0
  C  C18  1  0.75924000  0.78686000  0.52413000  1.0
  C  C19  1  0.77974000  0.71978000  0.49195000  1.0
  C  C20  1  0.70689000  0.63647000  0.48505000  1.0
  C  C21  1  0.61185000  0.61834000  0.51024000  1.0
  C  C22  1  0.59337000  0.68568000  0.54309000  1.0
  C  C23  1  0.66642000  0.76857000  0.54972000  1.0
  C  C24  1  0.53492000  0.53562000  0.50282000  1.0
  C  C25  1  0.20522000  0.55662000  0.06298000  1.0
  C  C26  1  0.30183000  0.58046000  0.10076000  1.0
  C  C27  1  0.29356000  0.53781000  0.14122000  1.0
  C  C28  1  0.37737000  0.56216000  0.17732000  1.0
  C  C29  1  0.47176000  0.63104000  0.17360000  1.0
  C  C30  1  0.51975000  0.32804000  0.86779000  1.0
  C  C31  1  0.60428000  0.35353000  0.90359000  1.0
  C  C32  1  0.55486000  0.66145000  0.20986000  1.0
  C  C33  1  0.97668000  0.81110000  0.38483000  1.0
  C  C34  1  0.88508000  0.78017000  0.34713000  1.0
  C  C35  1  0.78250000  0.72315000  0.35325000  1.0
  C  C36  1  0.69723000  0.69565000  0.31802000  1.0
  C  C37  1  0.71347000  0.72440000  0.27563000  1.0
  C  C38  1  0.81587000  0.78381000  0.26990000  1.0
  C  C39  1  0.90053000  0.81087000  0.30537000  1.0
  C  C40  1  0.62900000  0.69266000  0.23996000  1.0
  C  C41  1  0.17011000  0.37989000  0.96862000  1.0
  C  C42  1  0.24106000  0.28682000  0.97600000  1.0
  C  C43  1  0.22054000  0.21963000  0.00817000  1.0
  C  C44  1  0.29329000  0.13617000  0.01505000  1.0
  C  C45  1  0.38833000  0.11802000  0.98983000  1.0
  C  C46  1  0.40686000  0.18556000  0.95700000  1.0
  C  C47  1  0.33400000  0.26860000  0.95046000  1.0
  C  C48  1  0.46527000  0.03517000  0.99714000  1.0
  C  C49  1  0.20499000  0.94230000  0.56279000  1.0
  C  C50  1  0.30235000  0.91905000  0.60056000  1.0
  C  C51  1  0.29379000  0.96170000  0.64099000  1.0
  C  C52  1  0.37752000  0.93736000  0.67718000  1.0
  C  C53  1  0.47207000  0.86850000  0.67366000  1.0
  C  C54  1  0.51801000  0.17201000  0.36738000  1.0
  C  C55  1  0.60184000  0.14672000  0.40339000  1.0
  C  C56  1  0.55493000  0.83808000  0.71000000  1.0
  C  C57  1  0.98009000  0.69021000  0.88554000  1.0
  C  C58  1  0.88757000  0.72044000  0.84770000  1.0
  C  C59  1  0.78436000  0.77729000  0.85358000  1.0
  C  C60  1  0.69810000  0.80406000  0.81838000  1.0
  C  C61  1  0.71371000  0.77523000  0.77595000  1.0
  C  C62  1  0.81660000  0.71619000  0.77031000  1.0
  C  C63  1  0.90202000  0.68965000  0.80581000  1.0
  C  C64  1  0.62884000  0.80674000  0.74028000  1.0
  C  C65  1  0.16844000  0.12172000  0.46867000  1.0
  C  C66  1  0.24087000  0.21407000  0.47597000  1.0
  C  C67  1  0.22079000  0.28114000  0.50821000  1.0
  C  C68  1  0.29378000  0.36432000  0.51509000  1.0
  C  C69  1  0.38863000  0.38237000  0.48981000  1.0
  C  C70  1  0.40701000  0.31487000  0.45698000  1.0
  C  C71  1  0.33396000  0.23199000  0.45041000  1.0
  C  C72  1  0.46565000  0.46503000  0.49714000  1.0
  C  C73  1  0.79648000  0.44368000  0.93683000  1.0
  C  C74  1  0.69964000  0.41955000  0.89924000  1.0
  C  C75  1  0.70662000  0.46248000  0.85873000  1.0
  C  C76  1  0.62232000  0.43782000  0.82277000  1.0
  C  C77  1  0.52827000  0.36872000  0.82660000  1.0
  C  C78  1  0.48128000  0.67182000  0.13250000  1.0
  C  C79  1  0.39742000  0.64643000  0.09655000  1.0
  C  C80  1  0.44488000  0.33824000  0.79039000  1.0
  C  C81  1  0.02356000  0.18869000  0.61521000  1.0
  C  C82  1  0.11484000  0.21981000  0.65292000  1.0
  C  C83  1  0.21699000  0.27739000  0.64686000  1.0
  C  C84  1  0.30246000  0.30464000  0.68209000  1.0
  C  C85  1  0.28653000  0.27553000  0.72446000  1.0
  C  C86  1  0.18435000  0.21588000  0.73015000  1.0
  C  C87  1  0.09986000  0.18859000  0.69465000  1.0
  C  C88  1  0.37099000  0.30715000  0.76018000  1.0
  C  C89  1  0.82842000  0.61959000  0.03118000  1.0
  C  C90  1  0.75860000  0.71316000  0.02404000  1.0
  C  C91  1  0.77942000  0.78011000  0.99180000  1.0
  C  C92  1  0.70683000  0.86362000  0.98489000  1.0
  C  C93  1  0.61191000  0.88196000  0.01013000  1.0
  C  C94  1  0.59345000  0.81478000  0.04309000  1.0
  C  C95  1  0.66615000  0.73178000  0.04972000  1.0
  C  C96  1  0.53507000  0.96481000  0.00275000  1.0
  O  O1  1  0.88007000  0.00028000  0.42885000  1.0
  O  O2  1  0.21177000  0.90412000  0.52603000  1.0
  O  O3  1  0.94328000  0.37685000  0.11885000  1.0
  O  O4  1  0.02963000  0.27223000  0.07727000  1.0
  O  O5  1  0.92235000  0.89556000  0.51086000  1.0
  O  O6  1  0.79828000  0.94264000  0.55751000  1.0
  O  O7  1  0.12038000  0.49889000  0.07095000  1.0
  O  O8  1  0.79073000  0.40485000  0.97363000  1.0
  O  O9  1  0.05487000  0.87708000  0.37969000  1.0
  O  O10  1  0.97060000  0.77416000  0.42229000  1.0
  O  O11  1  0.07744000  0.39546000  0.98894000  1.0
  O  O12  1  0.20362000  0.44294000  0.94299000  1.0
  O  O13  1  0.11968000  0.99967000  0.57093000  1.0
  O  O14  1  0.78843000  0.09597000  0.47379000  1.0
  O  O15  1  0.05690000  0.62273000  0.88076000  1.0
  O  O16  1  0.97597000  0.72908000  0.92273000  1.0
  O  O17  1  0.07482000  0.10775000  0.48873000  1.0
  O  O18  1  0.20120000  0.05780000  0.44326000  1.0
  O  O19  1  0.87977000  0.50274000  0.92874000  1.0
  O  O20  1  0.21206000  0.59524000  0.02625000  1.0
  O  O21  1  0.94493000  0.12291000  0.62038000  1.0
  O  O22  1  0.03011000  0.22538000  0.57773000  1.0
  O  O23  1  0.92173000  0.60432000  0.01113000  1.0
  O  O24  1  0.79374000  0.55616000  0.05639000  1.0
