# generated using pymatgen
data_H32C51(NO)8
_symmetry_space_group_name_H-M   'P 1'
_cell_length_a   36.00131908
_cell_length_b   36.00186362
_cell_length_c   36.00085827
_cell_angle_alpha   70.52977174
_cell_angle_beta   70.53174902
_cell_angle_gamma   109.47522984
_symmetry_Int_Tables_number   1
_chemical_formula_structural   H32C51(NO)8
_chemical_formula_sum   'H192 C306 N48 O48'
_cell_volume   35919.81619077
_cell_formula_units_Z   6
loop_
 _symmetry_equiv_pos_site_id
 _symmetry_equiv_pos_as_xyz
  1  'x, y, z'
loop_
 _atom_site_type_symbol
 _atom_site_label
 _atom_site_symmetry_multiplicity
 _atom_site_fract_x
 _atom_site_fract_y
 _atom_site_fract_z
 _atom_site_occupancy
  C  1  1  0.85281500  0.32218300  0.40951500  1
  C  2  1  0.81733850  0.28758550  0.41143300  1
  C  3  1  0.82026400  0.22686200  0.46922900  1
  C  4  1  0.85292900  0.26042500  0.47115900  1
  C  5  1  0.87108450  0.24567200  0.49893150  1
  C  6  1  0.86063500  0.19983100  0.52176600  1
  C  7  1  0.82806800  0.16763100  0.51868700  1
  C  8  1  0.80723450  0.18066100  0.49407250  1
  C  9  1  0.79598550  0.29939650  0.38658200  1
  C  10  1  0.80759700  0.34484550  0.36192250  1
  C  11  1  0.84284450  0.38048550  0.35888600  1
  C  12  1  0.86584500  0.36811300  0.38173400  1
  C  13  1  0.86100050  0.33053450  0.47105500  1
  C  14  1  0.89563400  0.36554100  0.46960600  1
  C  15  1  0.95636750  0.36333500  0.41108850  1
  C  16  1  0.92282000  0.33014750  0.40963050  1
  C  17  1  0.00271100  0.37724200  0.38550300  1
  C  18  1  0.01595100  0.35641150  0.36100750  1
  C  19  1  0.98366250  0.32247300  0.35931550  1
  C  20  1  0.93769200  0.31163850  0.38228050  1
  C  21  1  0.81513600  0.31804650  0.49839750  1
  C  22  1  0.80300400  0.34108700  0.52131700  1
  C  23  1  0.83862300  0.37507550  0.51962850  1
  C  24  1  0.88394850  0.38628950  0.49520000  1
  C  37  1  0.87239250  0.31082550  0.44033900  1
  C  38  1  0.94459600  0.38303700  0.44034700  1
  C  41  1  0.80018650  0.23861100  0.44033250  1
  C  52  1  0.38966450  0.79731500  0.47126350  1
  C  53  1  0.42233450  0.83190400  0.47216050  1
  C  54  1  0.42536650  0.89263550  0.40842100  1
  C  55  1  0.38988300  0.85908700  0.40929300  1
  C  56  1  0.37692450  0.87385050  0.37633400  1
  C  57  1  0.40001400  0.91968100  0.34090700  1
  C  58  1  0.43521950  0.95189050  0.34134300  1
  C  59  1  0.44675600  0.93884250  0.37524250  1
  C  60  1  0.43532000  0.82009450  0.50537150  1
  C  61  1  0.41444700  0.77465450  0.53926350  1
  C  62  1  0.38189100  0.73900800  0.53962400  1
  C  63  1  0.37145650  0.75139150  0.50421800  1
  C  64  1  0.31982350  0.78900450  0.47133300  1
  C  65  1  0.28627850  0.75398950  0.47170100  1
  C  66  1  0.34701500  0.75615150  0.40882350  1
  C  67  1  0.38164650  0.78932300  0.40921050  1
  C  68  1  0.35870900  0.74225100  0.37638500  1
  C  69  1  0.40404450  0.76307450  0.34233800  1
  C  70  1  0.43966950  0.79696750  0.34073800  1
  C  71  1  0.42752000  0.80779250  0.37588350  1
  C  72  1  0.30494900  0.80151550  0.50468350  1
  C  73  1  0.25897650  0.77853400  0.53981150  1
  C  74  1  0.22669150  0.74454800  0.53815850  1
  C  75  1  0.23993350  0.73326250  0.50411000  1
  C  88  1  0.37025300  0.80868300  0.44027400  1
  C  89  1  0.29805000  0.73647750  0.44025450  1
  C  92  1  0.44246200  0.88087900  0.44029600  1
  C  103  1  0.59033600  0.32814650  0.20273950  1
  C  104  1  0.58944200  0.36078850  0.16812650  1
  C  105  1  0.65309100  0.36368500  0.10743300  1
  C  106  1  0.65220900  0.32822800  0.14101000  1
  C  107  1  0.68512600  0.31521350  0.12628550  1
  C  108  1  0.72050150  0.33819400  0.08044450  1
  C  109  1  0.72008600  0.37338550  0.04820250  1
  C  110  1  0.68626950  0.38502550  0.06123700  1
  C  111  1  0.55627550  0.37382950  0.17991500  1
  C  112  1  0.52243950  0.35305550  0.22536100  1
  C  113  1  0.52204700  0.32047500  0.26101300  1
  C  114  1  0.55744600  0.31003000  0.24866300  1
  C  115  1  0.59014400  0.25824300  0.21112600  1
  C  116  1  0.58978300  0.22469000  0.24612300  1
  C  117  1  0.65271750  0.28542100  0.24392450  1
  C  118  1  0.65235900  0.32006300  0.21073300  1
  C  119  1  0.68514500  0.29710700  0.25784500  1
  C  120  1  0.71921850  0.34243700  0.23701750  1
  C  121  1  0.72090850  0.37804450  0.20302300  1
  C  122  1  0.68575600  0.36592350  0.19220850  1
  C  123  1  0.55676250  0.24338850  0.19863900  1
  C  124  1  0.52158950  0.19743250  0.22168700  1
  C  125  1  0.52324350  0.16512150  0.25563600  1
  C  126  1  0.55733550  0.17834900  0.26687650  1
  C  139  1  0.62126150  0.30866900  0.19140450  1
  C  140  1  0.62124800  0.23645800  0.26362000  1
  C  143  1  0.62126050  0.38083300  0.11915650  1
  C  154  1  0.65206300  0.79125750  0.67785850  1
  C  155  1  0.65013850  0.75576950  0.71244800  1
  C  156  1  0.59236550  0.75870900  0.77317750  1
  C  157  1  0.59042400  0.79136550  0.73962350  1
  C  158  1  0.56265200  0.80952050  0.75437650  1
  C  159  1  0.53982350  0.79906400  0.80022250  1
  C  160  1  0.54290650  0.76650600  0.83241850  1
  C  161  1  0.56754950  0.74570250  0.81937700  1
  C  162  1  0.67497900  0.73441150  0.70063050  1
  C  163  1  0.69962000  0.74602050  0.65517750  1
  C  164  1  0.70268250  0.78128850  0.61954400  1
  C  165  1  0.67983950  0.80428900  0.63192750  1
  C  166  1  0.59052100  0.79943900  0.66951000  1
  C  167  1  0.59194950  0.83407650  0.63452700  1
  C  168  1  0.65045150  0.89480800  0.63675850  1
  C  169  1  0.65194450  0.86125650  0.66990100  1
  C  170  1  0.67602050  0.94114500  0.62288450  1
  C  171  1  0.70056800  0.95438150  0.64367850  1
  C  172  1  0.70229950  0.92209000  0.67756750  1
  C  173  1  0.67931950  0.87612050  0.68839600  1
  C  174  1  0.56319700  0.75357450  0.68197250  1
  C  175  1  0.54026700  0.74144900  0.65893300  1
  C  176  1  0.54193200  0.77706600  0.62497200  1
  C  177  1  0.56638600  0.82238850  0.61375150  1
  C  190  1  0.62123800  0.81083200  0.68922000  1
  C  191  1  0.62117350  0.88303800  0.61707350  1
  C  194  1  0.62125350  0.73862700  0.76142450  1
  C  205  1  0.32196400  0.52895950  0.20862450  1
  C  206  1  0.28840750  0.53087700  0.24130450  1
  C  207  1  0.34913600  0.58862100  0.24428400  1
  C  208  1  0.38373300  0.59054500  0.20880400  1
  C  209  1  0.42965650  0.61828000  0.19582450  1
  C  210  1  0.44201550  0.64106250  0.21887700  1
  C  211  1  0.40639500  0.63809800  0.25406800  1
  C  212  1  0.36094550  0.61344200  0.26566850  1
  C  213  1  0.24220450  0.50606400  0.25431250  1
  C  214  1  0.22916050  0.48147300  0.23346350  1
  C  215  1  0.26138050  0.47849450  0.20081500  1
  C  216  1  0.30720950  0.50122750  0.19043200  1
  C  217  1  0.39172350  0.59047800  0.13877450  1
  C  218  1  0.42488250  0.58898300  0.10524350  1
  C  219  1  0.42703350  0.53043350  0.16599200  1
  C  220  1  0.39203250  0.52899450  0.20061700  1
  C  221  1  0.44778050  0.50484850  0.17770000  1
  C  222  1  0.43645800  0.48028850  0.22304050  1
  C  223  1  0.40253750  0.47869450  0.25863400  1
  C  224  1  0.37951650  0.50163150  0.24648800  1
  C  225  1  0.37326950  0.61788650  0.12389400  1
  C  226  1  0.38410600  0.64085450  0.07792050  1
  C  227  1  0.41804050  0.63915600  0.04563550  1
  C  228  1  0.43878450  0.61456250  0.05890100  1
  C  241  1  0.37236200  0.55974500  0.18920600  1
  C  242  1  0.44454900  0.55969350  0.11702550  1
  C  245  1  0.30015950  0.55974300  0.26141250  1
  C  256  1  0.92060450  0.59076750  0.67175900  1
  C  257  1  0.95415950  0.59165150  0.63627800  1
  C  258  1  0.89343300  0.52794650  0.63925850  1
  C  259  1  0.85884200  0.52882750  0.67194050  1
  C  260  1  0.81291750  0.49586200  0.69014950  1
  C  261  1  0.80056850  0.46042850  0.67975200  1
  C  262  1  0.83618800  0.46086450  0.64709150  1
  C  263  1  0.88162800  0.49476700  0.62623300  1
  C  264  1  0.00036200  0.62484300  0.61489500  1
  C  265  1  0.01340800  0.65870200  0.62648400  1
  C  266  1  0.98120600  0.65908250  0.66173750  1
  C  267  1  0.93535600  0.62369250  0.68476150  1
  C  268  1  0.85085500  0.59087200  0.67997100  1
  C  269  1  0.81769500  0.59127450  0.71459650  1
  C  270  1  0.81551050  0.52837350  0.77534000  1
  C  271  1  0.85051450  0.52873000  0.74179850  1
  C  272  1  0.79475100  0.49593550  0.82168150  1
  C  273  1  0.80602050  0.46187750  0.83492700  1
  C  274  1  0.84002400  0.46024200  0.80265200  1
  C  275  1  0.86302550  0.49538000  0.75667750  1
  C  276  1  0.86934000  0.62421500  0.63410200  1
  C  277  1  0.85852950  0.65936700  0.62194850  1
  C  278  1  0.82458950  0.65773550  0.65755600  1
  C  279  1  0.80378300  0.62370150  0.70289550  1
  C  292  1  0.87020250  0.55979950  0.69137000  1
  C  293  1  0.79802350  0.55984400  0.76356250  1
  C  296  1  0.94240750  0.55980750  0.61914800  1
  C  613  1  0.74592350  0.38300600  0.66360050  1
  C  614  1  0.74011900  0.34083250  0.66715050  1
  C  615  1  0.74154550  0.33198450  0.63188300  1
  C  616  1  0.74896800  0.36439600  0.59089000  1
  C  617  1  0.75594150  0.40695300  0.58675550  1
  C  618  1  0.75439300  0.41575350  0.62208850  1
  C  621  1  0.72340850  0.27232800  0.68976450  1
  C  623  1  0.76323750  0.47211400  0.56766850  1
  C  625  1  0.70892000  0.22483000  0.71952000  1
  C  629  1  0.76903450  0.51673100  0.54119850  1
  C  633  1  0.73445650  0.38797550  0.70259700  1
  C  634  1  0.73901900  0.35150600  0.56092500  1
  C  637  1  0.07479550  0.73648150  0.63901300  1
  C  638  1  0.11347400  0.77864800  0.60270500  1
  C  639  1  0.15755450  0.78739400  0.59246850  1
  C  640  1  0.16604650  0.75487800  0.61744350  1
  C  641  1  0.12756900  0.71233550  0.65297350  1
  C  642  1  0.08347050  0.70364250  0.66328900  1
  C  645  1  0.15947900  0.84714350  0.55093050  1
  C  647  1  0.08138900  0.64712600  0.71075100  1
  C  649  1  0.17732250  0.89466250  0.51790100  1
  C  653  1  0.06315300  0.60243650  0.74951350  1
  C  657  1  0.03084900  0.73156650  0.65529950  1
  C  658  1  0.20890500  0.76750800  0.61445900  1
  C  661  1  0.49669000  0.71179000  0.24173500  1
  C  662  1  0.50251950  0.71408000  0.27808250  1
  C  663  1  0.50112300  0.74794700  0.28831800  1
  C  664  1  0.49370400  0.78151000  0.26331200  1
  C  665  1  0.48671750  0.77864550  0.22774200  1
  C  666  1  0.48824450  0.74483900  0.21742750  1
  C  669  1  0.51921750  0.70819350  0.32988400  1
  C  671  1  0.47937400  0.79038150  0.16990550  1
  C  673  1  0.53368500  0.69292700  0.36291500  1
  C  677  1  0.47354000  0.81101400  0.13110200  1
  C  681  1  0.50803750  0.68413950  0.22541800  1
  C  682  1  0.50355250  0.82140450  0.26627700  1
  C  685  1  0.16779950  0.40763300  0.21701150  1
  C  686  1  0.12911200  0.40527350  0.21354650  1
  C  687  1  0.08503650  0.37140650  0.24887600  1
  C  688  1  0.07655900  0.33790550  0.28984850  1
  C  689  1  0.11504250  0.34084000  0.29389550  1
  C  690  1  0.15913600  0.37465050  0.25850050  1
  C  693  1  0.08310150  0.41105000  0.19106850  1
  C  695  1  0.16123400  0.32921000  0.31287800  1
  C  697  1  0.06525300  0.42623050  0.16139350  1
  C  701  1  0.17948550  0.30865100  0.33928950  1
  C  705  1  0.21174000  0.43525550  0.17797450  1
  C  706  1  0.03371500  0.29800050  0.31998150  1
  C  709  1  0.42292150  0.01329300  0.26337250  1
  C  710  1  0.45926500  0.05196850  0.22122550  1
  C  711  1  0.46942350  0.09604650  0.21242800  1
  C  712  1  0.44434050  0.10453900  0.24486950  1
  C  713  1  0.40876700  0.06606500  0.28739600  1
  C  714  1  0.39853350  0.02196800  0.29614550  1
  C  717  1  0.51107050  0.09794950  0.15274100  1
  C  719  1  0.35091400  0.01988850  0.35254950  1
  C  721  1  0.54411200  0.11576750  0.10523450  1
  C  725  1  0.31207150  0.00165000  0.39718350  1
  C  729  1  0.40671900  0.96935100  0.26828400  1
  C  730  1  0.44722600  0.14736550  0.23204650  1
  C  733  1  0.39794950  0.68434200  0.61710550  1
  C  734  1  0.39444050  0.67853000  0.65926850  1
  C  735  1  0.42973150  0.67996000  0.66807350  1
  C  736  1  0.47071000  0.68739300  0.63563000  1
  C  737  1  0.47480100  0.69436600  0.59308500  1
  C  738  1  0.43944650  0.69281650  0.58432700  1
  C  741  1  0.37189050  0.66182400  0.72776550  1
  C  743  1  0.49384350  0.70169800  0.52791450  1
  C  745  1  0.34216900  0.64732800  0.77527500  1
  C  749  1  0.52028900  0.70753100  0.48327200  1
  C  753  1  0.35893700  0.67294650  0.61215450  1
  C  754  1  0.50071650  0.67748100  0.64846850  1
  C  757  1  0.84452100  0.10626600  0.59251200  1
  C  758  1  0.84804500  0.06762900  0.59478200  1
  C  759  1  0.81276000  0.02352500  0.62861700  1
  C  760  1  0.77177100  0.01496700  0.66217100  1
  C  761  1  0.76766650  0.05340350  0.65932600  1
  C  762  1  0.80302100  0.09752750  0.62554650  1
  C  765  1  0.87061050  0.02171150  0.58887200  1
  C  767  1  0.74860800  0.09950250  0.67108850  1
  C  769  1  0.90033150  0.00394100  0.57359750  1
  C  773  1  0.72215400  0.11767150  0.69173750  1
  C  777  1  0.88353300  0.15022450  0.56490950  1
  C  778  1  0.74169750  0.97209800  0.70204850  1
  C  781  1  0.82002050  0.43511200  0.28810250  1
  C  782  1  0.78365900  0.44090550  0.28581750  1
  C  783  1  0.77342000  0.43947850  0.25195750  1
  C  784  1  0.79844450  0.43206950  0.21839400  1
  C  785  1  0.83403300  0.42512450  0.22125350  1
  C  786  1  0.84435000  0.42667700  0.25505500  1
  C  789  1  0.73182600  0.45755000  0.29171300  1
  C  791  1  0.89189500  0.41783050  0.20951550  1
  C  793  1  0.69876900  0.47198350  0.30698250  1
  C  797  1  0.93072150  0.41203000  0.18887950  1
  C  801  1  0.83630300  0.44646750  0.31577050  1
  C  802  1  0.79545400  0.44185900  0.17851700  1
  C  805  1  0.46901950  0.78294000  0.89376850  1
  C  806  1  0.46665150  0.78640950  0.93245400  1
  C  807  1  0.43280250  0.75106750  0.97652900  1
  C  808  1  0.39932700  0.71007400  0.98500400  1
  C  809  1  0.40226600  0.70602700  0.94651900  1
  C  810  1  0.43605900  0.74144000  0.90242600  1
  C  813  1  0.47245000  0.80886700  0.97847400  1
  C  815  1  0.39066650  0.68702350  0.90032500  1
  C  817  1  0.48765550  0.83852050  0.99633400  1
  C  821  1  0.37013750  0.66058950  0.88207400  1
  C  825  1  0.49669900  0.82197500  0.84982600  1
  C  826  1  0.35946450  0.67981450  0.02786900  1
  C  829  1  0.77340800  0.75845450  0.56488350  1
  C  830  1  0.77566250  0.72209300  0.55906750  1
  C  831  1  0.80950350  0.71181900  0.56048550  1
  C  832  1  0.84307500  0.73680300  0.56791300  1
  C  833  1  0.84024450  0.77238850  0.57488800  1
  C  834  1  0.80646200  0.78273800  0.57334300  1
  C  837  1  0.76972950  0.67028050  0.54238000  1
  C  839  1  0.85203100  0.83023700  0.58221600  1
  C  841  1  0.75443150  0.63724550  0.52792500  1
  C  845  1  0.87269700  0.86904150  0.58803650  1
  C  849  1  0.74580050  0.77481850  0.55349900  1
  C  850  1  0.88296350  0.73382650  0.55805500  1
  C  853  1  0.79786050  0.36086400  0.98685850  1
  C  854  1  0.84004150  0.39719750  0.94822200  1
  C  855  1  0.84883250  0.40750500  0.90411650  1
  C  856  1  0.81635200  0.38257800  0.89555900  1
  C  857  1  0.77379250  0.34702500  0.93399550  1
  C  858  1  0.76505250  0.33663950  0.97812000  1
  C  861  1  0.90854700  0.44897800  0.90229400  1
  C  863  1  0.70858200  0.28922700  0.98009600  1
  C  865  1  0.95605650  0.48198600  0.88451450  1
  C  869  1  0.66391050  0.25047300  0.99826850  1
  C  873  1  0.79289750  0.34444800  0.03082350  1
  C  874  1  0.82905300  0.38560250  0.85268450  1
  C  877  1  0.44446300  0.33647550  0.31565750  1
  C  878  1  0.40230400  0.33298450  0.32148350  1
  C  879  1  0.39351050  0.36827250  0.32009000  1
  C  880  1  0.42596900  0.40923250  0.31267750  1
  C  881  1  0.46850850  0.41330650  0.30569900  1
  C  882  1  0.47725000  0.37794900  0.30722100  1
  C  885  1  0.33382000  0.31047350  0.33814850  1
  C  887  1  0.53369050  0.43233200  0.29833450  1
  C  889  1  0.28631800  0.28078550  0.35259150  1
  C  893  1  0.57834900  0.45876850  0.29247650  1
  C  897  1  0.44939100  0.29745200  0.32692900  1
  C  898  1  0.41323700  0.43935350  0.32245350  1
  H  25  1  0.83279550  0.39432600  0.53359750  1
  H  26  1  0.90884650  0.41233300  0.49344150  1
  H  27  1  0.02699000  0.40045150  0.38720850  1
  H  28  1  0.04919800  0.36464150  0.34695550  1
  H  29  1  0.91357950  0.28648600  0.38233150  1
  H  30  1  0.79004000  0.29403050  0.49830050  1
  H  31  1  0.89562600  0.26982800  0.49946600  1
  H  32  1  0.82066450  0.13461800  0.53216550  1
  H  33  1  0.78465900  0.15640100  0.49180100  1
  H  34  1  0.89055650  0.39319300  0.38117150  1
  H  35  1  0.76949550  0.27455200  0.38879950  1
  H  36  1  0.78811350  0.35092200  0.34837150  1
  H  39  1  0.96101950  0.41976450  0.41804700  1
  H  40  1  0.95902500  0.37716800  0.46264700  1
  H  42  1  0.80603500  0.22446800  0.41776500  1
  H  43  1  0.76347600  0.22189500  0.46290300  1
  H  45  1  0.96681100  0.26589250  0.35457750  1
  H  47  1  0.74180500  0.31971300  0.52581200  1
  H  49  1  0.91563400  0.21704400  0.52910500  1
  H  51  1  0.86760800  0.44293150  0.35128550  1
  H  76  1  0.19344050  0.72536800  0.56315650  1
  H  77  1  0.21564450  0.70725950  0.50521300  1
  H  78  1  0.33381800  0.71905950  0.37527650  1
  H  79  1  0.40988600  0.75485550  0.31731450  1
  H  80  1  0.45261500  0.83296300  0.37482800  1
  H  81  1  0.32905550  0.82560700  0.50569950  1
  H  82  1  0.35222150  0.84970200  0.37595450  1
  H  83  1  0.45478950  0.98489950  0.31572400  1
  H  84  1  0.47328000  0.96308450  0.37358250  1
  H  85  1  0.34693050  0.72631250  0.50459200  1
  H  86  1  0.45790900  0.84494500  0.50704200  1
  H  87  1  0.42184150  0.76857750  0.56488000  1
  H  90  1  0.28359850  0.69974700  0.46057250  1
  H  91  1  0.28165100  0.74235900  0.41992600  1
  H  93  1  0.47917050  0.89498700  0.42034150  1
  H  94  1  0.43660750  0.89762250  0.46025900  1
  H  96  1  0.50103050  0.85351050  0.30109400  1
  H  98  1  0.27583250  0.80057000  0.57931550  1
  H  100  1  0.37547050  0.90252700  0.30310350  1
  H  102  1  0.32676900  0.67678300  0.57751300  1
  H  127  1  0.49817850  0.13189050  0.27487700  1
  H  128  1  0.55622500  0.15405850  0.29288350  1
  H  129  1  0.68624550  0.27219250  0.28101600  1
  H  130  1  0.74429000  0.34823350  0.24517250  1
  H  131  1  0.68680200  0.39101300  0.16704200  1
  H  132  1  0.55569800  0.26749750  0.17460450  1
  H  133  1  0.68548450  0.29050450  0.15044500  1
  H  134  1  0.74567250  0.39288750  0.01518200  1
  H  135  1  0.68789600  0.41148250  0.03694850  1
  H  136  1  0.55705550  0.28548650  0.27373600  1
  H  137  1  0.55459100  0.39638550  0.15505650  1
  H  138  1  0.49681500  0.36043850  0.23140850  1
  H  141  1  0.60094250  0.22202800  0.30034650  1
  H  142  1  0.64155250  0.22003650  0.25774800  1
  H  144  1  0.64125050  0.41754900  0.10498750  1
  H  145  1  0.60126250  0.37494650  0.10244900  1
  H  147  1  0.76063950  0.43938500  0.14643550  1
  H  149  1  0.48175750  0.21426100  0.20029950  1
  H  151  1  0.75830950  0.31370400  0.09761850  1
  H  153  1  0.48424450  0.26549700  0.32335150  1
  H  178  1  0.52794350  0.77124000  0.60573250  1
  H  179  1  0.56806350  0.84729650  0.58778800  1
  H  180  1  0.67431200  0.96543400  0.59969200  1
  H  181  1  0.71462650  0.98762350  0.63546200  1
  H  182  1  0.67929200  0.85200300  0.71352000  1
  H  183  1  0.56331150  0.72848100  0.70596850  1
  H  184  1  0.56210550  0.83405100  0.73022650  1
  H  185  1  0.52941500  0.75909550  0.86543350  1
  H  186  1  0.56979300  0.72309550  0.84363550  1
  H  187  1  0.68037050  0.82898100  0.60686150  1
  H  188  1  0.67274800  0.70791000  0.72546900  1
  H  189  1  0.71313500  0.72651400  0.64909800  1
  H  192  1  0.64345800  0.89949900  0.58033800  1
  H  193  1  0.59884450  0.89742750  0.62299600  1
  H  195  1  0.64383350  0.74448050  0.77555300  1
  H  196  1  0.59867650  0.70191650  0.77814700  1
  H  198  1  0.70711550  0.90519700  0.73410850  1
  H  200  1  0.53583800  0.68026700  0.68025500  1
  H  202  1  0.53258450  0.85410550  0.78301000  1
  H  204  1  0.71008500  0.80590600  0.55717700  1
  H  229  1  0.42628700  0.65320950  0.01238750  1
  H  230  1  0.46200700  0.61288250  0.03461150  1
  H  231  1  0.47374350  0.50650450  0.15281200  1
  H  232  1  0.45569950  0.46630450  0.22886300  1
  H  233  1  0.35548250  0.50171600  0.27157750  1
  H  234  1  0.34812350  0.61783950  0.14800300  1
  H  235  1  0.45472750  0.61881900  0.17112850  1
  H  236  1  0.41245200  0.65151650  0.27364950  1
  H  237  1  0.33608650  0.61118450  0.29217200  1
  H  238  1  0.33135500  0.50071300  0.16586700  1
  H  239  1  0.21795300  0.50832250  0.27690750  1
  H  240  1  0.19616250  0.46805600  0.24081750  1
  H  243  1  0.43865600  0.53739200  0.10260300  1
  H  244  1  0.48128050  0.58197250  0.10060900  1
  H  246  1  0.28343200  0.53715150  0.29811850  1
  H  247  1  0.28603450  0.58232500  0.25557050  1
  H  249  1  0.38075600  0.47378650  0.32002950  1
  H  251  1  0.32771250  0.64596900  0.09477350  1
  H  253  1  0.50434000  0.64840000  0.19435200  1
  H  255  1  0.27854750  0.47134550  0.14572900  1
  H  280  1  0.81646400  0.68282450  0.65173250  1
  H  281  1  0.78065150  0.62484900  0.72779650  1
  H  282  1  0.76878950  0.49488450  0.84596400  1
  H  283  1  0.78685900  0.43688950  0.86818150  1
  H  284  1  0.88707700  0.49433750  0.73256350  1
  H  285  1  0.89450100  0.62526050  0.60900950  1
  H  286  1  0.78784050  0.49545050  0.71471200  1
  H  287  1  0.83013200  0.43520200  0.63976400  1
  H  288  1  0.90648650  0.49309350  0.60366000  1
  H  289  1  0.91121450  0.62406000  0.70947650  1
  H  290  1  0.02462650  0.62648900  0.58840450  1
  H  291  1  0.04643600  0.68427700  0.60699100  1
  H  294  1  0.80392900  0.58017500  0.77995400  1
  H  295  1  0.76129000  0.53954300  0.77801600  1
  H  297  1  0.95914950  0.53983900  0.62498850  1
  H  298  1  0.95652100  0.57978550  0.58244250  1
  H  300  1  0.86195700  0.42069800  0.78575400  1
  H  302  1  0.91507150  0.69901550  0.56059200  1
  H  304  1  0.73829700  0.42256400  0.73482100  1
  H  306  1  0.96403850  0.69686500  0.68628850  1
  H  626  1  0.70534200  0.20527850  0.70213350  1
  H  627  1  0.67625900  0.20945900  0.74988400  1
  H  628  1  0.73412500  0.22374800  0.72957500  1
  H  630  1  0.76950600  0.53531050  0.55974050  1
  H  631  1  0.74102600  0.51212050  0.53429050  1
  H  632  1  0.80104350  0.53659200  0.50902350  1
  H  650  1  0.21426600  0.91414000  0.50194100  1
  H  651  1  0.16239800  0.91008250  0.53517050  1
  H  652  1  0.16835550  0.89578850  0.49160300  1
  H  654  1  0.02603200  0.58391650  0.76758050  1
  H  655  1  0.07464550  0.60692450  0.77296400  1
  H  656  1  0.07542550  0.58258300  0.73731150  1
  H  674  1  0.53727350  0.71390850  0.37887000  1
  H  675  1  0.56633450  0.69519750  0.34564800  1
  H  676  1  0.50846000  0.65767700  0.38921600  1
  H  678  1  0.47304450  0.79197250  0.11302000  1
  H  679  1  0.50154500  0.84592600  0.10767400  1
  H  680  1  0.44153250  0.81117900  0.14326250  1
  H  698  1  0.02831700  0.40521400  0.17884500  1
  H  699  1  0.08021400  0.42392950  0.13102550  1
  H  700  1  0.07417550  0.46147950  0.15133900  1
  H  702  1  0.21660700  0.32771650  0.32068250  1
  H  703  1  0.16800600  0.27372650  0.34623650  1
  H  704  1  0.16721150  0.30852500  0.37144650  1
  H  722  1  0.55999150  0.15269550  0.08571100  1
  H  723  1  0.52687200  0.10073550  0.08985050  1
  H  724  1  0.57046800  0.10690100  0.10412800  1
  H  726  1  0.29403900  0.96452850  0.41572850  1
  H  727  1  0.28861350  0.01308600  0.39260350  1
  H  728  1  0.32418050  0.01397550  0.41705800  1
  H  746  1  0.35957800  0.64373550  0.79480150  1
  H  747  1  0.31179650  0.61467300  0.79064950  1
  H  748  1  0.33212950  0.67253350  0.77638500  1
  H  750  1  0.50172300  0.70801350  0.46471550  1
  H  751  1  0.52720500  0.67953300  0.48783800  1
  H  752  1  0.55246050  0.73954550  0.46341300  1
  H  770  1  0.88292050  0.96700150  0.59455400  1
  H  771  1  0.93070250  0.01890750  0.57589600  1
  H  772  1  0.91037950  0.01292200  0.53833750  1
  H  774  1  0.74071700  0.15479450  0.67272050  1
  H  775  1  0.71522950  0.10615300  0.72665950  1
  H  776  1  0.68998500  0.10537350  0.69188750  1
  H  794  1  0.68280250  0.47553950  0.28601000  1
  H  795  1  0.71602000  0.50464550  0.30470350  1
  H  796  1  0.67248000  0.44676000  0.34223600  1
  H  798  1  0.94880650  0.41156200  0.20791750  1
  H  799  1  0.95413850  0.44003500  0.15396650  1
  H  800  1  0.91858500  0.38002050  0.18871450  1
  H  818  1  0.46667300  0.82104600  0.03327400  1
  H  819  1  0.48533050  0.86888250  0.98141600  1
  H  820  1  0.52291500  0.84859000  0.98736800  1
  H  822  1  0.38919700  0.67920300  0.84495400  1
  H  823  1  0.33520000  0.65359850  0.89355850  1
  H  824  1  0.37005550  0.62845800  0.89434050  1
  H  842  1  0.77538000  0.62125600  0.52436300  1
  H  843  1  0.75671950  0.65451850  0.49526700  1
  H  844  1  0.71917050  0.61097050  0.55314300  1
  H  846  1  0.85368100  0.88714750  0.58851750  1
  H  847  1  0.90761300  0.89244900  0.56003400  1
  H  848  1  0.87285800  0.85687600  0.62004800  1
  H  866  1  0.97556750  0.49798950  0.84757100  1
  H  867  1  0.97145450  0.46468550  0.89944600  1
  H  868  1  0.95716600  0.50825300  0.89352400  1
  H  870  1  0.64536400  0.23236350  0.03538950  1
  H  871  1  0.66842600  0.22705250  0.98673950  1
  H  872  1  0.64406850  0.26269100  0.98598650  1
  H  890  1  0.26680400  0.29820500  0.35618900  1
  H  891  1  0.27091050  0.25038600  0.38523350  1
  H  892  1  0.28523050  0.27078750  0.32735200  1
  H  894  1  0.59690100  0.44019900  0.29197000  1
  H  895  1  0.57381100  0.46568000  0.32047700  1
  H  896  1  0.59820150  0.49094200  0.26046750  1
  N  44  1  0.99315450  0.29511000  0.34278250  1
  N  46  1  0.75914500  0.33414200  0.53773000  1
  N  48  1  0.88704450  0.19050300  0.53984650  1
  N  50  1  0.85172300  0.42501600  0.34064400  1
  N  95  1  0.48358200  0.82434850  0.30389550  1
  N  97  1  0.24947650  0.78567250  0.57661700  1
  N  99  1  0.39122900  0.92905850  0.30519050  1
  N  101  1  0.35544350  0.69453750  0.57538900  1
  N  146  1  0.75777150  0.42193900  0.17563850  1
  N  148  1  0.48470950  0.18793100  0.21468450  1
  N  150  1  0.75617200  0.32934400  0.07108300  1
  N  152  1  0.48634000  0.29412450  0.30551150  1
  N  197  1  0.71887400  0.93155300  0.70491900  1
  N  199  1  0.52391200  0.69760300  0.66583800  1
  N  201  1  0.52171950  0.82545500  0.80955450  1
  N  203  1  0.72081700  0.79010150  0.57503550  1
  N  248  1  0.39545000  0.46212200  0.30255600  1
  N  250  1  0.35680800  0.65749700  0.06842200  1
  N  252  1  0.48652150  0.65921100  0.21007850  1
  N  254  1  0.25201500  0.46041200  0.17442200  1
  N  299  1  0.84711850  0.42341200  0.81211650  1
  N  301  1  0.88591100  0.69621450  0.57803850  1
  N  303  1  0.75609500  0.42465650  0.70618950  1
  N  305  1  0.99057250  0.69475350  0.67059000  1
  N  619  1  0.73019350  0.28847300  0.64720650  1
  N  622  1  0.75858500  0.45681250  0.60939850  1
  N  643  1  0.18581900  0.83089700  0.56031200  1
  N  646  1  0.05503400  0.66254650  0.70009950  1
  N  667  1  0.51246000  0.74398150  0.32048950  1
  N  670  1  0.48401800  0.75329950  0.18057750  1
  N  691  1  0.05676900  0.37529900  0.23364100  1
  N  694  1  0.18758150  0.36625550  0.27112800  1
  N  715  1  0.50159600  0.12429350  0.16892650  1
  N  718  1  0.36167200  0.99353200  0.33720200  1
  N  739  1  0.41444850  0.66861000  0.71158250  1
  N  742  1  0.45211000  0.69703350  0.54325750  1
  N  763  1  0.82804800  0.99531550  0.62463950  1
  N  766  1  0.79034750  0.12591400  0.63402550  1
  N  787  1  0.74122700  0.45078100  0.25592900  1
  N  790  1  0.88121400  0.42248200  0.24659500  1
  N  811  1  0.43671200  0.76628550  0.00480250  1
  N  814  1  0.42768250  0.72879850  0.87398000  1
  N  835  1  0.80551050  0.67964250  0.54915400  1
  N  838  1  0.81495450  0.81959550  0.57755700  1
  N  859  1  0.89234300  0.43966100  0.87590100  1
  N  862  1  0.72396000  0.29981950  0.00650550  1
  N  883  1  0.35001250  0.35301750  0.33140400  1
  N  886  1  0.51832800  0.39060200  0.30298200  1
  O  620  1  0.72851950  0.30320350  0.70457300  1
  O  624  1  0.76100200  0.44216600  0.55180200  1
  O  635  1  0.69284900  0.35469800  0.73874400  1
  O  636  1  0.69821100  0.34528800  0.56534600  1
  O  644  1  0.11377400  0.81633850  0.57666050  1
  O  648  1  0.12722150  0.67701500  0.68308550  1
  O  659  1  0.02798300  0.76472150  0.66387850  1
  O  660  1  0.21079050  0.77452850  0.64865200  1
  O  668  1  0.51409050  0.68824800  0.30414150  1
  O  672  1  0.48163500  0.80851550  0.19759050  1
  O  683  1  0.54975400  0.68980850  0.21685750  1
  O  684  1  0.54456150  0.85764400  0.23189550  1
  O  692  1  0.12880450  0.43103850  0.17617100  1
  O  696  1  0.11540150  0.31103550  0.32883000  1
  O  707  1  0.21459000  0.42983100  0.14181300  1
  O  708  1  0.03186550  0.26170600  0.31533050  1
  O  716  1  0.48538150  0.05225500  0.18358050  1
  O  720  1  0.37855250  0.06571750  0.32263900  1
  O  731  1  0.39804950  0.96644983  0.23518367  1
  O  732  1  0.41262600  0.14913750  0.22583250  1
  O  740  1  0.35704550  0.66694000  0.69691750  1
  O  744  1  0.50974200  0.69945300  0.55783900  1
  O  755  1  0.32277250  0.63135200  0.64544550  1
  O  756  1  0.49635100  0.63670550  0.65462150  1
  O  764  1  0.88544950  0.06740100  0.56895550  1
  O  768  1  0.73271350  0.05368400  0.68919250  1
  O  779  1  0.91956500  0.15310000  0.57060300  1
  O  780  1  0.74641900  0.97021700  0.73831800  1
  O  788  1  0.75758350  0.45246200  0.31164950  1
  O  792  1  0.86420050  0.42005350  0.19138800  1
  O  803  1  0.84515300  0.48833100  0.30979400  1
  O  804  1  0.82989600  0.48280850  0.14221850  1
  O  812  1  0.49241750  0.82378300  0.93276750  1
  O  816  1  0.37249850  0.67106650  0.94615800  1
  O  827  1  0.49109350  0.85805300  0.84694550  1
  O  828  1  0.32334600  0.68487100  0.02976800  1
  O  836  1  0.74981850  0.69605100  0.54748850  1
  O  840  1  0.87012950  0.80252650  0.57997100  1
  O  851  1  0.75153900  0.78344550  0.51174750  1
  O  852  1  0.91919950  0.76820100  0.51704150  1
  O  860  1  0.87770900  0.42319950  0.94798650  1
  O  864  1  0.73850200  0.31694150  0.93427750  1
  O  875  1  0.82613850  0.33604950  0.03370100  1
  O  876  1  0.83596400  0.35137000  0.85075700  1
  O  884  1  0.36465550  0.29561350  0.33302600  1
  O  888  1  0.50377550  0.44824150  0.30059900  1
  O  899  1  0.41629900  0.26146300  0.36870700  1
  O  900  1  0.40654450  0.43449450  0.36350500  1
