# generated using pymatgen
data_MnH10C15NO6
_symmetry_space_group_name_H-M   'P 1'
_cell_length_a   9.46196000
_cell_length_b   9.64213640
_cell_length_c   12.71223000
_cell_angle_alpha   87.21753682
_cell_angle_beta   84.35297000
_cell_angle_gamma   60.76573244
_symmetry_Int_Tables_number   1
_chemical_formula_structural   MnH10C15NO6
_chemical_formula_sum   'Mn2 H20 C30 N2 O12'
_cell_volume   1007.14844169
_cell_formula_units_Z   2
loop_
 _symmetry_equiv_pos_site_id
 _symmetry_equiv_pos_as_xyz
  1  'x, y, z'
loop_
 _atom_site_type_symbol
 _atom_site_label
 _atom_site_symmetry_multiplicity
 _atom_site_fract_x
 _atom_site_fract_y
 _atom_site_fract_z
 _atom_site_occupancy
  Mn  Mn0  1  0.65395000  0.69302000  0.00149000  1
  Mn  Mn1  1  0.34519000  0.30896000  0.99847000  1
  H  H2  1  0.32363000  0.25768000  0.57404000  1
  H  H3  1  0.20130000  0.24570000  0.75336000  1
  H  H4  1  0.18548000  0.74248000  0.85840000  1
  H  H5  1  0.92048000  0.74545000  0.86438000  1
  H  H6  1  0.21761000  0.10432000  0.90254000  1
  H  H7  1  0.41876000  0.25792000  0.42546000  1
  H  H8  1  0.55289000  0.24614000  0.24610000  1
  H  H9  1  0.06922000  0.74385000  0.14199000  1
  H  H10  1  0.33171000  0.74574000  0.13648000  1
  H  H11  1  0.67782000  0.10506000  0.09733000  1
  H  H12  1  0.67958000  0.74093000  0.42708000  1
  H  H13  1  0.80165000  0.75237000  0.24762000  1
  H  H14  1  0.81343000  0.25730000  0.14207000  1
  H  H15  1  0.07801333  0.25532000  0.13601000  1
  H  H16  1  0.78430000  0.89351000  0.09751000  1
  H  H17  1  0.57976000  0.74069000  0.57335000  1
  H  H18  1  0.44628000  0.75192000  0.75280000  1
  H  H19  1  0.93159000  0.25605000  0.85755000  1
  H  H20  1  0.66880000  0.25496000  0.86337000  1
  H  H21  1  0.32228000  0.89273000  0.90244000  1
  C  C22  1  0.35321000  0.14195000  0.60779000  1
  C  C23  1  0.28217000  0.13933000  0.70716000  1
  C  C24  1  0.07284000  0.85534000  0.85891000  1
  C  C25  1  0.92482000  0.85609000  0.86335000  1
  C  C26  1  0.00020000  0.53538000  0.05305000  1
  C  C27  1  0.50480000  0.14224000  0.39193000  1
  C  C28  1  0.57832000  0.13979000  0.29254000  1
  C  C29  1  0.07011000  0.85642000  0.14140000  1
  C  C30  1  0.21755000  0.85660000  0.13718000  1
  C  C31  1  0.46382000  0.53639000  0.94723000  1
  C  C32  1  0.64906000  0.85653000  0.39280000  1
  C  C33  1  0.72013000  0.85887000  0.29350000  1
  C  C34  1  0.92636000  0.14467000  0.14141000  1
  C  C35  1  0.07400000  0.14454000  0.13696000  1
  C  C36  1  0.99936000  0.46512000  0.94692000  1
  C  C37  1  0.49472000  0.85624000  0.60740000  1
  C  C38  1  0.42128000  0.85842000  0.70667000  1
  C  C39  1  0.93045000  0.14357000  0.85836000  1
  C  C40  1  0.78276000  0.14397000  0.86269000  1
  C  C41  1  0.53560000  0.46470000  0.05286000  1
  C  C42  1  0.46248000  0.99939000  0.55265000  1
  C  C43  1  0.23562000  0.99870000  0.86230000  1
  C  C44  1  0.07633000  0.99921000  0.85861000  1
  C  C45  1  0.77818000  0.00040000  0.86788000  1
  C  C46  1  0.61916000  0.00244000  0.88519000  1
  C  C47  1  0.53819000  0.99955000  0.44730000  1
  C  C48  1  0.76516000  0.99958000  0.13763000  1
  C  C49  1  0.92376000  0.00045000  0.14138000  1
  C  C50  1  0.22110000  0.00067000  0.13223000  1
  C  C51  1  0.37902000  0.00087000  0.11484000  1
  N  N52  1  0.31469000  0.99870000  0.75548000  1
  N  N53  1  0.68630000  0.99927000  0.24445000  1
  O  O54  1  0.61757000  0.87028000  0.89398000  1
  O  O55  1  0.86334000  0.63851000  0.09518000  1
  O  O56  1  0.13667000  0.48524000  0.09023000  1
  O  O57  1  0.51110000  0.86761000  0.11069000  1
  O  O58  1  0.49727000  0.64006000  0.90538000  1
  O  O59  1  0.37710000  0.48641000  0.90994000  1
  O  O60  1  0.37699000  0.13494000  0.10617000  1
  O  O61  1  0.13602000  0.36157000  0.90484000  1
  O  O62  1  0.86273000  0.51599000  0.90977000  1
  O  O63  1  0.48877000  0.13772000  0.88917000  1
  O  O64  1  0.50267000  0.36057000  0.09457000  1
  O  O65  1  0.62225000  0.51479000  0.09006000  1
