# generated using pymatgen
data_V2H20C29O10
_symmetry_space_group_name_H-M   'P 1'
_cell_length_a   7.19801000
_cell_length_b   14.91866000
_cell_length_c   22.06639000
_cell_angle_alpha   107.05974000
_cell_angle_beta   90.19628000
_cell_angle_gamma   90.56953000
_symmetry_Int_Tables_number   1
_chemical_formula_structural   V2H20C29O10
_chemical_formula_sum   'V4 H40 C58 O20'
_cell_volume   2265.16662851
_cell_formula_units_Z   2
loop_
 _symmetry_equiv_pos_site_id
 _symmetry_equiv_pos_as_xyz
  1  'x, y, z'
loop_
 _atom_site_type_symbol
 _atom_site_label
 _atom_site_symmetry_multiplicity
 _atom_site_fract_x
 _atom_site_fract_y
 _atom_site_fract_z
 _atom_site_occupancy
  V  V0  1  0.06419000  0.00830000  0.49687000  1
  V  V1  1  0.56419000  0.99170000  0.50313000  1
  V  V2  1  0.67209000  0.99170000  0.00312000  1
  V  V3  1  0.17209000  0.00830000  0.99688000  1
  H  H4  1  0.01714000  0.97744000  0.79374000  1
  H  H5  1  0.51853000  0.02379000  0.20677000  1
  H  H6  1  0.63809000  0.92565000  0.68364000  1
  H  H7  1  0.14173000  0.07422000  0.31545000  1
  H  H8  1  0.76395000  0.69265000  0.51143000  1
  H  H9  1  0.42923000  0.30502000  0.48690000  1
  H  H10  1  0.74249000  0.39049000  0.36683000  1
  H  H11  1  0.48816000  0.60678000  0.63089000  1
  H  H12  1  0.00333000  0.47245000  0.03341000  1
  H  H13  1  0.25072000  0.53155000  0.96812000  1
  H  H14  1  0.97454000  0.30487000  0.98593000  1
  H  H15  1  0.30329000  0.69784000  0.01534000  1
  H  H16  1  0.82245000  0.26525000  0.16200000  1
  H  H17  1  0.44335000  0.73325000  0.83704000  1
  H  H18  1  0.95927000  0.68044000  0.24183000  1
  H  H19  1  0.25503000  0.32304000  0.75902000  1
  H  H20  1  0.78109000  0.32258000  0.25688000  1
  H  H21  1  0.46424000  0.67575000  0.74132000  1
  H  H22  1  0.73642000  0.52364000  0.46049000  1
  H  H23  1  0.47519000  0.47336000  0.53724000  1
  H  H24  1  0.43043000  0.00311000  0.77280000  1
  H  H25  1  0.49970000  0.94186000  0.82767000  1
  H  H26  1  0.52533000  0.06910000  0.84782000  1
  H  H27  1  0.93197000  0.99076000  0.22542000  1
  H  H28  1  0.99929000  0.05312000  0.17086000  1
  H  H29  1  0.02717000  0.92628000  0.15078000  1
  H  H30  1  0.03624000  0.13986000  0.68993000  1
  H  H31  1  0.92968000  0.13949000  0.76274000  1
  H  H32  1  0.12146000  0.06129000  0.73092000  1
  H  H33  1  0.53027000  0.86003000  0.31089000  1
  H  H34  1  0.41951000  0.85852000  0.23808000  1
  H  H35  1  0.61554000  0.93718000  0.26845000  1
  H  H36  1  0.15299000  0.61169000  0.09696000  1
  H  H37  1  0.91006000  0.63036000  0.08248000  1
  H  H38  1  0.03007000  0.70714000  0.14924000  1
  H  H39  1  0.31916000  0.37096000  0.91769000  1
  H  H40  1  0.07856000  0.39796000  0.90623000  1
  H  H41  1  0.18651000  0.29853000  0.85243000  1
  H  H42  1  0.91566000  0.73862000  0.33663000  1
  H  H43  1  0.30016000  0.26252000  0.66454000  1
  C  C44  1  0.34540000  0.17401000  0.54499000  1
  C  C45  1  0.84309000  0.82587000  0.45490000  1
  C  C46  1  0.34432000  0.99823000  0.38658000  1
  C  C47  1  0.84496000  0.00160000  0.61341000  1
  C  C48  1  0.72907000  0.99068000  0.78217000  1
  C  C49  1  0.23018000  0.00789000  0.21727000  1
  C  C50  1  0.88443000  0.99054000  0.81762000  1
  C  C51  1  0.38562000  0.00935000  0.18238000  1
  C  C52  1  0.74123000  0.97359000  0.71223000  1
  C  C53  1  0.24242000  0.02587000  0.28730000  1
  C  C54  1  0.85810000  0.01867000  0.68288000  1
  C  C55  1  0.35605000  0.98060000  0.31709000  1
  C  C56  1  0.89339000  0.27649000  0.07233000  1
  C  C57  1  0.37880000  0.72391000  0.92768000  1
  C  C58  1  0.84530000  0.72436000  0.42593000  1
  C  C59  1  0.35850000  0.27529000  0.57397000  1
  C  C60  1  0.96300000  0.43058000  0.06382000  1
  C  C61  1  0.29286000  0.57223000  0.93715000  1
  C  C62  1  0.94544000  0.33441000  0.03594000  1
  C  C63  1  0.32402000  0.66762000  0.96485000  1
  C  C64  1  0.85915000  0.31471000  0.13693000  1
  C  C65  1  0.40242000  0.68497000  0.86256000  1
  C  C66  1  0.88127000  0.41222000  0.16740000  1
  C  C67  1  0.36734000  0.58839000  0.83239000  1
  C  C68  1  0.93408000  0.47086000  0.12949000  1
  C  C69  1  0.31161000  0.53132000  0.87104000  1
  C  C70  1  0.85638000  0.45235000  0.23424000  1
  C  C71  1  0.38299000  0.54771000  0.76525000  1
  C  C72  1  0.88429000  0.55082000  0.26250000  1
  C  C73  1  0.34489000  0.45003000  0.73750000  1
  C  C74  1  0.93560000  0.60618000  0.22308000  1
  C  C75  1  0.28937000  0.39631000  0.77753000  1
  C  C76  1  0.96006000  0.56804000  0.15783000  1
  C  C77  1  0.27283000  0.43512000  0.84304000  1
  C  C78  1  0.80545000  0.39699000  0.27392000  1
  C  C79  1  0.43410000  0.60182000  0.72476000  1
  C  C80  1  0.78234000  0.43596000  0.33859000  1
  C  C81  1  0.44839000  0.56225000  0.65980000  1
  C  C82  1  0.80726000  0.53168000  0.36676000  1
  C  C83  1  0.41473000  0.46706000  0.63215000  1
  C  C84  1  0.85919000  0.59088000  0.32949000  1
  C  C85  1  0.36290000  0.40915000  0.67031000  1
  C  C86  1  0.77700000  0.56879000  0.43213000  1
  C  C87  1  0.43534000  0.42916000  0.56633000  1
  C  C88  1  0.79355000  0.66471000  0.46134000  1
  C  C89  1  0.40867000  0.33365000  0.53751000  1
  C  C90  1  0.87988000  0.68811000  0.36100000  1
  C  C91  1  0.33476000  0.31227000  0.63942000  1
  C  C92  1  0.39157000  0.99953000  0.11335000  1
  C  C93  1  0.89109000  0.00031000  0.88663000  1
  C  C94  1  0.39314000  0.82546000  0.95540000  1
  C  C95  1  0.89559000  0.17465000  0.04469000  1
  C  C96  1  0.53560000  0.00178000  0.80949000  1
  C  C97  1  0.03662000  0.99376000  0.18915000  1
  C  C98  1  0.99387000  0.09374000  0.71901000  1
  C  C99  1  0.48764000  0.90513000  0.28128000  1
  C  C100  1  0.01640000  0.63300000  0.11956000  1
  C  C101  1  0.21087000  0.37205000  0.88196000  1
  O  O102  1  0.50577000  0.99791000  0.41523000  1
  O  O103  1  0.00577000  0.00209000  0.58477000  1
  O  O104  1  0.17334000  0.13805000  0.53294000  1
  O  O105  1  0.67334000  0.86195000  0.46706000  1
  O  O106  1  0.17589000  0.00679000  0.41249000  1
  O  O107  1  0.67589000  0.99321000  0.58751000  1
  O  O108  1  0.00815000  0.86990000  0.46346000  1
  O  O109  1  0.50815000  0.13010000  0.53654000  1
  O  O110  1  0.34004000  0.95524000  0.51686000  1
  O  O111  1  0.84004000  0.04476000  0.48314000  1
  O  O112  1  0.23307000  0.86987000  0.96355000  1
  O  O113  1  0.73307000  0.13013000  0.03645000  1
  O  O114  1  0.56057000  0.99321000  0.08753000  1
  O  O115  1  0.06057000  0.00679000  0.91247000  1
  O  O116  1  0.56294000  0.86195000  0.96708000  1
  O  O117  1  0.06294000  0.13805000  0.03292000  1
  O  O118  1  0.73050000  0.99791000  0.91521000  1
  O  O119  1  0.23050000  0.00209000  0.08479000  1
  O  O120  1  0.39617000  0.04474000  0.98318000  1
  O  O121  1  0.89617000  0.95526000  0.01682000  1
