# generated using pymatgen
data_Cr3H36C60O19
_symmetry_space_group_name_H-M   'P 1'
_cell_length_a   12.69576000
_cell_length_b   12.72069512
_cell_length_c   26.95426000
_cell_angle_alpha   90.06147229
_cell_angle_beta   90.00322000
_cell_angle_gamma   60.10875337
_symmetry_Int_Tables_number   1
_chemical_formula_structural   Cr3H36C60O19
_chemical_formula_sum   'Cr6 H72 C120 O38'
_cell_volume   3774.00234009
_cell_formula_units_Z   2
loop_
 _symmetry_equiv_pos_site_id
 _symmetry_equiv_pos_as_xyz
  1  'x, y, z'
loop_
 _atom_site_type_symbol
 _atom_site_label
 _atom_site_symmetry_multiplicity
 _atom_site_fract_x
 _atom_site_fract_y
 _atom_site_fract_z
 _atom_site_occupancy
  Cr  Cr0  1  0.24645000  0.24118000  0.75000000  1
  Cr  Cr1  1  0.24118000  0.51237000  0.75000000  1
  Cr  Cr2  1  0.51237000  0.24645000  0.75000000  1
  Cr  Cr3  1  0.75355000  0.48763000  0.25000000  1
  Cr  Cr4  1  0.75882000  0.75355000  0.25000000  1
  Cr  Cr5  1  0.48763000  0.75882000  0.25000000  1
  H  H6  1  0.33980000  0.66140000  0.12704000  1
  H  H7  1  0.59475000  0.12543000  0.88489000  1
  H  H8  1  0.28391000  0.60400000  0.61658000  1
  H  H9  1  0.15331000  0.27836000  0.88704000  1
  H  H10  1  0.20583000  0.69106000  0.05468000  1
  H  H11  1  0.70206000  0.08956000  0.44697000  1
  H  H12  1  0.13578000  0.21421000  0.05783000  1
  H  H13  1  0.21427000  0.70792000  0.44770000  1
  H  H14  1  0.69052000  0.10339000  0.05436000  1
  H  H15  1  0.10499000  0.21782000  0.44539000  1
  H  H16  1  0.68917000  0.11804000  0.53676000  1
  H  H17  1  0.66588000  0.99267000  0.37405000  1
  H  H18  1  0.18563000  0.66607000  0.96555000  1
  H  H19  1  0.13224000  0.19746000  0.53523000  1
  H  H20  1  0.67627000  0.13620000  0.96465000  1
  H  H21  1  0.19491000  0.69598000  0.53770000  1
  H  H22  1  0.17568000  0.18966000  0.96835000  1
  H  H23  1  0.65786000  0.29336000  0.15720000  1
  H  H24  1  0.29613000  0.05938000  0.33917000  1
  H  H25  1  0.87161000  0.78876000  0.13108000  1
  H  H26  1  0.64802000  0.29666000  0.34152000  1
  H  H27  1  0.29221000  0.04929000  0.15833000  1
  H  H28  1  0.02961000  0.34571000  0.12895000  1
  H  H29  1  0.89494000  0.78074000  0.36640000  1
  H  H30  1  0.42075000  0.90754000  0.66666667  1
  H  H31  1  0.67720000  0.40709000  0.83333000  1
  H  H32  1  0.90207000  0.66702000  0.67339000  1
  H  H33  1  0.41493000  0.91188000  0.83221000  1
  H  H34  1  0.67275000  0.42054000  0.66832000  1
  H  H35  1  0.89966000  0.65703000  0.82834000  1
  H  H36  1  0.87076000  0.29384000  0.07263000  1
  H  H37  1  0.82850000  0.17753000  0.06452000  1
  H  H38  1  0.91321000  0.19806000  0.01866000  1
  H  H39  1  0.34527000  0.66878000  0.37497000  1
  H  H40  1  0.28815000  0.86000000  0.42100000  1
  H  H41  1  0.19999000  0.88673000  0.47450000  1
  H  H42  1  0.15879000  0.00988000  0.43284000  1
  H  H43  1  0.99910000  0.80044000  0.07770000  1
  H  H44  1  0.00215000  0.85804000  0.01886000  1
  H  H45  1  0.85749000  0.90750000  0.04907000  1
  H  H46  1  0.85240000  0.30476000  0.42155000  1
  H  H47  1  0.91789000  0.22352000  0.47603000  1
  H  H48  1  0.84455000  0.16865000  0.43524000  1
  H  H49  1  0.25885000  0.86384000  0.06944000  1
  H  H50  1  0.65937000  0.00127000  0.12678000  1
  H  H51  1  0.16365000  0.02770000  0.06834000  1
  H  H52  1  0.15708000  0.94619000  0.01897000  1
  H  H53  1  0.01448000  0.79225000  0.42369000  1
  H  H54  1  0.87208000  0.90446000  0.45013000  1
  H  H55  1  0.01451000  0.85270000  0.48222000  1
  H  H56  1  0.19389000  0.02700000  0.59105000  1
  H  H57  1  0.13461000  0.00388000  0.53736000  1
  H  H58  1  0.25029000  0.87186000  0.57002000  1
  H  H59  1  0.87372000  0.24955000  0.92619000  1
  H  H60  1  0.81277000  0.41222000  0.91660000  1
  H  H61  1  0.01426000  0.34851000  0.37303000  1
  H  H62  1  0.89453000  0.34540000  0.97019000  1
  H  H63  1  0.81860000  0.86025000  0.58658000  1
  H  H64  1  0.97766000  0.82193000  0.59042000  1
  H  H65  1  0.87901000  0.91707000  0.54273000  1
  H  H66  1  0.37135000  0.79531000  0.91935000  1
  H  H67  1  0.27117000  0.81663000  0.96683000  1
  H  H68  1  0.21922000  0.93022000  0.91956000  1
  H  H69  1  0.78405000  0.19592000  0.59027000  1
  H  H70  1  0.87060000  0.14439000  0.53679000  1
  H  H71  1  0.87783000  0.26124000  0.57264000  1
  H  H72  1  0.60090000  0.11708000  0.61581000  1
  H  H73  1  0.80907000  0.85470000  0.91423000  1
  H  H74  1  0.86551000  0.91730000  0.95744000  1
  H  H75  1  0.96550000  0.82429000  0.90952000  1
  H  H76  1  0.27881000  0.58754000  0.88548000  1
  H  H77  1  0.12284000  0.28334000  0.61547000  1
  C  C78  1  0.10234000  0.45548000  0.82186000  1
  C  C79  1  0.89333000  0.56231000  0.17674000  1
  C  C80  1  0.71828000  0.32815000  0.47701000  1
  C  C81  1  0.32667000  0.95596000  0.02251000  1
  C  C82  1  0.94541000  0.72629000  0.48281000  1
  C  C83  1  0.32170000  0.96953000  0.52874000  1
  C  C84  1  0.71521000  0.36593000  0.97076000  1
  C  C85  1  0.93918000  0.72170000  0.53507000  1
  C  C86  1  0.34821000  0.93651000  0.97064000  1
  C  C87  1  0.71178000  0.32763000  0.52973000  1
  C  C88  1  0.93504000  0.72038000  0.96568000  1
  C  C89  1  0.83944000  0.24897000  0.04581000  1
  C  C90  1  0.54129000  0.90157000  0.32155000  1
  C  C91  1  0.23691000  0.92934000  0.44977000  1
  C  C92  1  0.94865000  0.82959000  0.04218000  1
  C  C93  1  0.83946000  0.25157000  0.45111000  1
  C  C94  1  0.22257000  0.94629000  0.04602000  1
  C  C95  1  0.96116000  0.82501000  0.45843000  1
  C  C96  1  0.22102000  0.96613000  0.55833000  1
  C  C97  1  0.83046000  0.34027000  0.94404000  1
  C  C98  1  0.90249000  0.83584000  0.56528000  1
  C  C99  1  0.29871000  0.86740000  0.94238000  1
  C  C100  1  0.81706000  0.22813000  0.55891000  1
  C  C101  1  0.55732000  0.54131000  0.17849000  1
  C  C102  1  0.89226000  0.83487000  0.93510000  1
  C  C103  1  0.49436000  0.48927000  0.97567000  1
  C  C104  1  0.48494000  0.01941000  0.52441000  1
  C  C105  1  0.02353000  0.49985000  0.97399000  1
  C  C106  1  0.49823000  0.48930000  0.52550000  1
  C  C107  1  0.48735000  0.01712000  0.97538000  1
  C  C108  1  0.00983000  0.50393000  0.52772000  1
  C  C109  1  0.48698000  0.01005000  0.47233000  1
  C  C110  1  0.45638000  0.44250000  0.67803000  1
  C  C111  1  0.50294000  0.49122000  0.02763000  1
  C  C112  1  0.99695000  0.51510000  0.47595000  1
  C  C113  1  0.48802000  0.00828000  0.02749000  1
  C  C114  1  0.50601000  0.49160000  0.47346000  1
  C  C115  1  0.00676000  0.51228000  0.02550000  1
  C  C116  1  0.27479000  0.61862000  0.98245000  1
  C  C117  1  0.63452000  0.08572000  0.51924000  1
  C  C118  1  0.12792000  0.27995000  0.98403000  1
  C  C119  1  0.28262000  0.64042000  0.52031000  1
  C  C120  1  0.62572000  0.09772000  0.98165000  1
  C  C121  1  0.44202000  0.10242000  0.82232000  1
  C  C122  1  0.09397000  0.28596000  0.51894000  1
  C  C123  1  0.64231000  0.06875000  0.46813000  1
  C  C124  1  0.28585000  0.63282000  0.03317000  1
  C  C125  1  0.07854000  0.29778000  0.46782000  1
  C  C126  1  0.63387000  0.07928000  0.03274000  1
  C  C127  1  0.29305000  0.64750000  0.46920000  1
  C  C128  1  0.10487000  0.29354000  0.03484000  1
  C  C129  1  0.36863000  0.54573000  0.90196000  1
  C  C130  1  0.55286000  0.07565000  0.59893000  1
  C  C131  1  0.09891000  0.36870000  0.90241000  1
  C  C132  1  0.10032000  0.45637000  0.67860000  1
  C  C133  1  0.37341000  0.55600000  0.59980000  1
  C  C134  1  0.55017000  0.08016000  0.90145000  1
  C  C135  1  0.07523000  0.37400000  0.59992000  1
  C  C136  1  0.59019000  0.99598000  0.39401000  1
  C  C137  1  0.41328000  0.58839000  0.10650000  1
  C  C138  1  0.99654000  0.42631000  0.39558000  1
  C  C139  1  0.58622000  0.00049000  0.10635000  1
  C  C140  1  0.41724000  0.59335000  0.39502000  1
  C  C141  1  0.00692000  0.42392000  0.10586000  1
  C  C142  1  0.52302000  0.51064000  0.13014000  1
  C  C143  1  0.45555000  0.44157000  0.82243000  1
  C  C144  1  0.51027000  0.96798000  0.36970000  1
  C  C145  1  0.93957000  0.54054000  0.12557000  1
  C  C146  1  0.52397000  0.51223000  0.37052000  1
  C  C147  1  0.50949000  0.96724000  0.13007000  1
  C  C148  1  0.93886000  0.54191000  0.37477000  1
  C  C149  1  0.47946000  0.04669000  0.62794000  1
  C  C150  1  0.47214000  0.47818000  0.87250000  1
  C  C151  1  0.04138000  0.47515000  0.63016000  1
  C  C152  1  0.47971000  0.04781000  0.87210000  1
  C  C153  1  0.47512000  0.48088000  0.62869000  1
  C  C154  1  0.44238000  0.10150000  0.67782000  1
  C  C155  1  0.05127000  0.47063000  0.87155000  1
  C  C156  1  0.37892000  0.55224000  0.95317000  1
  C  C157  1  0.55962000  0.05790000  0.54774000  1
  C  C158  1  0.08307000  0.38236000  0.95333000  1
  C  C159  1  0.38491000  0.56412000  0.54877000  1
  C  C160  1  0.55628000  0.06322000  0.95263000  1
  C  C161  1  0.05757000  0.38791000  0.54905000  1
  C  C162  1  0.57269000  0.02651000  0.44453000  1
  C  C163  1  0.39950000  0.57054000  0.05606000  1
  C  C164  1  0.02510000  0.41242000  0.44616000  1
  C  C165  1  0.89263000  0.56302000  0.32348000  1
  C  C166  1  0.56894000  0.03083000  0.05581000  1
  C  C167  1  0.40442000  0.57695000  0.44564000  1
  C  C168  1  0.04030000  0.40925000  0.05568000  1
  C  C169  1  0.58911000  0.42537000  0.89415000  1
  C  C170  1  0.42063000  0.98915000  0.60559000  1
  C  C171  1  0.97978000  0.58801000  0.89124000  1
  C  C172  1  0.59175000  0.42248000  0.60667000  1
  C  C173  1  0.42459000  0.98594000  0.89360000  1
  C  C174  1  0.97633000  0.59311000  0.61023000  1
  C  C175  1  0.40366000  0.98810000  0.39526000  1
  C  C176  1  0.54122000  0.90143000  0.17839000  1
  C  C177  1  0.61246000  0.40789000  0.10357000  1
  C  C178  1  0.91909000  0.64357000  0.40418000  1
  C  C179  1  0.40503000  0.98249000  0.10402000  1
  C  C180  1  0.61127000  0.40731000  0.39651000  1
  C  C181  1  0.91328000  0.64291000  0.09567000  1
  C  C182  1  0.60077000  0.42680000  0.94647000  1
  C  C183  1  0.40861000  0.99150000  0.55314000  1
  C  C184  1  0.97654000  0.60461000  0.94322000  1
  C  C185  1  0.60218000  0.41243000  0.55421000  1
  C  C186  1  0.42008000  0.97825000  0.94619000  1
  C  C187  1  0.55770000  0.54168000  0.32176000  1
  C  C188  1  0.97203000  0.60838000  0.55806000  1
  C  C189  1  0.40273000  0.98698000  0.44774000  1
  C  C190  1  0.61321000  0.41133000  0.05135000  1
  C  C191  1  0.95514000  0.62864000  0.45399000  1
  C  C192  1  0.40480000  0.98244000  0.05155000  1
  C  C193  1  0.61351000  0.40827000  0.44891000  1
  C  C194  1  0.95438000  0.62783000  0.04671000  1
  C  C195  1  0.71990000  0.34210000  0.02234000  1
  C  C196  1  0.32013000  0.96542000  0.47591000  1
  C  C197  1  0.93923000  0.72708000  0.01786000  1
  O  O198  1  0.33994000  0.12093000  0.80524000  1
  O  O199  1  0.66006000  0.46087000  0.19476000  1
  O  O200  1  0.87907000  0.66006000  0.30524000  1
  O  O201  1  0.46087000  0.87907000  0.19476000  1
  O  O202  1  0.14844000  0.35047000  0.80187000  1
  O  O203  1  0.35047000  0.50109000  0.69813000  1
  O  O204  1  0.50109000  0.14844000  0.80187000  1
  O  O205  1  0.14844000  0.35047000  0.69813000  1
  O  O206  1  0.35047000  0.50109000  0.80187000  1
  O  O207  1  0.50109000  0.14844000  0.69813000  1
  O  O208  1  0.85156000  0.49891000  0.30187000  1
  O  O209  1  0.12093000  0.53913000  0.69476000  1
  O  O210  1  0.64953000  0.85156000  0.19813000  1
  O  O211  1  0.49891000  0.64953000  0.30187000  1
  O  O212  1  0.85156000  0.49891000  0.19813000  1
  O  O213  1  0.64953000  0.85156000  0.30187000  1
  O  O214  1  0.49891000  0.64953000  0.19813000  1
  O  O215  1  0.33333333  0.33333333  0.75000000  1
  O  O216  1  0.66666667  0.66666667  0.25000000  1
  O  O217  1  0.69814000  0.30573000  0.12804000  1
  O  O218  1  0.29927000  0.01419000  0.36963000  1
  O  O219  1  0.82784000  0.75780000  0.11074000  1
  O  O220  1  0.53913000  0.33994000  0.80524000  1
  O  O221  1  0.69024000  0.30233000  0.37151000  1
  O  O222  1  0.30528000  0.99539000  0.12954000  1
  O  O223  1  0.84408000  0.75994000  0.38755000  1
  O  O224  1  0.37900000  0.92710000  0.63415000  1
  O  O225  1  0.69137000  0.36260000  0.86505000  1
  O  O226  1  0.92106000  0.69237000  0.64140000  1
  O  O227  1  0.36794000  0.94133000  0.86350000  1
  O  O228  1  0.69492000  0.37911000  0.63566000  1
  O  O229  1  0.91610000  0.68581000  0.86004000  1
  O  O230  1  0.33994000  0.12093000  0.69476000  1
  O  O231  1  0.12093000  0.53913000  0.80524000  1
  O  O232  1  0.53913000  0.33994000  0.69476000  1
  O  O233  1  0.66006000  0.46087000  0.30524000  1
  O  O234  1  0.87907000  0.66006000  0.19476000  1
  O  O235  1  0.46087000  0.87907000  0.30524000  1
