# generated using pymatgen
data_H10C17N3
_symmetry_space_group_name_H-M   'P 1'
_cell_length_a   21.62410000
_cell_length_b   25.11327958
_cell_length_c   25.11290000
_cell_angle_alpha   120.00050000
_cell_angle_beta   90.20420000
_cell_angle_gamma   89.59160358
_symmetry_Int_Tables_number   1
_chemical_formula_structural   H10C17N3
_chemical_formula_sum   'H120 C204 N36'
_cell_volume   11810.15917325
_cell_formula_units_Z   12
loop_
 _symmetry_equiv_pos_site_id
 _symmetry_equiv_pos_as_xyz
  1  'x, y, z'
loop_
 _atom_site_type_symbol
 _atom_site_label
 _atom_site_symmetry_multiplicity
 _atom_site_fract_x
 _atom_site_fract_y
 _atom_site_fract_z
 _atom_site_occupancy
  C  1  1  0.01500500  0.74914725  0.19420325  1
  C  2  1  0.04794100  0.76374150  0.15352750  1
  C  3  1  0.10620100  0.73336250  0.12726200  1
  C  4  1  0.13624500  0.71058800  0.16243050  1
  C  5  1  0.10268200  0.68412750  0.19153550  1
  C  6  1  0.04025000  0.70419475  0.20733825  1
  C  7  1  0.02178400  0.81206375  0.14697625  1
  C  8  1  0.00262900  0.68309300  0.23881550  1
  C  10  1  0.95757200  0.77907875  0.22269825  1
  C  11  1  0.93669300  0.83184900  0.22008400  1
  C  12  1  0.88350700  0.86559550  0.25473050  1
  C  13  1  0.85018600  0.84110775  0.28618875  1
  C  14  1  0.87223700  0.79320600  0.29520350  1
  C  15  1  0.92359300  0.75921025  0.25833125  1
  C  16  1  0.97077500  0.84756425  0.18210875  1
  C  18  1  0.94252500  0.70459575  0.25645675  1
  C  23  1  0.34943600  0.41059650  0.23119300  1
  C  24  1  0.38332900  0.35539450  0.21612350  1
  C  25  1  0.44172900  0.35950925  0.24608775  1
  C  26  1  0.47054000  0.41781000  0.26987850  1
  C  27  1  0.43637800  0.47343450  0.29622450  1
  C  28  1  0.37381200  0.46875125  0.27637925  1
  C  29  1  0.35845900  0.30055800  0.16715650  1
  C  30  1  0.33513200  0.52107150  0.29774200  1
  C  32  1  0.29201700  0.40891100  0.20116700  1
  C  33  1  0.27206700  0.35363075  0.14802925  1
  C  34  1  0.21889600  0.35441450  0.11414500  1
  C  35  1  0.18501300  0.41040475  0.13872675  1
  C  36  1  0.20618200  0.46717750  0.18696750  1
  C  37  1  0.25719900  0.46429900  0.22130000  1
  C  38  1  0.30725100  0.30011550  0.13184500  1
  C  40  1  0.27496100  0.51692350  0.27630850  1
  C  45  1  0.68211100  0.78622075  0.57008075  1
  C  46  1  0.71557700  0.82663300  0.62526300  1
  C  47  1  0.77311100  0.85345950  0.62089200  1
  C  48  1  0.80257000  0.81787850  0.56280550  1
  C  49  1  0.76874300  0.78878925  0.50724275  1
  C  50  1  0.70648200  0.77339525  0.51190875  1
  C  51  1  0.69055000  0.83233025  0.68002875  1
  C  52  1  0.66831000  0.74222950  0.45953650  1
  C  54  1  0.62523300  0.75740675  0.57160875  1
  C  55  1  0.60524900  0.75945975  0.62687525  1
  C  56  1  0.55264500  0.72438900  0.62591350  1
  C  57  1  0.51908900  0.69327800  0.56987850  1
  C  58  1  0.54019600  0.68484100  0.51309950  1
  C  59  1  0.59086600  0.72203425  0.51614325  1
  C  60  1  0.63996700  0.79707525  0.68037475  1
  C  62  1  0.60851900  0.72458700  0.46360200  1
  C  67  1  0.01633700  0.21435525  0.80249275  1
  C  68  1  0.05008200  0.19946425  0.84280775  1
  C  69  1  0.10800900  0.22998850  0.86910250  1
  C  70  1  0.13710300  0.25312400  0.83408050  1
  C  71  1  0.10283500  0.27980525  0.80516875  1
  C  72  1  0.04049100  0.25976725  0.78978275  1
  C  73  1  0.02521100  0.15054925  0.84869575  1
  C  74  1  0.00189400  0.28115375  0.75882925  1
  C  76  1  0.95925700  0.18413325  0.77389675  1
  C  77  1  0.93933400  0.13107450  0.77614450  1
  C  78  1  0.88636900  0.09713725  0.74150525  1
  C  79  1  0.85279800  0.12166725  0.70983025  1
  C  80  1  0.87379800  0.16993400  0.70132950  1
  C  81  1  0.92455800  0.20418650  0.73853250  1
  C  82  1  0.97424100  0.11521000  0.81384400  1
  C  84  1  0.94220600  0.25910600  0.74081550  1
  C  89  1  0.34791900  0.55344925  0.76552475  1
  C  90  1  0.38082300  0.60866275  0.77993475  1
  C  91  1  0.43884500  0.60447800  0.74939100  1
  C  92  1  0.46874500  0.54644300  0.72676500  1
  C  93  1  0.43526600  0.49084650  0.70050050  1
  C  94  1  0.37295700  0.49529725  0.72056325  1
  C  95  1  0.35485600  0.66355575  0.82829975  1
  C  96  1  0.33532000  0.44277475  0.69954375  1
  C  98  1  0.29078300  0.55494250  0.79564050  1
  C  99  1  0.27008700  0.61035925  0.84842325  1
  C  100  1  0.21712200  0.60957600  0.88228400  1
  C  101  1  0.18395900  0.55349575  0.85767375  1
  C  102  1  0.20583300  0.49652050  0.80986050  1
  C  103  1  0.25687500  0.49943750  0.77586350  1
  C  104  1  0.30412200  0.66399550  0.86390650  1
  C  106  1  0.27543800  0.44670275  0.72118625  1
  C  111  1  0.68255500  0.17795200  0.42718200  1
  C  112  1  0.71605800  0.13776125  0.37191075  1
  C  113  1  0.77458300  0.11184050  0.37594850  1
  C  114  1  0.80396800  0.14654475  0.43406575  1
  C  115  1  0.77014900  0.17562550  0.48967850  1
  C  116  1  0.70752200  0.19101625  0.48527125  1
  C  117  1  0.69063800  0.13185675  0.31712375  1
  C  118  1  0.66936500  0.22215550  0.53775150  1
  C  120  1  0.62492600  0.20623975  0.42567525  1
  C  121  1  0.60442000  0.20400550  0.37041150  1
  C  122  1  0.55099500  0.23852900  0.37130750  1
  C  123  1  0.51732200  0.26975350  0.42723650  1
  C  124  1  0.53910500  0.27851125  0.48403925  1
  C  125  1  0.59048200  0.24152000  0.48114000  1
  C  126  1  0.63928300  0.16677825  0.31683225  1
  C  128  1  0.60900100  0.23932075  0.53377475  1
  C  133  1  0.13597900  0.71184675  0.06626325  1
  C  134  1  0.14497200  0.74146000  0.03085100  1
  C  135  1  0.17367200  0.71129225  0.97094825  1
  C  136  1  0.20187000  0.65239750  0.94650550  1
  C  137  1  0.20043200  0.62683300  0.98551200  1
  C  138  1  0.16214500  0.65133575  0.03726125  1
  C  140  1  0.15224400  0.79897850  0.96043350  1
  C  141  1  0.12781700  0.83083575  0.02060375  1
  C  147  1  0.11284700  0.93203050  0.02586950  1
  C  152  1  0.47096100  0.32025575  0.26834175  1
  C  153  1  0.48036300  0.25518975  0.23894025  1
  C  154  1  0.50858700  0.22552250  0.26951500  1
  C  155  1  0.53593100  0.26002400  0.32857100  1
  C  156  1  0.53375300  0.32458850  0.35421500  1
  C  157  1  0.49594700  0.35185525  0.32917325  1
  C  159  1  0.48840900  0.12720400  0.18199250  1
  C  160  1  0.46444000  0.15539425  0.14971075  1
  C  166  1  0.45080200  0.05915725  0.04873625  1
  C  171  1  0.80373100  0.91407525  0.66043025  1
  C  172  1  0.81233400  0.95018400  0.72554500  1
  C  173  1  0.84198700  0.00950475  0.75503825  1
  C  174  1  0.87127400  0.03299875  0.72057275  1
  C  175  1  0.86925700  0.99373000  0.65604000  1
  C  176  1  0.83068400  0.94238975  0.62885075  1
  C  178  1  0.81959400  0.02158075  0.85350875  1
  C  179  1  0.79384900  0.96212925  0.82553425  1
  C  185  1  0.77884700  0.95755675  0.92167475  1
  C  190  1  0.13779200  0.25182650  0.93027050  1
  C  191  1  0.14697200  0.22263550  0.96616850  1
  C  192  1  0.17582500  0.25289275  0.02598875  1
  C  193  1  0.20399300  0.31137275  0.04995425  1
  C  194  1  0.20174100  0.33683625  0.01086175  1
  C  195  1  0.16347200  0.31223825  0.95907225  1
  C  197  1  0.15481900  0.16600100  0.03751200  1
  C  198  1  0.13012000  0.13402600  0.97747800  1
  C  204  1  0.11589900  0.03331450  0.97302550  1
  C  209  1  0.46896300  0.64381350  0.72791450  1
  C  210  1  0.47831900  0.70878750  0.75734400  1
  C  211  1  0.50807300  0.73817300  0.72745950  1
  C  212  1  0.53706200  0.70355950  0.66912500  1
  C  213  1  0.53461300  0.63899975  0.64363525  1
  C  214  1  0.49545300  0.61213975  0.66768775  1
  C  216  1  0.48648100  0.83664175  0.81454975  1
  C  217  1  0.46080100  0.80867750  0.84608200  1
  C  223  1  0.44582800  0.90485575  0.94699725  1
  C  228  1  0.80387500  0.05043525  0.33658575  1
  C  229  1  0.81271400  0.01477450  0.27150250  1
  C  230  1  0.84077900  0.95446075  0.24174025  1
  C  231  1  0.86847700  0.92985325  0.27621125  1
  C  232  1  0.86723700  0.96889800  0.34077400  1
  C  233  1  0.82956000  0.02127925  0.36813375  1
  C  235  1  0.81965800  0.94380800  0.14350900  1
  C  236  1  0.79591200  0.00437400  0.17180300  1
  C  242  1  0.78162100  0.00945225  0.07574775  1
  C  247  1  0.84841900  0.78908550  0.34743950  1
  C  248  1  0.88631200  0.77953300  0.38868350  1
  C  249  1  0.85988800  0.77112500  0.43595250  1
  C  250  1  0.79636800  0.78459025  0.45237875  1
  C  251  1  0.76194400  0.80487850  0.41764750  1
  C  252  1  0.78504400  0.80075275  0.36356975  1
  C  254  1  0.96066300  0.74709750  0.45906600  1
  C  255  1  0.98831300  0.76290350  0.41816100  1
  C  261  1  0.09796900  0.75460500  0.44643300  1
  C  266  1  0.18240100  0.52356050  0.19089400  1
  C  267  1  0.22036400  0.57390750  0.20039400  1
  C  268  1  0.19392100  0.62976600  0.20871950  1
  C  269  1  0.13050600  0.63314150  0.19522750  1
  C  270  1  0.09623500  0.57836325  0.17449675  1
  C  271  1  0.11918300  0.52834375  0.17885575  1
  C  273  1  0.29449100  0.67602300  0.23266600  1
  C  274  1  0.32224800  0.61913925  0.21717075  1
  C  280  1  0.43184600  0.65475800  0.22555950  1
  C  285  1  0.51610600  0.63297750  0.45657200  1
  C  286  1  0.55378100  0.59191700  0.40558450  1
  C  287  1  0.52717700  0.54472400  0.34990500  1
  C  288  1  0.46387100  0.52822525  0.34705825  1
  C  289  1  0.42974200  0.56288025  0.40211325  1
  C  290  1  0.45288300  0.61682500  0.45217100  1
  C  292  1  0.62753000  0.52164600  0.30256300  1
  C  293  1  0.65546800  0.56264250  0.35918950  1
  C  299  1  0.76496400  0.53441250  0.32242950  1
  C  304  1  0.84993600  0.17410425  0.64905175  1
  C  305  1  0.88776100  0.18386325  0.60821125  1
  C  306  1  0.86123500  0.19253250  0.56097000  1
  C  307  1  0.79787600  0.17918800  0.54428900  1
  C  308  1  0.76374400  0.15833900  0.57835750  1
  C  309  1  0.78676400  0.16222925  0.63244825  1
  C  311  1  0.96167400  0.21663075  0.53852025  1
  C  312  1  0.98953400  0.20077725  0.57955825  1
  C  318  1  0.09907900  0.20925925  0.55208225  1
  C  323  1  0.18207300  0.44013675  0.80571425  1
  C  324  1  0.21996100  0.38917725  0.79596375  1
  C  325  1  0.19360600  0.33352225  0.78756825  1
  C  326  1  0.13024500  0.33065425  0.80120575  1
  C  327  1  0.09580500  0.38568400  0.82140650  1
  C  328  1  0.11880800  0.43570850  0.81745000  1
  C  330  1  0.29426000  0.28615675  0.76328525  1
  C  331  1  0.32191800  0.34279000  0.77898550  1
  C  337  1  0.43158300  0.30591325  0.77025125  1
  C  342  1  0.51518100  0.33080150  0.54041100  1
  C  343  1  0.55307500  0.37189350  0.59093350  1
  C  344  1  0.52657600  0.41935250  0.64666450  1
  C  345  1  0.46308500  0.43605000  0.64972300  1
  C  346  1  0.42871500  0.40157550  0.59488550  1
  C  347  1  0.45181300  0.34723575  0.54503175  1
  C  349  1  0.62724300  0.44214800  0.69336450  1
  C  350  1  0.65500000  0.40101675  0.63655875  1
  C  356  1  0.76457400  0.42900175  0.67258275  1
  H  9  1  0.18122600  0.69718325  0.15161225  1
  H  17  1  0.81308700  0.86606225  0.31198075  1
  H  19  1  0.95777200  0.88460225  0.17814425  1
  H  20  1  0.04342300  0.82773050  0.12214400  1
  H  21  1  0.91708000  0.68575150  0.27708750  1
  H  22  1  0.01844300  0.65316050  0.25203950  1
  H  31  1  0.51553300  0.42034150  0.28328750  1
  H  39  1  0.14786400  0.41134750  0.11386500  1
  H  41  1  0.29517100  0.25926700  0.09432200  1
  H  42  1  0.38153300  0.26041700  0.15036400  1
  H  43  1  0.24913800  0.55645825  0.29495325  1
  H  44  1  0.35022200  0.56428425  0.32771875  1
  H  53  1  0.84765200  0.82805175  0.56039925  1
  H  61  1  0.48204100  0.66768725  0.56886925  1
  H  63  1  0.62781600  0.80045375  0.72123975  1
  H  64  1  0.71320600  0.85609200  0.72022400  1
  H  65  1  0.58291800  0.70384275  0.42409125  1
  H  66  1  0.68354400  0.72905800  0.41633550  1
  H  75  1  0.18199900  0.26636800  0.84474900  1
  H  83  1  0.81584800  0.09683825  0.68403875  1
  H  85  1  0.96204200  0.07792250  0.81749200  1
  H  86  1  0.04790400  0.13425375  0.87267725  1
  H  87  1  0.91618800  0.27801125  0.72028825  1
  H  88  1  0.01685000  0.31127550  0.74575950  1
  H  97  1  0.51372500  0.54375300  0.71362000  1
  H  105  1  0.14689300  0.55264550  0.88241750  1
  H  107  1  0.29122200  0.70504400  0.90087900  1
  H  108  1  0.37650100  0.70405100  0.84383150  1
  H  109  1  0.24994700  0.40726325  0.70236525  1
  H  110  1  0.35099000  0.39959100  0.66962200  1
  H  119  1  0.84905300  0.13570950  0.43652000  1
  H  127  1  0.47997900  0.29542850  0.42812050  1
  H  129  1  0.62686000  0.16350375  0.27602375  1
  H  130  1  0.71339000  0.10848625  0.27693425  1
  H  131  1  0.58351300  0.26015925  0.57336925  1
  H  132  1  0.68494800  0.23543350  0.58092300  1
  H  143  1  0.15471800  0.81874100  0.93355500  1
  H  144  1  0.15526800  0.62286050  0.05488850  1
  H  145  1  0.21824600  0.58371275  0.97083275  1
  H  148  1  0.05691700  0.88872975  0.05773225  1
  H  149  1  0.16204800  0.93631825  0.01923575  1
  H  150  1  0.09466500  0.97763150  0.05811350  1
  H  151  1  0.08860200  0.91448250  0.98207500  1
  H  162  1  0.49123500  0.08057225  0.16244225  1
  H  163  1  0.48857600  0.39799025  0.35749625  1
  H  164  1  0.55083700  0.35301350  0.39750500  1
  H  167  1  0.39449800  0.13483875  0.09109975  1
  H  168  1  0.50001300  0.04780325  0.04491625  1
  H  169  1  0.43334000  0.04565025  0.00291275  1
  H  170  1  0.42613500  0.03337125  0.06636525  1
  H  181  1  0.82217500  0.04873350  0.90012750  1
  H  182  1  0.82381500  0.92477550  0.58271000  1
  H  183  1  0.88759800  0.00787675  0.62755625  1
  H  186  1  0.72170900  0.92790500  0.84711900  1
  H  187  1  0.82826400  0.96236725  0.93199025  1
  H  188  1  0.75978950  0.92597650  0.93522400  1
  H  189  1  0.75600000  0.00221325  0.94822775  1
  H  200  1  0.15763600  0.14652050  0.06465550  1
  H  201  1  0.15613300  0.34064200  0.94134400  1
  H  202  1  0.21913900  0.37986400  0.02538400  1
  H  205  1  0.05922500  0.07682725  0.94117625  1
  H  206  1  0.16520700  0.02863225  0.97939375  1
  H  207  1  0.09777100  0.98782075  0.94108125  1
  H  208  1  0.09198500  0.05131700  0.01700600  1
  H  219  1  0.48941300  0.88324800  0.83425750  1
  H  220  1  0.48826600  0.56609500  0.63914250  1
  H  221  1  0.55258900  0.61031675  0.60075325  1
  H  224  1  0.38904500  0.83039275  0.90273525  1
  H  225  1  0.49518900  0.91512450  0.95208500  1
  H  226  1  0.42694900  0.91847150  0.99230100  1
  H  227  1  0.42263750  0.93141050  0.92906050  1
  H  238  1  0.82200300  0.91672575  0.09686625  1
  H  239  1  0.82266400  0.03911800  0.41429600  1
  H  240  1  0.88476500  0.95391150  0.36904350  1
  H  243  1  0.72562300  0.04245875  0.15129825  1
  H  244  1  0.83079500  0.00197925  0.06450625  1
  H  245  1  0.76396600  0.04188100  0.06236850  1
  H  246  1  0.75695500  0.96604050  0.04978050  1
  H  257  1  0.98618000  0.73451575  0.48526975  1
  H  258  1  0.75474400  0.80983600  0.33774400  1
  H  259  1  0.71788900  0.82148300  0.43016300  1
  H  262  1  0.06099400  0.72966150  0.36217350  1
  H  263  1  0.09121800  0.78979350  0.49449200  1
  H  264  1  0.14465500  0.75936500  0.43300250  1
  H  265  1  0.09396000  0.70911125  0.44176875  1
  H  276  1  0.31990300  0.71462000  0.24539050  1
  H  277  1  0.08893800  0.49369975  0.16974625  1
  H  278  1  0.05227400  0.57472800  0.15790800  1
  H  281  1  0.39464600  0.59603525  0.25079075  1
  H  282  1  0.42538100  0.66748550  0.19021650  1
  H  283  1  0.47856300  0.63619425  0.22096125  1
  H  284  1  0.42747100  0.69574325  0.27096075  1
  H  295  1  0.65280400  0.49564900  0.26366050  1
  H  296  1  0.42277700  0.64254075  0.48720275  1
  H  297  1  0.38591700  0.55032000  0.40621550  1
  H  300  1  0.72757800  0.61875675  0.38144175  1
  H  301  1  0.75872000  0.48641700  0.30982750  1
  H  302  1  0.81172300  0.54795425  0.34051275  1
  H  303  1  0.76026000  0.53880650  0.28145500  1
  H  314  1  0.98700900  0.22941050  0.51261450  1
  H  315  1  0.75659400  0.15294650  0.65796100  1
  H  316  1  0.71989200  0.14176450  0.56550950  1
  H  319  1  0.06173600  0.23408325  0.63607425  1
  H  320  1  0.09280900  0.17409975  0.50396675  1
  H  321  1  0.14582200  0.20453025  0.56582225  1
  H  322  1  0.09445900  0.25477000  0.55677050  1
  H  333  1  0.31973300  0.24724500  0.75037850  1
  H  334  1  0.08847100  0.47065000  0.82658000  1
  H  335  1  0.05188100  0.38980875  0.83804125  1
  H  338  1  0.39410500  0.36520750  0.74530000  1
  H  339  1  0.42527900  0.29313000  0.80551500  1
  H  340  1  0.47826500  0.32396950  0.77480400  1
  H  341  1  0.42717100  0.26505350  0.72480300  1
  H  352  1  0.65268900  0.46832900  0.73200900  1
  H  353  1  0.42156100  0.32149175  0.51029375  1
  H  354  1  0.38465200  0.41430750  0.59099700  1
  H  357  1  0.72781100  0.34477700  0.61375800  1
  H  358  1  0.75768900  0.47702275  0.68525725  1
  H  359  1  0.81129400  0.41534650  0.65419250  1
  H  360  1  0.76057200  0.42458900  0.71357000  1
  N  139  1  0.17453400  0.74113050  0.93834750  1
  N  142  1  0.12554100  0.79983500  0.05184100  1
  N  146  1  0.10354200  0.89135200  0.05176250  1
  N  158  1  0.50989500  0.16308500  0.23995000  1
  N  161  1  0.46177700  0.21765475  0.18045775  1
  N  165  1  0.44112300  0.12587850  0.08896200  1
  N  177  1  0.84291050  0.04258400  0.81746200  1
  N  180  1  0.79162100  0.93040825  0.76328825  1
  N  184  1  0.76850100  0.93206700  0.85523600  1
  N  196  1  0.17706400  0.22349875  0.05902425  1
  N  199  1  0.12756700  0.16460975  0.94580875  1
  N  203  1  0.10593600  0.07376925  0.94683825  1
  N  215  1  0.50942100  0.80059100  0.75716200  1
  N  218  1  0.45813700  0.74645575  0.81526275  1
  N  222  1  0.43580000  0.83840950  0.90616350  1
  N  234  1  0.84148800  0.92160500  0.17930050  1
  N  237  1  0.79374200  0.03583525  0.23406125  1
  N  241  1  0.77222300  0.03572075  0.14241075  1
  N  253  1  0.89862400  0.75308500  0.46690250  1
  N  256  1  0.94922600  0.77759275  0.38495925  1
  N  260  1  0.05253800  0.76286575  0.40687475  1
  N  272  1  0.23248500  0.67842950  0.22668300  1
  N  275  1  0.28326300  0.57160125  0.20253175  1
  N  279  1  0.38647500  0.60739650  0.21742550  1
  N  291  1  0.56557400  0.51380175  0.30081225  1
  N  294  1  0.61665900  0.59577450  0.40719300  1
  N  298  1  0.71968500  0.57411200  0.37023450  1
  N  310  1  0.89970100  0.21068775  0.53032125  1
  N  313  1  0.95064700  0.18590750  0.61239550  1
  N  317  1  0.05374900  0.20089925  0.59129925  1
  N  329  1  0.23228100  0.28442675  0.76937275  1
  N  332  1  0.28285100  0.39078475  0.79381025  1
  N  336  1  0.38610500  0.35383075  0.77861075  1
  N  348  1  0.56519500  0.45026750  0.69547550  1
  N  351  1  0.61600000  0.36786125  0.58887375  1
  N  355  1  0.71925500  0.38944300  0.62506350  1
