# generated using pymatgen
data_H13C20(N2O)2
_symmetry_space_group_name_H-M   'P 1'
_cell_length_a   31.41732548
_cell_length_b   31.42060000
_cell_length_c   52.85890000
_cell_angle_alpha   90.84780000
_cell_angle_beta   90.00000270
_cell_angle_gamma   119.99634206
_symmetry_Int_Tables_number   1
_chemical_formula_structural   H13C20(N2O)2
_chemical_formula_sum   'H156 C240 N48 O24'
_cell_volume   45184.03930386
_cell_formula_units_Z   12
loop_
 _symmetry_equiv_pos_site_id
 _symmetry_equiv_pos_as_xyz
  1  'x, y, z'
loop_
 _atom_site_type_symbol
 _atom_site_label
 _atom_site_symmetry_multiplicity
 _atom_site_fract_x
 _atom_site_fract_y
 _atom_site_fract_z
 _atom_site_occupancy
  H  7  1  0.02561600  0.55075200  0.13149000  1
  H  8  1  0.10255100  0.57010100  0.11278300  1
  H  9  1  0.07522500  0.52646100  0.20117800  1
  H  19  1  0.10740300  0.52834500  0.72572400  1
  H  20  1  0.00577000  0.46129800  0.62770000  1
  H  21  1  0.06595900  0.55416900  0.64111700  1
  H  25  1  0.17020800  0.70645400  0.79022200  1
  H  26  1  0.15333200  0.64433000  0.87203000  1
  H  27  1  0.15030600  0.59317900  0.90627400  1
  H  28  1  0.15218900  0.54862500  0.18288200  1
  H  29  1  0.14506900  0.60826600  0.65839400  1
  H  31  1  0.17198300  0.46150200  0.04906300  1
  H  33  1  0.18640000  0.71187200  0.76039700  1
  H  34  1  0.19517100  0.73059200  0.83128800  1
  H  36  1  0.18838400  0.47083500  0.07913800  1
  H  37  1  0.20717500  0.53045200  0.01586800  1
  H  42  1  0.18497200  0.52083800  0.90902900  1
  H  43  1  0.18725300  0.47309300  0.94388800  1
  H  47  1  0.23960700  0.66506800  0.74596400  1
  H  50  1  0.22757600  0.62021500  0.68321100  1
  H  52  1  0.24374100  0.57595600  0.09403800  1
  H  53  1  0.24643200  0.53839400  0.16945900  1
  H  57  1  0.22996900  0.60710600  0.15584400  1
  H  65  1  0.25611600  0.70590800  0.67026500  1
  H  73  1  0.35913000  0.78277800  0.76055200  1
  H  74  1  0.32019300  0.77878200  0.83650900  1
  H  80  1  0.31610300  0.85387600  0.71742600  1
  H  81  1  0.30921000  0.83777600  0.74732300  1
  H  84  1  0.40498700  0.79583200  0.82204900  1
  H  85  1  0.34983400  0.81877500  0.68343200  1
  H  92  1  0.45139100  0.66669600  0.42694400  1
  H  93  1  0.48844000  0.70733100  0.50306500  1
  H  100  1  0.48121500  0.77257100  0.33761800  1
  H  101  1  0.45321200  0.78654533  0.41355600  1
  H  104  1  0.55319500  0.83955200  0.42796000  1
  H  105  1  0.56469100  0.85622300  0.45788000  1
  H  106  1  0.56649100  0.71056700  0.38358300  1
  H  107  1  0.55584000  0.71627700  0.41359900  1
  H  112  1  0.42162400  0.79922600  0.35149800  1
  H  113  1  0.56876800  0.83046700  0.49788100  1
  H  114  1  0.41952700  0.62172600  0.48785100  1
  H  115  1  0.49880200  0.67757200  0.34924100  1
  H  125  1  0.31946400  0.54875200  0.00360300  1
  H  126  1  0.36114000  0.57288200  0.07977500  1
  H  128  1  0.31350500  0.47308500  0.09266800  1
  H  129  1  0.31839600  0.46134200  0.12234400  1
  H  132  1  0.40601300  0.60579800  0.01789400  1
  H  133  1  0.28800200  0.45708800  0.16250400  1
  H  140  1  0.67799400  0.23649200  0.26204500  1
  H  141  1  0.70774700  0.23245600  0.33878200  1
  H  148  1  0.78185400  0.30882000  0.17533200  1
  H  149  1  0.79899800  0.34841200  0.25195500  1
  H  152  1  0.84871200  0.29777300  0.26722000  1
  H  153  1  0.86175700  0.29951800  0.29743700  1
  H  154  1  0.71995200  0.15991700  0.21918000  1
  H  155  1  0.72688100  0.17552900  0.24942300  1
  H  160  1  0.80824100  0.39380900  0.19061900  1
  H  161  1  0.83235700  0.27519800  0.33776000  1
  H  162  1  0.63020200  0.22521900  0.32355600  1
  H  163  1  0.68720400  0.19631400  0.18652400  1
  H  170  1  0.58616900  0.34841200  0.92919300  1
  H  171  1  0.55597500  0.32018500  0.00604400  1
  H  178  1  0.55818100  0.24644500  0.84177300  1
  H  179  1  0.57699500  0.22775200  0.91818300  1
  H  182  1  0.47599100  0.17814200  0.93336800  1
  H  183  1  0.46627000  0.16549100  0.96358200  1
  H  184  1  0.46902500  0.30746400  0.88630000  1
  H  185  1  0.47622100  0.29974200  0.91645100  1
  H  190  1  0.61498500  0.21885100  0.85636800  1
  H  191  1  0.47399300  0.19528900  0.00444500  1
  H  192  1  0.62541800  0.39700300  0.99109200  1
  H  193  1  0.53922100  0.34010900  0.85416500  1
  H  200  1  0.78967000  0.44018200  0.59538700  1
  H  201  1  0.79178000  0.47043400  0.67277200  1
  H  208  1  0.71708600  0.47203400  0.50898200  1
  H  209  1  0.67820400  0.44946600  0.58514500  1
  H  212  1  0.72940100  0.55026600  0.60211900  1
  H  213  1  0.72656700  0.55999500  0.63253100  1
  H  214  1  0.86649100  0.55882700  0.55458600  1
  H  215  1  0.85108800  0.55018200  0.58465300  1
  H  220  1  0.63226800  0.41311300  0.52305900  1
  H  221  1  0.74840700  0.55208000  0.67300100  1
  H  222  1  0.79981600  0.40115700  0.65657700  1
  H  223  1  0.82999900  0.49022100  0.52105200  1
  H  226  1  0.30700000  0.70578600  0.86823800  1
  H  229  1  0.26816800  0.60390700  0.98708000  1
  H  230  1  0.26570600  0.65106100  0.95295000  1
  H  240  1  0.43094600  0.72167300  0.53380600  1
  H  247  1  0.36239700  0.84013900  0.57678900  1
  H  248  1  0.31210500  0.83745200  0.61200900  1
  H  249  1  0.36403900  0.75870700  0.65372000  1
  H  250  1  0.52064200  0.87546200  0.54093000  1
  H  251  1  0.41376800  0.76140000  0.61919700  1
  H  252  1  0.47000100  0.87667600  0.57468700  1
  H  264  1  0.31876600  0.59566500  0.20038700  1
  H  271  1  0.50580800  0.66287900  0.24246000  1
  H  272  1  0.55424600  0.71366100  0.27783700  1
  H  273  1  0.42431300  0.66396000  0.32019400  1
  H  274  1  0.38124000  0.50458500  0.20575500  1
  H  275  1  0.37648300  0.61375700  0.28553000  1
  H  276  1  0.43370900  0.55540500  0.23972200  1
  H  288  1  0.72473400  0.30756600  0.37328000  1
  H  295  1  0.84947400  0.49452600  0.41397000  1
  H  296  1  0.84723300  0.54344400  0.44910800  1
  H  297  1  0.77067300  0.41464200  0.49197200  1
  H  298  1  0.87817500  0.36613500  0.37578000  1
  H  299  1  0.77310800  0.36638400  0.45758700  1
  H  300  1  0.88460300  0.42043400  0.41016100  1
  H  312  1  0.61386300  0.30324600  0.04066700  1
  H  319  1  0.67200300  0.17614800  0.07932900  1
  H  320  1  0.72282200  0.17794300  0.11410900  1
  H  321  1  0.67253100  0.25666700  0.15841500  1
  H  322  1  0.51725500  0.15009400  0.04090800  1
  H  323  1  0.62207700  0.25458500  0.12438400  1
  H  324  1  0.56352100  0.14275000  0.07531600  1
  H  336  1  0.71752200  0.41281900  0.70727300  1
  H  343  1  0.53216600  0.35320500  0.74696100  1
  H  344  1  0.48410400  0.30289300  0.78163600  1
  H  345  1  0.61395600  0.35590900  0.82528400  1
  H  346  1  0.65956700  0.50824600  0.70931200  1
  H  347  1  0.66139700  0.40583200  0.79134600  1
  H  348  1  0.60638100  0.46210600  0.74353700  1
  H  360  1  0.59238700  0.10060000  0.89815200  1
  H  367  1  0.55447300  0.99848900  0.79775700  1
  H  368  1  0.49599900  0.92091200  0.77917600  1
  H  369  1  0.42629400  0.87515500  0.84963500  1
  H  370  1  0.54730300  0.13525500  0.83044800  1
  H  371  1  0.48187500  0.95282100  0.86780800  1
  H  372  1  0.52700900  0.05785900  0.81273200  1
  H  384  1  0.53620000  0.43746000  0.56440200  1
  H  391  1  0.47504000  0.47290700  0.46374200  1
  H  392  1  0.45640000  0.53080100  0.44516900  1
  H  393  1  0.47806200  0.60241500  0.51593900  1
  H  394  1  0.61783700  0.48066100  0.49733000  1
  H  395  1  0.49963900  0.54733900  0.53414900  1
  H  396  1  0.56134300  0.50065200  0.47936500  1
  H  407  1  0.92919600  0.49010000  0.23207800  1
  H  408  1  0.89052600  0.40791900  0.16409300  1
  H  409  1  0.96686800  0.46442000  0.14628100  1
  H  417  1  0.45168400  0.92161100  0.39335700  1
  H  424  1  0.48403200  0.01744400  0.29491900  1
  H  425  1  0.53166300  0.09736400  0.27712400  1
  H  426  1  0.61581000  0.14807800  0.34450000  1
  H  427  1  0.49297900  0.88028400  0.32582800  1
  H  428  1  0.56924100  0.06843300  0.36203600  1
  H  429  1  0.51687300  0.95813000  0.30833200  1
  H  441  1  0.49751500  0.57681800  0.06017700  1
  H  448  1  0.56513800  0.54301500  0.96215800  1
  H  449  1  0.59876200  0.49540800  0.94470000  1
  H  450  1  0.56158800  0.41207300  0.01133200  1
  H  451  1  0.41771500  0.53498000  0.99175700  1
  H  452  1  0.52719100  0.45859300  0.02850100  1
  H  453  1  0.47220600  0.51066000  0.97453700  1
  H  465  1  0.92484600  0.42820900  0.61007300  1
  H  466  1  0.87806900  0.46520500  0.67760100  1
  H  467  1  0.95874800  0.49909600  0.69497800  1
  C  1  1  0.04333600  0.53886600  0.16858100  1
  C  2  1  0.05305000  0.55320400  0.14295100  1
  C  3  1  0.09831800  0.56488800  0.13189500  1
  C  4  1  0.13566300  0.56469500  0.14655300  1
  C  5  1  0.12723500  0.55300200  0.17242400  1
  C  6  1  0.08159600  0.53988100  0.18320000  1
  C  13  1  0.13373500  0.57127500  0.69315800  1
  C  14  1  0.12159500  0.57778400  0.66839900  1
  C  15  1  0.07469800  0.54606500  0.65838400  1
  C  16  1  0.03880500  0.50713700  0.67286900  1
  C  17  1  0.05136700  0.49891700  0.69751700  1
  C  18  1  0.09884300  0.53180200  0.70747100  1
  C  38  1  0.18519800  0.64708200  0.87872100  1
  C  39  1  0.18358300  0.61680000  0.89842300  1
  C  40  1  0.20090100  0.53825100  0.92580500  1
  C  41  1  0.20209600  0.51026700  0.94610800  1
  C  45  1  0.24480400  0.73796000  0.78522000  1
  C  46  1  0.24325300  0.67875800  0.70699100  1
  C  48  1  0.21698600  0.63044000  0.69881100  1
  C  49  1  0.22569600  0.72861800  0.83089400  1
  C  51  1  0.24283900  0.56172400  0.13283000  1
  C  54  1  0.24588600  0.50754600  0.05478100  1
  C  55  1  0.21772700  0.58501200  0.14063700  1
  C  56  1  0.22477600  0.51260300  0.01086700  1
  C  58  1  0.23054600  0.67958600  0.86773000  1
  C  59  1  0.22724100  0.61937800  0.90743100  1
  C  60  1  0.22442900  0.59009300  0.92803100  1
  C  61  1  0.22510800  0.53386600  0.96907900  1
  C  64  1  0.25062300  0.69211600  0.73274400  1
  C  66  1  0.25278700  0.55809700  0.10724500  1
  C  67  1  0.99435400  0.51362900  0.17809300  1
  C  68  1  0.28244900  0.75208100  0.76669600  1
  C  69  1  0.33243300  0.77350400  0.77398400  1
  C  70  1  0.34642000  0.78300600  0.79956400  1
  C  71  1  0.30976000  0.77099000  0.81781600  1
  C  72  1  0.25916200  0.74710400  0.81124000  1
  C  75  1  0.27219600  0.74195500  0.74048700  1
  C  76  1  0.28809500  0.77996400  0.72227500  1
  C  77  1  0.28307700  0.76670500  0.69608100  1
  C  78  1  0.25965200  0.71614200  0.68902100  1
  C  82  1  0.39484600  0.80812900  0.80725100  1
  C  83  1  0.31433200  0.80037300  0.67847700  1
  C  86  1  0.49708000  0.74354800  0.43358000  1
  C  87  1  0.46896600  0.69367000  0.44054100  1
  C  88  1  0.46535100  0.68021300  0.46599700  1
  C  89  1  0.49019200  0.71727200  0.48449600  1
  C  90  1  0.51708400  0.76757000  0.47817900  1
  C  91  1  0.52142900  0.78150100  0.45231900  1
  C  94  1  0.49728700  0.75357200  0.40749000  1
  C  95  1  0.52026600  0.73828600  0.38899600  1
  C  96  1  0.51336800  0.74421900  0.36289300  1
  C  97  1  0.48694700  0.76830400  0.35630100  1
  C  98  1  0.46520700  0.78422900  0.37455400  1
  C  99  1  0.46968600  0.77575500  0.40014800  1
  C  108  1  0.44336700  0.81050900  0.36676600  1
  C  109  1  0.53512200  0.80152300  0.49799600  1
  C  110  1  0.44264200  0.63194600  0.47332300  1
  C  111  1  0.51590300  0.71306900  0.34468100  1
  C  116  1  0.27411000  0.52958600  0.09960600  1
  C  117  1  0.25465400  0.53658500  0.15079900  1
  C  118  1  0.27770500  0.50934200  0.14382100  1
  C  119  1  0.28735800  0.50497600  0.11781000  1
  C  120  1  0.28408500  0.52964100  0.07343100  1
  C  121  1  0.25888500  0.51557700  0.02872300  1
  C  122  1  0.30941000  0.54226700  0.02224200  1
  C  123  1  0.34699800  0.56285400  0.04062200  1
  C  124  1  0.33392600  0.55718300  0.06624700  1
  C  130  1  0.39504200  0.58383600  0.03281000  1
  C  131  1  0.29319500  0.49092200  0.16318500  1
  C  134  1  0.75275300  0.26045500  0.27047900  1
  C  135  1  0.70257900  0.24173000  0.27623400  1
  C  136  1  0.68561300  0.23106600  0.30119500  1
  C  137  1  0.71993900  0.23932000  0.32046600  1
  C  138  1  0.77101400  0.26090000  0.31551800  1
  C  139  1  0.78812100  0.27139600  0.29010500  1
  C  142  1  0.76551400  0.27157200  0.24471200  1
  C  143  1  0.74919000  0.23389100  0.22563200  1
  C  144  1  0.75436600  0.24752400  0.19971800  1
  C  145  1  0.77861600  0.29827000  0.19384500  1
  C  146  1  0.79561100  0.33540200  0.21265600  1
  C  147  1  0.78821300  0.32164500  0.23812700  1
  C  156  1  0.82080700  0.38382900  0.20538800  1
  C  157  1  0.80286800  0.27882200  0.33618200  1
  C  158  1  0.63691000  0.21555300  0.30662500  1
  C  159  1  0.72248300  0.21426900  0.18150600  1
  C  164  1  0.53506500  0.27398700  0.93724500  1
  C  165  1  0.56712300  0.32417300  0.94330500  1
  C  166  1  0.57493700  0.34156100  0.96845500  1
  C  167  1  0.54954000  0.30764700  0.98761400  1
  C  168  1  0.51965800  0.25646600  0.98235800  1
  C  169  1  0.51159100  0.23897500  0.95673600  1
  C  172  1  0.53340700  0.26078000  0.91133700  1
  C  173  1  0.51305200  0.27758300  0.89243300  1
  C  174  1  0.52277900  0.27287000  0.86650600  1
  C  175  1  0.54993700  0.24919400  0.86030400  1
  C  176  1  0.56928500  0.23194500  0.87892800  1
  C  177  1  0.56140000  0.23854800  0.90447300  1
  C  186  1  0.59326500  0.20722700  0.87144600  1
  C  187  1  0.50687900  0.22494700  0.00271900  1
  C  188  1  0.60934700  0.39009400  0.97409700  1
  C  189  1  0.52214200  0.30478300  0.84869100  1
  C  194  1  0.76611700  0.49109000  0.60459400  1
  C  195  1  0.78437600  0.45912100  0.60989600  1
  C  196  1  0.79414500  0.45144800  0.63482200  1
  C  197  1  0.78548900  0.47671700  0.65451300  1
  C  198  1  0.76409900  0.50651600  0.64998200  1
  C  199  1  0.75462100  0.51459200  0.62460100  1
  C  202  1  0.75496400  0.49327400  0.57880800  1
  C  203  1  0.79248100  0.51449200  0.56016000  1
  C  204  1  0.77857000  0.50602900  0.53409000  1
  C  205  1  0.72780100  0.47938300  0.52763300  1
  C  206  1  0.69086200  0.45911900  0.54603100  1
  C  207  1  0.70484800  0.46563300  0.57164500  1
  C  216  1  0.64236400  0.43523500  0.53827600  1
  C  217  1  0.74538100  0.51927800  0.67074900  1
  C  218  1  0.80847100  0.41724000  0.63979600  1
  C  219  1  0.81130000  0.50685800  0.51605900  1
  C  224  1  0.27332800  0.65296000  0.89668900  1
  C  225  1  0.27413900  0.68233500  0.87654200  1
  C  227  1  0.24866500  0.58570500  0.97111500  1
  C  228  1  0.24784800  0.61355100  0.95096300  1
  C  234  1  0.47997800  0.79837100  0.53484700  1
  C  235  1  0.49126700  0.84314700  0.54670700  1
  C  236  1  0.46118700  0.84374400  0.56617300  1
  C  237  1  0.42020500  0.79951100  0.57423100  1
  C  238  1  0.40917100  0.75391000  0.56267400  1
  C  239  1  0.43903100  0.75414200  0.54260300  1
  C  241  1  0.39295400  0.80149800  0.59496500  1
  C  242  1  0.36414000  0.82448200  0.59331700  1
  C  243  1  0.33487700  0.82313500  0.61384800  1
  C  244  1  0.33600900  0.80069500  0.63651700  1
  C  245  1  0.36492500  0.77782900  0.63800300  1
  C  246  1  0.39358700  0.77868800  0.61759600  1
  C  258  1  0.34558300  0.54592900  0.20052200  1
  C  259  1  0.37873800  0.53427400  0.21196000  1
  C  260  1  0.40978600  0.56445600  0.23155000  1
  C  261  1  0.40722500  0.60592400  0.24016700  1
  C  262  1  0.37292600  0.61730100  0.22907900  1
  C  263  1  0.34291500  0.58731100  0.20887400  1
  C  265  1  0.43692800  0.63339200  0.26095000  1
  C  266  1  0.48873400  0.66170600  0.25914300  1
  C  267  1  0.51713200  0.69125800  0.27976100  1
  C  268  1  0.49401000  0.69090900  0.30265000  1
  C  269  1  0.44221200  0.66250200  0.30428500  1
  C  270  1  0.41394300  0.63355100  0.28380700  1
  C  282  1  0.80077200  0.33191600  0.37219200  1
  C  283  1  0.84710100  0.36465700  0.38277100  1
  C  284  1  0.85070300  0.39680500  0.40251700  1
  C  285  1  0.80809100  0.39591200  0.41192100  1
  C  286  1  0.76112400  0.36235200  0.40146700  1
  C  287  1  0.75832100  0.33110200  0.38131800  1
  C  289  1  0.81246700  0.42627000  0.43284000  1
  C  290  1  0.83482800  0.47790400  0.43078500  1
  C  291  1  0.83361400  0.50656700  0.45125600  1
  C  292  1  0.81171900  0.48393300  0.47419800  1
  C  293  1  0.78956800  0.43231000  0.47608400  1
  C  294  1  0.79042000  0.40378800  0.45578200  1
  C  306  1  0.56141400  0.22743100  0.03843500  1
  C  307  1  0.54682300  0.18092200  0.04839700  1
  C  308  1  0.57442800  0.17678500  0.06816900  1
  C  309  1  0.61619900  0.21903100  0.07821200  1
  C  310  1  0.63059200  0.26618500  0.06839400  1
  C  311  1  0.60303900  0.26951400  0.04824900  1
  C  313  1  0.64162700  0.21417000  0.09894800  1
  C  314  1  0.67030800  0.19113800  0.09636200  1
  C  315  1  0.70003200  0.19214100  0.11661500  1
  C  316  1  0.69980000  0.21460000  0.13984600  1
  C  317  1  0.67095000  0.23744900  0.14227200  1
  C  318  1  0.64167700  0.23674200  0.12219400  1
  C  330  1  0.69340400  0.46466500  0.70595200  1
  C  331  1  0.66116600  0.47892200  0.71636600  1
  C  332  1  0.62967400  0.45138500  0.73602700  1
  C  333  1  0.63072600  0.41002600  0.74551600  1
  C  334  1  0.66376000  0.39594100  0.73521300  1
  C  335  1  0.69436100  0.42338800  0.71517400  1
  C  337  1  0.60090600  0.38488400  0.76626300  1
  C  338  1  0.54920800  0.35560100  0.76386000  1
  C  339  1  0.52104200  0.32618600  0.78406200  1
  C  340  1  0.54423100  0.32734300  0.80708900  1
  C  341  1  0.59591000  0.35684800  0.80934000  1
  C  342  1  0.62393700  0.38578500  0.78930300  1
  C  354  1  0.57400900  0.12551400  0.86548600  1
  C  355  1  0.55619600  0.11304900  0.84044800  1
  C  356  1  0.54409000  0.06708300  0.83008100  1
  C  357  1  0.54944900  0.03226300  0.84440600  1
  C  358  1  0.56965200  0.04549700  0.86935400  1
  C  359  1  0.58116800  0.09202600  0.87968100  1
  C  361  1  0.52558200  0.98278200  0.83499700  1
  C  362  1  0.52968700  0.97169700  0.80931400  1
  C  363  1  0.49559300  0.92603100  0.79832800  1
  C  364  1  0.45816700  0.88966300  0.81312700  1
  C  365  1  0.45558800  0.89934900  0.83907800  1
  C  366  1  0.48855300  0.94542100  0.84977900  1
  C  378  1  0.58043800  0.45495800  0.53206800  1
  C  379  1  0.58646200  0.47206300  0.50711300  1
  C  380  1  0.55298000  0.48405100  0.49661300  1
  C  381  1  0.51242100  0.47917500  0.51067400  1
  C  382  1  0.50474500  0.45961100  0.53551300  1
  C  383  1  0.53941300  0.44826200  0.54599700  1
  C  385  1  0.48706200  0.50279100  0.50114100  1
  C  386  1  0.47269500  0.49802500  0.47534000  1
  C  387  1  0.46142800  0.53180300  0.46435100  1
  C  388  1  0.46197400  0.56963900  0.47922700  1
  C  389  1  0.47343700  0.57290100  0.50526600  1
  C  390  1  0.48620400  0.54021000  0.51599200  1
  C  402  1  0.90236100  0.44557600  0.19931300  1
  C  403  1  0.91330100  0.43940900  0.17414600  1
  C  404  1  0.95866900  0.47289900  0.16373200  1
  C  405  1  0.98255700  0.52153900  0.20315200  1
  C  406  1  0.93670300  0.48677700  0.21355300  1
  C  411  1  0.46800600  0.89355000  0.36075300  1
  C  412  1  0.48597300  0.90422800  0.33586400  1
  C  413  1  0.50041900  0.95037000  0.32569800  1
  C  414  1  0.49728900  0.98697700  0.34014800  1
  C  415  1  0.47704700  0.97579800  0.36492100  1
  C  416  1  0.46329700  0.92911300  0.37503600  1
  C  418  1  0.52081700  0.03556900  0.33055700  1
  C  419  1  0.51092900  0.04502800  0.30578700  1
  C  420  1  0.53886600  0.09194300  0.29532400  1
  C  421  1  0.57719200  0.13061600  0.30936700  1
  C  422  1  0.58713000  0.12135500  0.33415700  1
  C  423  1  0.55944300  0.07443500  0.34454100  1
  C  435  1  0.45459000  0.56035800  0.02711400  1
  C  436  1  0.44829100  0.54214300  0.00204900  1
  C  437  1  0.48027000  0.52740900  0.99204700  1
  C  438  1  0.51931600  0.53056500  0.00684200  1
  C  439  1  0.52751900  0.55120000  0.03178800  1
  C  440  1  0.49422100  0.56511400  0.04173800  1
  C  442  1  0.54448200  0.50660100  0.99738800  1
  C  443  1  0.56516500  0.51619900  0.97291600  1
  C  444  1  0.58493600  0.48829500  0.96265900  1
  C  445  1  0.58465700  0.45026300  0.97661200  1
  C  446  1  0.56389300  0.44046700  0.00106200  1
  C  447  1  0.54389800  0.46813100  0.01123800  1
  C  459  1  0.98970000  0.48185200  0.66338300  1
  C  460  1  0.97883500  0.46126300  0.63862100  1
  C  461  1  0.93134500  0.44182300  0.62825800  1
  C  462  1  0.89352900  0.44226600  0.64240400  1
  C  463  1  0.90420700  0.46274900  0.66718300  1
  C  464  1  0.95171100  0.48244400  0.67747200  1
  N  10  1  0.01779300  0.56313400  0.21737500  1
  N  22  1  0.01583200  0.45845500  0.71156000  1
  N  30  1  0.17129200  0.60896100  0.70450100  1
  N  32  1  0.19645700  0.71619500  0.77805800  1
  N  35  1  0.19777900  0.47928500  0.06161900  1
  N  44  1  0.17165300  0.56184100  0.13522500  1
  N  62  1  0.23449700  0.51131800  0.98727700  1
  N  63  1  0.23406400  0.70533100  0.84796000  1
  N  79  1  0.30780200  0.82810700  0.72965800  1
  N  102  1  0.54806400  0.82972900  0.44553400  1
  N  103  1  0.54839900  0.71835200  0.39597200  1
  N  127  1  0.30868600  0.47809700  0.11037300  1
  N  150  1  0.83692900  0.29191900  0.28451400  1
  N  151  1  0.72841100  0.18552800  0.23198200  1
  N  180  1  0.48299500  0.19009400  0.95078100  1
  N  181  1  0.48529600  0.29836000  0.89900300  1
  N  210  1  0.73437900  0.54323800  0.61935400  1
  N  211  1  0.84091000  0.54192800  0.56705400  1
  N  231  1  0.31745400  0.65607600  0.90564600  1
  N  253  1  0.36848000  0.70931400  0.57098800  1
  N  256  1  0.30381300  0.79077200  0.65475500  1
  N  257  1  0.50579300  0.79760500  0.51570500  1
  N  277  1  0.36972400  0.65848900  0.23797200  1
  N  280  1  0.51671300  0.72335300  0.32111100  1
  N  281  1  0.31879000  0.52000300  0.18122800  1
  N  301  1  0.71795500  0.36083200  0.41074600  1
  N  304  1  0.80151100  0.50670000  0.49236700  1
  N  305  1  0.79455200  0.30432600  0.35235000  1
  N  325  1  0.67240100  0.30900700  0.07822900  1
  N  328  1  0.73254200  0.22429700  0.15795900  1
  N  329  1  0.54127700  0.23445000  0.01859600  1
  N  349  1  0.66540000  0.35458300  0.74449800  1
  N  352  1  0.52177400  0.29470200  0.82495100  1
  N  353  1  0.72054800  0.48485400  0.68623600  1
  N  373  1  0.57617800  0.01107000  0.88355100  1
  N  376  1  0.41861200  0.85392100  0.80192300  1
  N  377  1  0.57078700  0.16145700  0.87682900  1
  N  397  1  0.46334400  0.45336700  0.54943100  1
  N  400  1  0.46561600  0.60875100  0.46817300  1
  N  401  1  0.61922800  0.45818900  0.54360800  1
  N  410  1  0.86692900  0.40684300  0.21059200  1
  N  430  1  0.47198200  0.01198500  0.37894700  1
  N  433  1  0.60444400  0.17293100  0.29771000  1
  N  434  1  0.46844000  0.85663000  0.37206600  1
  N  454  1  0.56810100  0.55617400  0.04617000  1
  N  457  1  0.60104800  0.42336400  0.96518200  1
  N  458  1  0.41663400  0.55959900  0.03819600  1
  N  468  1  0.85052500  0.42644700  0.63084900  1
  O  11  1  0.01627100  0.55875600  0.24104500  1
  O  12  1  0.01388700  0.59991300  0.21225100  1
  O  23  1  0.01960900  0.46328700  0.73527600  1
  O  24  1  0.01733000  0.42045000  0.70548300  1
  O  232  1  0.34744900  0.69856000  0.91386300  1
  O  233  1  0.33819600  0.64469400  0.88868000  1
  O  254  1  0.38153200  0.67994900  0.57887800  1
  O  255  1  0.33691800  0.68813200  0.55374400  1
  O  278  1  0.32750900  0.64611600  0.24607800  1
  O  279  1  0.38036500  0.68986100  0.22106100  1
  O  302  1  0.68787800  0.31911200  0.41908300  1
  O  303  1  0.69669900  0.37145200  0.39391200  1
  O  326  1  0.66118800  0.33957600  0.08694300  1
  O  327  1  0.70479900  0.32984600  0.06167500  1
  O  350  1  0.70736800  0.36643000  0.75301400  1
  O  351  1  0.65412400  0.32199900  0.72760900  1
  O  374  1  0.57221500  0.01314800  0.90718000  1
  O  375  1  0.61731700  0.01548100  0.87881400  1
  O  398  1  0.46874800  0.45800100  0.57310500  1
  O  399  1  0.42686500  0.41199600  0.54439100  1
  O  431  1  0.47232400  0.00912300  0.40266900  1
  O  432  1  0.43270600  0.01043700  0.37260900  1
  O  455  1  0.56450000  0.55724200  0.06985900  1
  O  456  1  0.60640900  0.59470200  0.03995600  1
