# generated using pymatgen
data_Cr3H36C30SO16
_symmetry_space_group_name_H-M   'P 1'
_cell_length_a   11.37960328
_cell_length_b   11.37972062
_cell_length_c   18.71564000
_cell_angle_alpha   89.72843845
_cell_angle_beta   89.72761174
_cell_angle_gamma   60.31476708
_symmetry_Int_Tables_number   1
_chemical_formula_structural   Cr3H36C30SO16
_chemical_formula_sum   'Cr6 H72 C60 S2 O32'
_cell_volume   2105.50495407
_cell_formula_units_Z   2
loop_
 _symmetry_equiv_pos_site_id
 _symmetry_equiv_pos_as_xyz
  1  'x, y, z'
loop_
 _atom_site_type_symbol
 _atom_site_label
 _atom_site_symmetry_multiplicity
 _atom_site_fract_x
 _atom_site_fract_y
 _atom_site_fract_z
 _atom_site_occupancy
  C  C0  1  0.71799000  0.75897000  0.36188000  1
  C  C1  1  0.24103000  0.28201000  0.63813000  1
  C  C2  1  0.06642500  0.30126500  0.55021000  1
  C  C3  1  0.69873000  0.93357000  0.44980000  1
  C  C4  1  0.19933000  0.30101000  0.56167000  1
  C  C5  1  0.69899000  0.80067000  0.43833000  1
  C  C6  1  0.14840000  0.31962000  0.42440000  1
  C  C7  1  0.68040000  0.85158000  0.57560000  1
  C  C8  1  0.26589000  0.17473000  0.43912000  1
  C  C9  1  0.82528000  0.73410000  0.56088000  1
  C  C10  1  0.02858000  0.33560000  0.47082000  1
  C  C11  1  0.66439000  0.97141000  0.52919000  1
  C  C12  1  0.79362000  0.21266000  0.54089000  1
  C  C13  1  0.78735000  0.20639000  0.45910000  1
  C  C14  1  0.53542000  0.33198000  0.52780000  1
  C  C15  1  0.66792000  0.46462000  0.47219000  1
  C  C16  1  0.65485000  0.45753000  0.55361000  1
  C  C17  1  0.54245000  0.34513000  0.44639000  1
  C  C18  1  0.65634000  0.32624000  0.56957000  1
  C  C19  1  0.67374000  0.34366000  0.43042000  1
  C  C20  1  0.15421000  0.20705000  0.95379000  1
  C  C21  1  0.79293000  0.84581000  0.04621000  1
  C  C22  1  0.10472000  0.34506000  0.34980000  1
  C  C23  1  0.65495000  0.89527000  0.65020000  1
  C  C24  1  0.15816000  0.20468000  0.03448000  1
  C  C25  1  0.79530000  0.84186000  0.96553000  1
  C  C26  1  0.29283000  0.32431000  0.96777000  1
  C  C27  1  0.67569000  0.70719000  0.03222000  1
  C  C28  1  0.05339000  0.45657000  0.93877000  1
  C  C29  1  0.54340000  0.94662000  0.06124000  1
  C  C30  1  0.17938000  0.32186000  0.92445000  1
  C  C31  1  0.67813000  0.82063000  0.07556000  1
  C  C32  1  0.13548000  0.34330000  0.06381000  1
  C  C33  1  0.65667000  0.86455000  0.93619000  1
  C  C34  1  0.26400000  0.34844000  0.04897000  1
  C  C35  1  0.65151000  0.73605000  0.95103000  1
  C  C36  1  0.02336000  0.46080000  0.01985000  1
  C  C37  1  0.53920000  0.97668000  0.98017000  1
  C  C38  1  0.52201000  0.48031000  0.95932000  1
  C  C39  1  0.51969000  0.47799000  0.04068000  1
  C  C40  1  0.63879500  0.22544500  0.97508000  1
  C  C41  1  0.77457000  0.36123000  0.02492000  1
  C  C42  1  0.77139000  0.33347000  0.94457000  1
  C  C43  1  0.66654000  0.22862000  0.05543000  1
  C  C44  1  0.68712000  0.37186000  0.35408000  1
  C  C45  1  0.62813000  0.31287000  0.64591000  1
  C  C46  1  0.63677000  0.34123000  0.93064000  1
  C  C47  1  0.65878000  0.36324000  0.06936000  1
  C  C48  1  0.70529000  0.77513000  0.15190000  1
  C  C49  1  0.22487000  0.29471000  0.84810000  1
  C  C50  1  0.09318000  0.35852000  0.14116000  1
  C  C51  1  0.64146000  0.90684000  0.85885000  1
  C  C52  1  0.67890000  0.38606000  0.14579000  1
  C  C53  1  0.61394000  0.32110000  0.85420000  1
  C  C54  1  0.18139000  0.43421000  0.53028000  1
  C  C55  1  0.56581000  0.81857000  0.46973000  1
  C  C56  1  0.19007000  0.42489000  0.44896000  1
  C  C57  1  0.57512000  0.80990000  0.55105000  1
  C  C58  1  0.30797000  0.17945000  0.51706000  1
  C  C59  1  0.82057000  0.69203000  0.48294000  1
  Cr  Cr60  1  0.62145000  0.60717000  0.25469000  1
  Cr  Cr61  1  0.39283000  0.37855000  0.74531000  1
  Cr  Cr62  1  0.93785000  0.60239000  0.25181000  1
  Cr  Cr63  1  0.39761000  0.06215000  0.74819000  1
  Cr  Cr64  1  0.93329000  0.29047000  0.24699000  1
  Cr  Cr65  1  0.70953000  0.06671000  0.75301000  1
  H  H66  1  0.24725000  0.46909000  0.55245000  1
  H  H67  1  0.53098000  0.75268000  0.44756000  1
  H  H68  1  0.98282000  0.27922000  0.45056000  1
  H  H69  1  0.72078000  0.01716000  0.54946000  1
  H  H70  1  0.34503000  0.08233000  0.54485000  1
  H  H71  1  0.91769000  0.65499000  0.45514000  1
  H  H72  1  0.82564000  0.11554000  0.56503000  1
  H  H73  1  0.88445500  0.17437500  0.43496000  1
  H  H74  1  0.87451000  0.23393000  0.55603000  1
  H  H75  1  0.76609000  0.12549000  0.44397000  1
  H  H76  1  0.53201000  0.24201000  0.54292000  1
  H  H77  1  0.75782000  0.46820000  0.45700000  1
  H  H78  1  0.53766000  0.26144000  0.41861000  1
  H  H79  1  0.73859000  0.46231000  0.58136000  1
  H  H80  1  0.55752000  0.54420000  0.57222000  1
  H  H81  1  0.45577000  0.44247000  0.42781000  1
  H  H82  1  0.57741000  0.55729000  0.45485000  1
  H  H83  1  0.44270000  0.42228000  0.54517000  1
  H  H84  1  0.22783000  0.10371000  0.93585000  1
  H  H85  1  0.89628000  0.77218000  0.06415000  1
  H  H86  1  0.07833000  0.51149000  0.54358000  1
  H  H87  1  0.48851000  0.92163000  0.45643000  1
  H  H88  1  0.05465000  0.22507000  0.93480000  1
  H  H89  1  0.77491000  0.94537000  0.06521000  1
  H  H90  1  0.08480000  0.17430000  0.05286000  1
  H  H91  1  0.82569000  0.91521000  0.94714000  1
  H  H92  1  0.25757000  0.12253000  0.05319000  1
  H  H93  1  0.87745000  0.74243000  0.94681000  1
  H  H94  1  0.37496000  0.22422000  0.95941000  1
  H  H95  1  0.77578000  0.62506000  0.04055000  1
  H  H96  1  0.35012000  0.27060000  0.08053000  1
  H  H97  1  0.72931000  0.64993000  0.91945000  1
  H  H98  1  0.07145000  0.54097000  0.92369000  1
  H  H99  1  0.45901000  0.92853000  0.07631000  1
  H  H100  1  0.96683000  0.46673000  0.90672000  1
  H  H101  1  0.53323000  0.03317000  0.09332000  1
  H  H102  1  0.93983000  0.44391000  0.02496000  1
  H  H103  1  0.55615000  0.06019000  0.97508000  1
  H  H104  1  0.00074000  0.55926000  0.04216000  1
  H  H105  1  0.44073000  0.99935000  0.95785000  1
  H  H106  1  0.31609000  0.40019000  0.94570000  1
  H  H107  1  0.59982000  0.68388000  0.05431000  1
  H  H108  1  0.12831000  0.52751000  0.42656000  1
  H  H109  1  0.47250000  0.87168000  0.57344000  1
  H  H110  1  0.24817000  0.44959000  0.06407000  1
  H  H111  1  0.55034000  0.75192000  0.93596000  1
  H  H112  1  0.41949000  0.50993000  0.94019000  1
  H  H113  1  0.49006000  0.58052000  0.05981000  1
  H  H114  1  0.54121000  0.56151000  0.94038000  1
  H  H115  1  0.43850500  0.45878500  0.05962000  1
  H  H116  1  0.53771000  0.24501000  0.97075000  1
  H  H117  1  0.75499500  0.46231500  0.02924000  1
  H  H118  1  0.59140000  0.21712000  0.08849000  1
  H  H119  1  0.78289000  0.40861000  0.91150000  1
  H  H120  1  0.85511500  0.23085500  0.93084000  1
  H  H121  1  0.76917000  0.14489000  0.06916000  1
  H  H122  1  0.87353000  0.28883000  0.04737000  1
  H  H123  1  0.71121000  0.12648000  0.95262000  1
  H  H124  1  0.29377000  0.39113000  0.43047000  1
  H  H125  1  0.60888000  0.70620000  0.56954000  1
  H  H126  1  0.38734000  0.20356000  0.51048000  1
  H  H127  1  0.79646000  0.61266000  0.48952000  1
  H  H128  1  0.35141000  0.15739000  0.40319000  1
  H  H129  1  0.84262000  0.64858000  0.59681000  1
  H  H130  1  0.08143000  0.19919000  0.56292000  1
  H  H131  1  0.80080000  0.91858000  0.43709000  1
  H  H132  1  0.98486000  0.37656000  0.58525000  1
  H  H133  1  0.62341500  0.01513500  0.41477000  1
  H  H134  1  0.95450000  0.43898000  0.46538000  1
  H  H135  1  0.56100000  0.04546000  0.53464000  1
  H  H136  1  0.27817000  0.84879000  0.48103000  1
  H  H137  1  0.15111000  0.72237000  0.51903000  1
  O  O138  1  0.59338000  0.49220000  0.33452000  1
  O  O139  1  0.50780000  0.40662000  0.66548000  1
  O  O140  1  0.05173000  0.47575000  0.17344000  1
  O  O141  1  0.52425000  0.94827000  0.82656000  1
  O  O142  1  0.07218000  0.26278000  0.16400000  1
  O  O143  1  0.73722000  0.92782000  0.83600000  1
  O  O144  1  0.79968000  0.30756000  0.17306000  1
  O  O145  1  0.69244000  0.20032000  0.82694000  1
  O  O146  1  0.83087000  0.50001000  0.25116000  1
  O  O147  1  0.49999000  0.16913000  0.74884000  1
  O  O148  1  0.63803000  0.72051000  0.33175000  1
  O  O149  1  0.27949000  0.36197000  0.66825000  1
  O  O150  1  0.83070000  0.74082000  0.33629000  1
  O  O151  1  0.25918000  0.16930000  0.66371000  1
  O  O152  1  0.05835000  0.46809000  0.32409000  1
  O  O153  1  0.53191000  0.94165000  0.67591000  1
  O  O154  1  0.07934000  0.25452000  0.32651000  1
  O  O155  1  0.74548000  0.92066000  0.67349000  1
  O  O156  1  0.80631000  0.29991000  0.32370000  1
  O  O157  1  0.70009000  0.19369000  0.67630000  1
  O  O158  1  0.58623000  0.50047000  0.17202000  1
  O  O159  1  0.49953000  0.41377000  0.82798000  1
  O  O160  1  0.63139000  0.72817000  0.18111000  1
  O  O161  1  0.27183000  0.36861000  0.81889000  1
  O  O162  1  0.82355000  0.74909000  0.17379000  1
  O  O163  1  0.25091000  0.17645000  0.82621000  1
  O  O164  1  0.10038000  0.06354000  0.39745000  1
  O  O165  1  0.33505000  0.94373000  0.36562000  1
  O  O166  1  0.26529000  0.93693000  0.49757000  1
  O  O167  1  0.93647000  0.89961000  0.60254000  1
  O  O168  1  0.05623000  0.66497000  0.63442000  1
  O  O169  1  0.06316000  0.73458000  0.50247000  1
  S  S170  1  0.23763000  0.02985000  0.42292000  1
  S  S171  1  0.97015000  0.76235000  0.57710000  1
