# generated using pymatgen
data_H40C55N8
_symmetry_space_group_name_H-M   'P 1'
_cell_length_a   21.77700000
_cell_length_b   21.77700000
_cell_length_c   65.02280000
_cell_angle_alpha   89.99770000
_cell_angle_beta   89.99890000
_cell_angle_gamma   60.00000000
_symmetry_Int_Tables_number   1
_chemical_formula_structural   H40C55N8
_chemical_formula_sum   'H120 C165 N24'
_cell_volume   26704.98883082
_cell_formula_units_Z   3
loop_
 _symmetry_equiv_pos_site_id
 _symmetry_equiv_pos_as_xyz
  1  'x, y, z'
loop_
 _atom_site_type_symbol
 _atom_site_label
 _atom_site_symmetry_multiplicity
 _atom_site_fract_x
 _atom_site_fract_y
 _atom_site_fract_z
 _atom_site_occupancy
  C  1  1  0.06823500  0.90956200  0.00153100  1
  C  2  1  0.14375900  0.87168550  0.00150800  1
  C  3  1  0.14640300  0.98671050  0.00148600  1
  C  4  1  0.07121000  0.02487150  0.00146800  1
  C  5  1  0.03719900  0.09945200  0.00141900  1
  C  6  1  0.07349900  0.13832000  0.00147200  1
  C  7  1  0.14870500  0.09904100  0.00147500  1
  C  8  1  0.18446400  0.02399950  0.00146900  1
  C  9  1  0.18061100  0.79678300  0.00154900  1
  C  10  1  0.14339900  0.75970000  0.00145400  1
  C  11  1  0.06803400  0.79603800  0.00102100  1
  C  12  1  0.03167600  0.87075800  0.00143600  1
  C  13  1  0.98257500  0.01200250  0.02113500  1
  C  14  1  0.90703300  0.05037100  0.02096700  1
  C  15  1  0.90698800  0.05038350  0.98213600  1
  C  16  1  0.98254000  0.01194650  0.98191100  1
  C  17  1  0.86907500  0.06974150  0.96339300  1
  C  18  1  0.90527600  0.05110200  0.94460400  1
  C  19  1  0.98055500  0.01202900  0.94386400  1
  C  20  1  0.01800300  0.99367100  0.96263300  1
  C  21  1  0.01817800  0.99367100  0.04038600  1
  C  22  1  0.98112800  0.01156050  0.05922300  1
  C  23  1  0.90586200  0.05089200  0.05857800  1
  C  24  1  0.86938700  0.06963650  0.03977600  1
  C  37  1  0.02606500  0.98970000  0.00151500  1
  C  38  1  0.86548800  0.07150400  0.00154900  1
  C  41  1  0.18632500  0.90798500  0.00150600  1
  C  44  1  0.01734300  0.99249900  0.92538200  1
  C  45  1  0.03007400  0.76029550  0.00043200  1
  C  46  1  0.01875600  0.99047050  0.07759600  1
  C  50  1  0.02819700  0.21220100  0.00210000  1
  C  52  1  0.91106300  0.02811350  0.33486400  1
  C  53  1  0.87317900  0.99047350  0.33484100  1
  C  54  1  0.98818000  0.87282650  0.33482100  1
  C  55  1  0.02636600  0.90983000  0.33480300  1
  C  56  1  0.10097300  0.86921550  0.33475100  1
  C  57  1  0.13997500  0.79397700  0.33480900  1
  C  58  1  0.10055700  0.75814400  0.33480800  1
  C  59  1  0.02548300  0.79747650  0.33480500  1
  C  60  1  0.79828100  0.02851800  0.33488300  1
  C  61  1  0.76119800  0.10281550  0.33478800  1
  C  62  1  0.79753900  0.14183850  0.33435200  1
  C  63  1  0.87226100  0.10347650  0.33476900  1
  C  64  1  0.01350500  0.01133050  0.35446800  1
  C  65  1  0.05187000  0.04850800  0.35430100  1
  C  66  1  0.05188100  0.04854000  0.31546800  1
  C  67  1  0.01344700  0.01142300  0.31524400  1
  C  68  1  0.07124000  0.06709500  0.29672600  1
  C  69  1  0.05260200  0.04953050  0.27793700  1
  C  70  1  0.01352900  0.01332450  0.27719700  1
  C  71  1  0.99517600  0.99423050  0.29596700  1
  C  72  1  0.99515900  0.99407750  0.37372000  1
  C  73  1  0.01306800  0.01321500  0.39255700  1
  C  74  1  0.05238500  0.04916500  0.39191200  1
  C  75  1  0.07112900  0.06689400  0.37311000  1
  C  88  1  0.99119900  0.99014900  0.33485100  1
  C  89  1  0.07300600  0.06891700  0.33488300  1
  C  92  1  0.90946100  0.91161600  0.33484000  1
  C  95  1  0.99399800  0.99606800  0.25871400  1
  C  96  1  0.76179600  0.21554450  0.33376500  1
  C  97  1  0.99201600  0.99665000  0.41093200  1
  C  101  1  0.21392900  0.76569300  0.33543000  1
  C  103  1  0.02961700  0.06673400  0.66819700  1
  C  104  1  0.99197300  0.14225900  0.66817500  1
  C  105  1  0.87433400  0.14489900  0.66815200  1
  C  106  1  0.91134000  0.06970800  0.66813400  1
  C  107  1  0.87073500  0.03570550  0.66808900  1
  C  108  1  0.79549300  0.07198450  0.66816200  1
  C  109  1  0.75966200  0.14719600  0.66814400  1
  C  110  1  0.79898400  0.18294100  0.66813500  1
  C  111  1  0.03002000  0.17911150  0.66821700  1
  C  112  1  0.10431700  0.14189750  0.66812400  1
  C  113  1  0.14333800  0.06653400  0.66768300  1
  C  114  1  0.10497700  0.03017500  0.66810400  1
  C  115  1  0.01283300  0.98107150  0.68780000  1
  C  116  1  0.05000700  0.90553350  0.68763400  1
  C  117  1  0.05004200  0.90548900  0.64880300  1
  C  118  1  0.01293100  0.98103950  0.64857700  1
  C  119  1  0.06859500  0.86757450  0.63006100  1
  C  120  1  0.05102800  0.90377900  0.61127000  1
  C  121  1  0.01484700  0.97905850  0.61053100  1
  C  122  1  0.99573800  0.01650200  0.62929900  1
  C  123  1  0.99555800  0.01668000  0.70705200  1
  C  124  1  0.01471500  0.97963000  0.72589000  1
  C  125  1  0.05065700  0.90436400  0.72524700  1
  C  126  1  0.06838800  0.86788900  0.70644500  1
  C  139  1  0.99165400  0.02455950  0.66818300  1
  C  140  1  0.07041900  0.86398900  0.66821700  1
  C  143  1  0.91311700  0.18483600  0.66817400  1
  C  146  1  0.99752900  0.01585000  0.59204800  1
  C  147  1  0.21704000  0.02857600  0.66710500  1
  C  148  1  0.99816700  0.01727100  0.74426100  1
  C  152  1  0.76702400  0.02661500  0.66877800  1
  C  154  1  0.01677300  0.99935400  0.78042600  1
  C  155  1  0.07485800  0.96071700  0.79347400  1
  C  157  1  0.00177900  0.01267300  0.82372500  1
  C  158  1  0.94077900  0.05192300  0.81086800  1
  C  159  1  0.94963400  0.04310750  0.78925600  1
  C  161  1  0.00226600  0.01216050  0.84588600  1
  C  162  1  0.06096900  0.00010950  0.85867700  1
  C  163  1  0.05403000  0.99699350  0.88025000  1
  C  164  1  0.99116200  0.00605750  0.88907200  1
  C  165  1  0.93399300  0.01988050  0.87619800  1
  C  170  1  0.12993100  0.99195650  0.85174600  1
  C  174  1  0.86749400  0.10382900  0.81785300  1
  C  180  1  0.00089500  0.98977150  0.11376100  1
  C  181  1  0.96221000  0.97034800  0.12680200  1
  C  183  1  0.01419100  0.99143450  0.15705600  1
  C  184  1  0.05344100  0.01319050  0.14420100  1
  C  185  1  0.04462100  0.01317150  0.12258800  1
  C  187  1  0.01362400  0.99150850  0.17921800  1
  C  188  1  0.00161200  0.94483300  0.19201000  1
  C  189  1  0.99848200  0.95489150  0.21358200  1
  C  190  1  0.00756300  0.00868700  0.22240600  1
  C  191  1  0.02136500  0.05204650  0.20953000  1
  C  196  1  0.99345800  0.88402200  0.18508000  1
  C  200  1  0.10532800  0.03459000  0.15118700  1
  C  206  1  0.99120800  0.01524900  0.44708700  1
  C  207  1  0.97185500  0.07333750  0.46013300  1
  C  209  1  0.99296600  0.00028550  0.49039000  1
  C  210  1  0.01470600  0.93927800  0.47753700  1
  C  211  1  0.01466900  0.94812400  0.45592500  1
  C  213  1  0.99298500  0.00077000  0.51255100  1
  C  214  1  0.94633500  0.05946450  0.52534400  1
  C  215  1  0.95639400  0.05253600  0.54691600  1
  C  216  1  0.01016500  0.98963500  0.55573600  1
  C  217  1  0.05357300  0.93250350  0.54286200  1
  C  222  1  0.88552400  0.12843000  0.51841200  1
  C  226  1  0.03609100  0.86599100  0.48452100  1
  C  232  1  0.03767500  0.32472200  0.00447600  1
  C  233  1  0.98068900  0.39113900  0.01035900  1
  C  235  1  0.05235700  0.44593450  0.00435000  1
  C  236  1  0.11050300  0.37879000  0.99798700  1
  C  237  1  0.10110500  0.31913150  0.99789200  1
  C  239  1  0.05160400  0.51238550  0.00434400  1
  C  240  1  0.01067500  0.57110400  0.01782700  1
  C  241  1  0.01269000  0.63450900  0.01472300  1
  C  242  1  0.05334400  0.64036250  0.99885300  1
  C  243  1  0.09536800  0.58076550  0.98663700  1
  C  248  1  0.96635500  0.57244500  0.03551900  1
  C  252  1  0.18278500  0.36318950  0.99185600  1
  C  258  1  0.32641700  0.64366150  0.33780700  1
  C  259  1  0.39270900  0.63409600  0.34370400  1
  C  261  1  0.44743300  0.50761250  0.33768800  1
  C  262  1  0.38028700  0.51663000  0.33132100  1
  C  263  1  0.32067400  0.58573100  0.33123200  1
  C  265  1  0.51388800  0.44192300  0.33767600  1
  C  266  1  0.57260800  0.42413800  0.35115700  1
  C  267  1  0.63600700  0.35871100  0.34805500  1
  C  268  1  0.64186200  0.31220600  0.33218700  1
  C  269  1  0.58224800  0.32975950  0.31998000  1
  C  274  1  0.57394400  0.46710950  0.36885300  1
  C  278  1  0.36468100  0.45995000  0.32518900  1
  C  284  1  0.64502700  0.03612300  0.67115650  1
  C  285  1  0.63558100  0.97919200  0.67702900  1
  C  287  1  0.50910800  0.05087100  0.67102800  1
  C  288  1  0.51810600  0.10901200  0.66465800  1
  C  289  1  0.58716900  0.09960150  0.66455500  1
  C  291  1  0.44343900  0.05006450  0.67100200  1
  C  292  1  0.42563600  0.00916400  0.68449200  1
  C  293  1  0.36021300  0.01118250  0.68138900  1
  C  294  1  0.31370300  0.05184400  0.66551900  1
  C  295  1  0.33126400  0.09389000  0.65331000  1
  C  300  1  0.46860900  0.96485500  0.70218600  1
  C  304  1  0.46142700  0.18128900  0.65852200  1
  H  25  1  0.87632300  0.06599900  0.07179700  1
  H  26  1  0.81504800  0.09733350  0.03991300  1
  H  27  1  0.81473200  0.09746950  0.96328600  1
  H  28  1  0.87528100  0.06644150  0.93147200  1
  H  29  1  0.07236100  0.96593600  0.96235000  1
  H  30  1  0.07253300  0.96578100  0.04059700  1
  H  31  1  0.98278300  0.12597100  0.00150300  1
  H  32  1  0.17754900  0.12444200  0.00157900  1
  H  33  1  0.23878300  0.99645600  0.00151100  1
  H  34  1  0.97730700  0.89782350  0.00139600  1
  H  35  1  0.23494400  0.76864700  0.00157900  1
  H  36  1  0.17267800  0.70544750  0.00150200  1
  H  39  1  0.83090100  0.04842450  0.00154800  1
  H  40  1  0.83188600  0.12929400  0.00154500  1
  H  42  1  0.22038200  0.89048500  0.98788300  1
  H  43  1  0.22035200  0.89053850  0.01513700  1
  H  47  1  0.07110600  0.97056400  0.07800600  1
  H  48  1  0.07004100  0.96873950  0.92485300  1
  H  49  1  0.97790000  0.78491700  0.00282700  1
  H  51  1  0.97679400  0.22838300  0.00153100  1
  H  76  1  0.06750700  0.06358100  0.40512900  1
  H  77  1  0.09883700  0.09352650  0.37324500  1
  H  78  1  0.09896900  0.09370850  0.29661800  1
  H  79  1  0.06794200  0.06418700  0.26480400  1
  H  80  1  0.96743300  0.96761800  0.29568400  1
  H  81  1  0.96729000  0.96758900  0.37393200  1
  H  82  1  0.12746100  0.89714700  0.33483500  1
  H  83  1  0.12592100  0.70390850  0.33491100  1
  H  84  1  0.99793700  0.77069900  0.33484600  1
  H  85  1  0.89932400  0.13077800  0.33472900  1
  H  86  1  0.77014300  0.00232400  0.33491200  1
  H  87  1  0.70694700  0.12778800  0.33483500  1
  H  90  1  0.04992400  0.12658500  0.33488000  1
  H  91  1  0.13079600  0.04472900  0.33487800  1
  H  93  1  0.89196500  0.89505800  0.32121500  1
  H  94  1  0.89201800  0.89503000  0.34847000  1
  H  98  1  0.97205600  0.96425000  0.41134100  1
  H  99  1  0.97023800  0.96713100  0.25818700  1
  H  100  1  0.78642000  0.24309100  0.33616200  1
  H  102  1  0.23015200  0.80079700  0.33482000  1
  H  127  1  0.06508500  0.87482650  0.73846600  1
  H  128  1  0.09502800  0.81354900  0.70658200  1
  H  129  1  0.09520800  0.81323400  0.62995300  1
  H  130  1  0.06568700  0.87378550  0.59814000  1
  H  131  1  0.96911500  0.07086100  0.62901700  1
  H  132  1  0.96909400  0.07103250  0.70726100  1
  H  133  1  0.89865800  0.98128500  0.66817200  1
  H  134  1  0.70542400  0.17606050  0.66824700  1
  H  135  1  0.77220200  0.23726050  0.66817700  1
  H  136  1  0.13228200  0.97580500  0.66806100  1
  H  137  1  0.00382400  0.23344400  0.66824600  1
  H  138  1  0.12928600  0.17117700  0.66816700  1
  H  141  1  0.12808800  0.82940100  0.66821500  1
  H  142  1  0.04623000  0.83038500  0.66821400  1
  H  144  1  0.89655600  0.21889250  0.65454900  1
  H  145  1  0.89653000  0.21885750  0.68180400  1
  H  149  1  0.96573800  0.06962450  0.74466800  1
  H  150  1  0.96865800  0.06854700  0.59151900  1
  H  151  1  0.24460500  0.97639200  0.66948400  1
  H  153  1  0.80222000  0.97530450  0.66809350  1
  H  160  1  0.90653600  0.06874950  0.77973100  1
  H  167  1  0.09484500  0.98940850  0.88973300  1
  H  168  1  0.88661500  0.02835050  0.88197400  1
  H  169  1  0.12416400  0.92606900  0.78779300  1
  H  171  1  0.13297200  0.00071800  0.83546200  1
  H  172  1  0.17272900  0.93872950  0.85557000  1
  H  173  1  0.13959700  0.03055350  0.85966700  1
  H  175  1  0.86249500  0.11592300  0.83414600  1
  H  176  1  0.83168800  0.08400350  0.81401000  1
  H  177  1  0.84923900  0.15434400  0.80998200  1
  H  186  1  0.07025800  0.03063350  0.11306600  1
  H  193  1  0.99092800  0.92164250  0.22306700  1
  H  194  1  0.02987600  0.09092700  0.21530600  1
  H  195  1  0.92756500  0.95568800  0.12112000  1
  H  197  1  0.00221600  0.87222450  0.16879500  1
  H  198  1  0.94023000  0.89445400  0.18890300  1
  H  199  1  0.03205500  0.83575700  0.19300000  1
  H  201  1  0.11742300  0.02749300  0.16748000  1
  H  202  1  0.08550000  0.09022050  0.14734300  1
  H  203  1  0.15584700  0.00233300  0.14331800  1
  H  212  1  0.03213300  0.90502150  0.44640400  1
  H  219  1  0.92315400  0.09334550  0.55640000  1
  H  220  1  0.09243400  0.88510300  0.54864000  1
  H  221  1  0.95717800  0.12264700  0.45444900  1
  H  223  1  0.87372600  0.13147000  0.50212900  1
  H  224  1  0.89595300  0.17122900  0.52223600  1
  H  225  1  0.83726000  0.13809750  0.52633400  1
  H  227  1  0.02899600  0.86099050  0.50081500  1
  H  228  1  0.09171800  0.83018750  0.48067800  1
  H  229  1  0.00383100  0.84773700  0.47665200  1
  H  238  1  0.14127100  0.27055900  0.99313400  1
  H  245  1  0.98559700  0.67667150  0.02448400  1
  H  246  1  0.12839600  0.58141900  0.97553750  1
  H  247  1  0.93276500  0.39743150  0.01482200  1
  H  249  1  0.96973800  0.52212100  0.03894200  1
  H  250  1  0.91086700  0.61150000  0.03252900  1
  H  251  1  0.98309100  0.58774300  0.04950800  1
  H  253  1  0.19267700  0.40687150  0.99391300  1
  H  254  1  0.19200900  0.34702900  0.97572300  1
  H  255  1  0.22237300  0.31980550  0.00123950  1
  H  264  1  0.27207800  0.59409100  0.32647200  1
  H  271  1  0.67817400  0.34364050  0.35781600  1
  H  272  1  0.58292600  0.29611200  0.30886600  1
  H  273  1  0.39898300  0.67571600  0.34815500  1
  H  275  1  0.52362400  0.51404450  0.37227600  1
  H  276  1  0.61299700  0.48354300  0.36586400  1
  H  277  1  0.58924200  0.43506650  0.38284000  1
  H  279  1  0.40836300  0.40637450  0.32724700  1
  H  280  1  0.34852200  0.46688850  0.30905700  1
  H  281  1  0.32130000  0.46374400  0.33457200  1
  H  290  1  0.59557300  0.13977300  0.65979600  1
  H  297  1  0.34513000  0.98411050  0.69115600  1
  H  298  1  0.29759700  0.12689600  0.64220300  1
  H  299  1  0.67722000  0.93126050  0.68148000  1
  H  301  1  0.51554800  0.96823900  0.70560800  1
  H  302  1  0.48504400  0.90936700  0.69920000  1
  H  303  1  0.43657300  0.98159450  0.71617500  1
  H  305  1  0.40785200  0.19118300  0.66058100  1
  H  306  1  0.46836800  0.19050450  0.64238900  1
  H  307  1  0.46522100  0.22087550  0.66790400  1
  N  156  1  0.06437000  0.96852050  0.81404400  1
  N  166  1  0.94300800  0.02030700  0.85562200  1
  N  178  1  0.98053100  0.00957650  0.90886200  1
  N  179  1  0.02435800  0.98253100  0.76091000  1
  N  182  1  0.97001500  0.97302700  0.14737300  1
  N  192  1  0.02180500  0.04259900  0.18895400  1
  N  204  1  0.01107900  0.01579850  0.24219600  1
  N  205  1  0.98401400  0.99900900  0.09424600  1
  N  208  1  0.97452700  0.06287000  0.48070400  1
  N  218  1  0.04409800  0.94151050  0.52228800  1
  N  230  1  0.01728900  0.97904400  0.57552900  1
  N  231  1  0.00053100  0.02287700  0.42758000  1
  N  234  1  0.99074000  0.44768850  0.00969300  1
  N  244  1  0.09065400  0.52174500  0.98952300  1
  N  256  1  0.06585500  0.69293900  0.99825900  1
  N  257  1  0.03143700  0.26875150  0.00328100  1
  N  260  1  0.44919700  0.56747600  0.34302600  1
  N  270  1  0.52324100  0.39351300  0.32285600  1
  N  282  1  0.69443800  0.24712100  0.33159200  1
  N  283  1  0.26975600  0.70532150  0.33660800  1
  N  286  1  0.56898700  0.98923750  0.67635700  1
  N  296  1  0.39501300  0.08915350  0.65618900  1
  N  308  1  0.24862200  0.06434900  0.66492200  1
  N  309  1  0.70715500  0.03005200  0.66995900  1
