# generated using pymatgen
data_Cr3H12C36O13F6
_symmetry_space_group_name_H-M   'P 1'
_cell_length_a   10.99573000
_cell_length_b   11.11810000
_cell_length_c   18.74952000
_cell_angle_alpha   90.18838000
_cell_angle_beta   90.20682000
_cell_angle_gamma   60.50887000
_symmetry_Int_Tables_number   1
_chemical_formula_structural   Cr3H12C36O13F6
_chemical_formula_sum   'Cr6 H24 C72 O26 F12'
_cell_volume   1995.15261302
_cell_formula_units_Z   2
loop_
 _symmetry_equiv_pos_site_id
 _symmetry_equiv_pos_as_xyz
  1  'x, y, z'
loop_
 _atom_site_type_symbol
 _atom_site_label
 _atom_site_symmetry_multiplicity
 _atom_site_fract_x
 _atom_site_fract_y
 _atom_site_fract_z
 _atom_site_occupancy
  Cr  Cr0  1  0.23145000  0.54132000  0.74934000  1
  Cr  Cr1  1  0.54132000  0.22723000  0.74934000  1
  Cr  Cr2  1  0.22723000  0.23145000  0.74934000  1
  Cr  Cr3  1  0.45868000  0.76855000  0.25066000  1
  Cr  Cr4  1  0.77277000  0.45868000  0.25066000  1
  Cr  Cr5  1  0.76855000  0.77277000  0.25066000  1
  H  H6  1  0.62188000  0.10503000  0.14315000  1
  H  H7  1  0.10889000  0.27794000  0.14337000  1
  H  H8  1  0.27214000  0.62042000  0.14146000  1
  H  H9  1  0.05440000  0.22360000  0.88621000  1
  H  H10  1  0.72484000  0.05366000  0.88565000  1
  H  H11  1  0.22704000  0.72459000  0.88426000  1
  H  H12  1  0.67628000  0.01019000  0.56839000  1
  H  H13  1  0.89772000  0.37394000  0.58404000  1
  H  H14  1  0.30178000  0.66704000  0.56063000  1
  H  H15  1  0.83325000  0.41359000  0.45385000  1
  H  H16  1  0.72814000  0.89992000  0.45051000  1
  H  H17  1  0.30181000  0.67591000  0.42910000  1
  H  H18  1  0.31076000  0.85539000  0.40777000  1
  H  H19  1  0.06387000  0.69000000  0.39866000  1
  H  H20  1  0.62949000  0.22635000  0.35729000  1
  H  H21  1  0.88513000  0.78959000  0.64532000  1
  H  H22  1  0.17745000  0.24475000  0.56931000  1
  H  H23  1  0.76726000  0.26491000  0.60336000  1
  H  H24  1  0.06867000  0.02944000  0.41804000  1
  H  H25  1  0.10382000  0.84211000  0.47389000  1
  H  H26  1  0.84141000  0.03835000  0.41043000  1
  H  H27  1  0.01640000  0.89374000  0.59763000  1
  H  H28  1  0.00167000  0.21510000  0.50254000  1
  H  H29  1  0.91368000  0.07269000  0.53064000  1
  C  C30  1  0.47939000  0.45931000  0.85243000  1
  C  C31  1  0.46004000  0.06112000  0.85251000  1
  C  C32  1  0.06186000  0.47845000  0.85260000  1
  C  C33  1  0.54673000  0.52124000  0.14567000  1
  C  C34  1  0.93180000  0.54739000  0.14568000  1
  C  C35  1  0.52101000  0.93222000  0.14558000  1
  C  C36  1  0.59450000  0.00517000  0.53874000  1
  C  C37  1  0.90351000  0.45413000  0.55463000  1
  C  C38  1  0.38525000  0.58408000  0.53096000  1
  C  C39  1  0.87449000  0.47237000  0.48057000  1
  C  C40  1  0.62571000  0.93742000  0.47322000  1
  C  C41  1  0.38306000  0.58931000  0.45652000  1
  C  C42  1  0.28653000  0.94195000  0.44157000  1
  C  C43  1  0.01708000  0.71230000  0.45089000  1
  C  C44  1  0.65484000  0.23544000  0.41225000  1
  C  C45  1  0.92052000  0.76827000  0.59046000  1
  C  C46  1  0.20991000  0.15863000  0.53438000  1
  C  C47  1  0.72692000  0.25761000  0.55196000  1
  C  C48  1  0.14721000  0.03806000  0.44891000  1
  C  C49  1  0.04249000  0.80000000  0.49382000  1
  C  C50  1  0.77471000  0.12875000  0.44192000  1
  C  C51  1  0.99272000  0.82959000  0.56326000  1
  C  C52  1  0.10935000  0.14566000  0.49567000  1
  C  C53  1  0.81332000  0.14425000  0.51034000  1
  C  C54  1  0.47986000  0.45175000  0.64338000  1
  C  C55  1  0.42481000  0.11987000  0.63776000  1
  C  C56  1  0.04814000  0.48832000  0.65111000  1
  C  C57  1  0.53844000  0.51531000  0.35094000  1
  C  C58  1  0.88119000  0.57572000  0.36244000  1
  C  C59  1  0.54529000  0.87549000  0.36214000  1
  C  C60  1  0.50731000  0.96991000  0.07052000  1
  C  C61  1  0.97052000  0.52326000  0.07075000  1
  C  C62  1  0.52271000  0.50720000  0.07051000  1
  C  C63  1  0.99880000  0.49119000  0.92296000  1
  C  C64  1  0.51073000  0.99777000  0.92268000  1
  C  C65  1  0.49314000  0.50991000  0.92259000  1
  C  C66  1  0.57626000  0.03676000  0.04197000  1
  C  C67  1  0.03903000  0.38901000  0.04220000  1
  C  C68  1  0.38757000  0.57558000  0.04116000  1
  C  C69  1  0.03927000  0.37289000  0.96744000  1
  C  C70  1  0.59117000  0.03737000  0.96718000  1
  C  C71  1  0.37338000  0.59059000  0.96636000  1
  C  C72  1  0.45393000  0.92187000  0.95155000  1
  C  C73  1  0.92240000  0.62242000  0.95194000  1
  C  C74  1  0.62542000  0.45294000  0.95225000  1
  C  C75  1  0.90545000  0.63830000  0.02476000  1
  C  C76  1  0.45456000  0.90565000  0.02446000  1
  C  C77  1  0.64030000  0.45401000  0.02518000  1
  C  C78  1  0.64016000  0.09294000  0.08629000  1
  C  C79  1  0.09629000  0.27104000  0.08654000  1
  C  C80  1  0.26724000  0.63901000  0.08468000  1
  C  C81  1  0.07340000  0.24070000  0.94074000  1
  C  C82  1  0.69039000  0.07157000  0.94034000  1
  C  C83  1  0.24174000  0.68998000  0.93886000  1
  C  C84  1  0.73537000  0.12769000  0.05832000  1
  C  C85  1  0.13048000  0.14250000  0.05875000  1
  C  C86  1  0.13897000  0.73412000  0.05607000  1
  C  C87  1  0.11787000  0.12787000  0.98605000  1
  C  C88  1  0.76107000  0.11579000  0.98554000  1
  C  C89  1  0.12676000  0.76013000  0.98333000  1
  C  C90  1  0.52407000  0.91972000  0.43710000  1
  C  C91  1  0.91085000  0.55745000  0.44058000  1
  C  C92  1  0.48715000  0.48257000  0.41672000  1
  C  C93  1  0.94688000  0.53695000  0.58982000  1
  C  C94  1  0.45724000  0.06888000  0.56462000  1
  C  C95  1  0.49573000  0.47309000  0.56666000  1
  C  C96  1  0.39037000  0.96971000  0.46863000  1
  C  C97  1  0.94912000  0.64386000  0.47962000  1
  C  C98  1  0.57569000  0.35847000  0.45115000  1
  C  C99  1  0.92633000  0.65563000  0.55359000  1
  C  C100  1  0.35228000  0.06631000  0.52331000  1
  C  C101  1  0.59900000  0.36262000  0.52472000  1
  O  O102  1  0.08904000  0.57241000  0.82899000  1
  O  O103  1  0.57241000  0.33855000  0.82899000  1
  O  O104  1  0.33855000  0.08904000  0.82899000  1
  O  O105  1  0.42759000  0.91096000  0.17101000  1
  O  O106  1  0.66145000  0.42759000  0.17101000  1
  O  O107  1  0.91096000  0.66145000  0.17101000  1
  O  O108  1  0.36025000  0.52853000  0.82440000  1
  O  O109  1  0.52853000  0.11122000  0.82440000  1
  O  O110  1  0.11122000  0.36025000  0.82440000  1
  O  O111  1  0.47147000  0.63975000  0.17560000  1
  O  O112  1  0.88878000  0.47147000  0.17560000  1
  O  O113  1  0.63975000  0.88878000  0.17560000  1
  O  O114  1  0.09067000  0.57240000  0.66846000  1
  O  O115  1  0.57240000  0.33693000  0.66846000  1
  O  O116  1  0.33693000  0.09067000  0.66846000  1
  O  O117  1  0.42760000  0.90933000  0.33154000  1
  O  O118  1  0.66307000  0.42760000  0.33154000  1
  O  O119  1  0.90933000  0.66307000  0.33154000  1
  O  O120  1  0.36176000  0.52852000  0.67559000  1
  O  O121  1  0.52852000  0.10972000  0.67559000  1
  O  O122  1  0.10972000  0.36176000  0.67559000  1
  O  O123  1  0.47148000  0.63824000  0.32441000  1
  O  O124  1  0.89028000  0.47148000  0.32441000  1
  O  O125  1  0.63824000  0.89028000  0.32441000  1
  O  O126  1  0.33333333  0.33333333  0.74937000  1
  O  O127  1  0.66666667  0.66666667  0.25063000  1
  F  F128  1  0.39806000  0.86294000  0.90862000  1
  F  F129  1  0.86305000  0.73556000  0.90921000  1
  F  F130  1  0.74055000  0.39694000  0.91006000  1
  F  F131  1  0.82264000  0.76759000  0.05020000  1
  F  F132  1  0.40433000  0.82492000  0.04996000  1
  F  F133  1  0.77123000  0.40423000  0.05131000  1
  F  F134  1  0.80919000  0.16440000  0.10267000  1
  F  F135  1  0.16653000  0.03426000  0.10323000  1
  F  F136  1  0.02872000  0.80738000  0.09980000  1
  F  F137  1  0.14338000  0.00490000  0.95910000  1
  F  F138  1  0.85834000  0.14290000  0.95823000  1
  F  F139  1  0.00393000  0.85688000  0.95542000  1
