# generated using pymatgen
data_H32C41N8
_symmetry_space_group_name_H-M   'P 1'
_cell_length_a   27.47390000
_cell_length_b   37.33750000
_cell_length_c   37.33750000
_cell_angle_alpha   90.00000000
_cell_angle_beta   90.00000000
_cell_angle_gamma   90.00000000
_symmetry_Int_Tables_number   1
_chemical_formula_structural   H32C41N8
_chemical_formula_sum   'H128 C164 N32'
_cell_volume   38301.05920142
_cell_formula_units_Z   4
loop_
 _symmetry_equiv_pos_site_id
 _symmetry_equiv_pos_as_xyz
  1  'x, y, z'
loop_
 _atom_site_type_symbol
 _atom_site_label
 _atom_site_symmetry_multiplicity
 _atom_site_fract_x
 _atom_site_fract_y
 _atom_site_fract_z
 _atom_site_occupancy
  H  26  1  0.90080200  0.92988500  0.40272400  1
  H  27  1  0.96397500  0.93987800  0.36015500  1
  H  28  1  0.88928600  0.04111800  0.41975700  1
  H  29  1  0.95156700  0.05126500  0.37704400  1
  H  30  1  0.04658100  0.07026100  0.36069300  1
  H  31  1  0.11263700  0.07872900  0.40137400  1
  H  32  1  0.12020300  0.96729200  0.41805400  1
  H  33  1  0.05560600  0.95857500  0.37701500  1
  H  34  1  0.09608900  0.99100800  0.30840600  1
  H  35  1  0.12271300  0.94805700  0.26677600  1
  H  36  1  0.97842500  0.91236100  0.25304400  1
  H  37  1  0.95135900  0.95559100  0.29576400  1
  H  38  1  0.91324300  0.02021500  0.30754300  1
  H  39  1  0.05845800  0.05496400  0.29653000  1
  H  40  1  0.03244200  0.09927700  0.25458800  1
  H  45  1  0.88771000  0.06410100  0.26616400  1
  H  71  1  0.40076500  0.08117400  0.60830200  1
  H  72  1  0.46386100  0.07127400  0.65094600  1
  H  73  1  0.38947400  0.96991200  0.59136000  1
  H  74  1  0.45170100  0.95986000  0.63412900  1
  H  75  1  0.54674300  0.94100800  0.65060600  1
  H  76  1  0.61285300  0.93260900  0.60995500  1
  H  77  1  0.62018400  0.04405200  0.59325000  1
  H  78  1  0.55553000  0.05269900  0.63425200  1
  H  79  1  0.59591400  0.02058200  0.70291800  1
  H  80  1  0.62208800  0.06364800  0.74462100  1
  H  81  1  0.47747400  0.09872400  0.75811100  1
  H  82  1  0.45087400  0.05540100  0.71534200  1
  H  83  1  0.41313700  0.99075700  0.70350100  1
  H  84  1  0.55850700  0.95646700  0.71483600  1
  H  85  1  0.53260300  0.91219000  0.75685500  1
  H  90  1  0.38771600  0.94688900  0.74495000  1
  H  116  1  0.15097700  0.60831000  0.93014700  1
  H  117  1  0.21401300  0.65101000  0.94005400  1
  H  118  1  0.13932800  0.59165100  0.04143400  1
  H  119  1  0.20148900  0.63445300  0.05148300  1
  H  120  1  0.29648300  0.65069900  0.07038800  1
  H  121  1  0.36259100  0.61005900  0.07884600  1
  H  122  1  0.37026700  0.59349100  0.96739400  1
  H  123  1  0.30562700  0.63449000  0.95869200  1
  H  124  1  0.34584800  0.70325000  0.99127100  1
  H  125  1  0.37239600  0.74490700  0.94831400  1
  H  126  1  0.22815200  0.75817000  0.91234200  1
  H  127  1  0.20118300  0.71541700  0.95556700  1
  H  128  1  0.16315500  0.70394600  0.02009500  1
  H  129  1  0.30817000  0.71486500  0.05527300  1
  H  130  1  0.28194900  0.75677800  0.09955100  1
  H  135  1  0.13741100  0.74530700  0.06391800  1
  H  161  1  0.65071800  0.40293800  0.08131500  1
  H  162  1  0.71388400  0.36035900  0.07138500  1
  H  163  1  0.63934800  0.41992100  0.97006400  1
  H  164  1  0.70163900  0.37720000  0.95998100  1
  H  165  1  0.79668200  0.36069100  0.94105600  1
  H  166  1  0.86275900  0.40133900  0.93256300  1
  H  167  1  0.87021700  0.41819300  0.04397500  1
  H  168  1  0.80558500  0.37719200  0.05272200  1
  H  169  1  0.84601200  0.30859000  0.02070900  1
  H  170  1  0.87228100  0.26691600  0.06376700  1
  H  171  1  0.72769700  0.25319900  0.09881600  1
  H  172  1  0.70099100  0.29594600  0.05549800  1
  H  173  1  0.66317700  0.30784000  0.99079200  1
  H  174  1  0.80862100  0.29649000  0.95666000  1
  H  175  1  0.78280700  0.25445700  0.91237200  1
  H  180  1  0.63784400  0.26637800  0.94690500  1
  H  183  1  0.82431900  0.24416300  0.20913800  1
  H  184  1  0.84909200  0.26242700  0.16943500  1
  H  185  1  0.88715000  0.25487100  0.20662800  1
  H  190  1  0.94246400  0.09316600  0.16173100  1
  H  191  1  0.90048600  0.09507700  0.12589500  1
  H  192  1  0.88078400  0.08044200  0.16857700  1
  H  196  1  0.88587900  0.13533100  0.25316900  1
  H  198  1  0.87249600  0.20686500  0.09137400  1
  H  201  1  0.32479300  0.76688800  0.80243400  1
  H  202  1  0.34942700  0.74879400  0.84225500  1
  H  203  1  0.38764700  0.75630400  0.80513900  1
  H  208  1  0.44248800  0.91812700  0.84961200  1
  H  209  1  0.40047400  0.91629800  0.88543100  1
  H  210  1  0.38081500  0.93083800  0.84270500  1
  H  214  1  0.38604600  0.87596100  0.75822900  1
  H  216  1  0.37285500  0.80476700  0.92022400  1
  H  219  1  0.07532200  0.80218200  0.24455200  1
  H  220  1  0.10007700  0.84196500  0.26263700  1
  H  221  1  0.13825200  0.80486300  0.25489600  1
  H  226  1  0.19152400  0.84960400  0.09280000  1
  H  227  1  0.14971000  0.88553000  0.09501200  1
  H  228  1  0.12966800  0.84289700  0.08047500  1
  H  232  1  0.13531400  0.75823200  0.13529900  1
  H  234  1  0.12373000  0.91985800  0.20691100  1
  H  237  1  0.57399800  0.20911100  0.76723900  1
  H  238  1  0.59851600  0.16933000  0.74896500  1
  H  239  1  0.63675600  0.20645300  0.75634400  1
  H  244  1  0.69301700  0.16172400  0.91787600  1
  H  245  1  0.65086400  0.12598700  0.91621500  1
  H  246  1  0.63146700  0.16874400  0.93085200  1
  H  250  1  0.63663200  0.25336800  0.87595300  1
  H  252  1  0.62217100  0.09131300  0.80463600  1
  H  255  1  0.79386500  0.00936900  0.59274400  1
  H  256  1  0.73373500  0.02607100  0.59345700  1
  H  257  1  0.78024800  0.05153700  0.57325400  1
  H  262  1  0.75648000  0.98532000  0.41668000  1
  H  263  1  0.70848200  0.95757600  0.43167000  1
  H  264  1  0.76876100  0.94111200  0.43212600  1
  H  268  1  0.86884900  0.00968000  0.47961100  1
  H  270  1  0.64643100  0.01419800  0.53481600  1
  H  273  1  0.29375700  0.00197100  0.41840800  1
  H  274  1  0.23354700  0.98543000  0.41767600  1
  H  275  1  0.27994300  0.95980400  0.43782200  1
  H  280  1  0.25656800  0.02547400  0.59456800  1
  H  281  1  0.20858400  0.05332000  0.57973600  1
  H  282  1  0.26888100  0.06974800  0.57932900  1
  H  286  1  0.36887300  0.00134700  0.53145200  1
  H  288  1  0.14645800  0.99708800  0.47646200  1
  H  291  1  0.04401200  0.41852500  0.00920700  1
  H  292  1  0.98377200  0.41769500  0.02567100  1
  H  293  1  0.03005300  0.43788700  0.05137400  1
  H  298  1  0.00650800  0.59467800  0.98612600  1
  H  299  1  0.95851200  0.57992300  0.95824800  1
  H  300  1  0.01879000  0.57963900  0.94177900  1
  H  304  1  0.11874600  0.53164700  0.01017600  1
  H  306  1  0.89656600  0.47655300  0.01410100  1
  H  309  1  0.54397700  0.59292400  0.00200800  1
  H  310  1  0.48374200  0.59375400  0.98551800  1
  H  311  1  0.53004000  0.57352200  0.95985500  1
  H  316  1  0.50634200  0.41687800  0.02571800  1
  H  317  1  0.45840900  0.43179900  0.05356600  1
  H  318  1  0.51871700  0.43213400  0.06997600  1
  H  322  1  0.61868100  0.47972100  0.00135500  1
  H  324  1  0.39649200  0.53503600  0.99720600  1
  C  1  1  0.95725600  0.08731900  0.25768500  1
  C  2  1  0.00687900  0.08325700  0.26646000  1
  C  3  1  0.02202600  0.05730900  0.29159400  1
  C  4  1  0.98832500  0.03487800  0.30980600  1
  C  5  1  0.93910400  0.03745800  0.29808600  1
  C  6  1  0.92367500  0.06331000  0.27323200  1
  C  7  1  0.00437000  0.00534000  0.33580200  1
  C  8  1  0.02099600  0.97624600  0.30948200  1
  C  9  1  0.98785200  0.95372700  0.29084700  1
  C  10  1  0.00365600  0.92838500  0.26528900  1
  C  11  1  0.05328000  0.92543600  0.25598400  1
  C  12  1  0.08645800  0.94884200  0.27292100  1
  C  13  1  0.07043300  0.97402000  0.29822300  1
  C  14  1  0.04510300  0.01330400  0.36277400  1
  C  15  1  0.96322500  0.99683100  0.36222800  1
  C  16  1  0.94768300  0.96172200  0.37136600  1
  C  17  1  0.91080800  0.95565800  0.39696800  1
  C  18  1  0.88891900  0.98441700  0.41541300  1
  C  19  1  0.90443900  0.01950400  0.40714800  1
  C  20  1  0.94111700  0.02537000  0.38162100  1
  C  21  1  0.06212500  0.04808100  0.37181100  1
  C  22  1  0.10060000  0.05328400  0.39634700  1
  C  23  1  0.12211100  0.02397200  0.41415200  1
  C  24  1  0.10462400  0.98930200  0.40642800  1
  C  25  1  0.06663500  0.98429400  0.38182000  1
  C  46  1  0.45735300  0.92389100  0.75357400  1
  C  47  1  0.50698600  0.92809100  0.74488600  1
  C  48  1  0.52206900  0.95401600  0.71971000  1
  C  49  1  0.48830300  0.97631500  0.70140200  1
  C  50  1  0.43905600  0.97360200  0.71303100  1
  C  51  1  0.42368900  0.94776000  0.73791500  1
  C  52  1  0.50430300  0.00587500  0.67541400  1
  C  53  1  0.52071500  0.03502500  0.70173900  1
  C  54  1  0.48733800  0.05740800  0.72032100  1
  C  55  1  0.50286900  0.08281600  0.74589600  1
  C  56  1  0.55243200  0.08593400  0.75530500  1
  C  57  1  0.58585700  0.06269100  0.73841800  1
  C  58  1  0.57010000  0.03746000  0.71307100  1
  C  59  1  0.54516000  0.99796400  0.64852700  1
  C  60  1  0.46321700  0.01431400  0.64892100  1
  C  61  1  0.44760600  0.04940200  0.63975600  1
  C  62  1  0.41076400  0.05541300  0.61411700  1
  C  63  1  0.38897600  0.02662000  0.59566400  1
  C  64  1  0.40455400  0.99155200  0.60397200  1
  C  65  1  0.44120300  0.98574000  0.62953000  1
  C  66  1  0.56225600  0.96320500  0.63949600  1
  C  67  1  0.60076600  0.95804200  0.61498200  1
  C  68  1  0.62224400  0.98737400  0.59719300  1
  C  69  1  0.60467100  0.02202600  0.60489600  1
  C  70  1  0.56664200  0.02699300  0.62947900  1
  C  91  1  0.20682200  0.75372700  0.08737500  1
  C  92  1  0.25646300  0.74493400  0.08344500  1
  C  93  1  0.27173000  0.71981500  0.05751600  1
  C  94  1  0.23813900  0.70160000  0.03499500  1
  C  95  1  0.18893000  0.71338700  0.03741300  1
  C  96  1  0.17337200  0.73822300  0.06324100  1
  C  97  1  0.25426600  0.67561000  0.00547900  1
  C  98  1  0.27082200  0.70191300  0.97635800  1
  C  99  1  0.23765300  0.72043600  0.95376400  1
  C  100  1  0.25339900  0.74601400  0.92842300  1
  C  101  1  0.30297900  0.75546300  0.92555400  1
  C  102  1  0.33617200  0.73865400  0.94904000  1
  C  103  1  0.32019500  0.71334400  0.97422400  1
  C  104  1  0.29507200  0.64869100  0.01342900  1
  C  105  1  0.21316900  0.64913300  0.99701600  1
  C  106  1  0.19771400  0.63984700  0.96192200  1
  C  107  1  0.16088400  0.61419200  0.95591200  1
  C  108  1  0.13899800  0.59580800  0.98471200  1
  C  109  1  0.15446100  0.60421300  0.01978300  1
  C  110  1  0.19107600  0.62979500  0.02559500  1
  C  111  1  0.31206800  0.63961900  0.04820400  1
  C  112  1  0.35057100  0.61510500  0.05340100  1
  C  113  1  0.37214900  0.59736200  0.02407900  1
  C  114  1  0.35467500  0.60510200  0.98941000  1
  C  115  1  0.31665500  0.62968600  0.98441200  1
  C  136  1  0.70754300  0.25772700  0.92401200  1
  C  137  1  0.75716100  0.26642400  0.92824900  1
  C  138  1  0.77219000  0.29160500  0.95418200  1
  C  139  1  0.73837600  0.30993200  0.97643100  1
  C  140  1  0.68913300  0.29830000  0.97367500  1
  C  141  1  0.67381700  0.27340600  0.94782100  1
  C  142  1  0.75433600  0.33594600  0.00597500  1
  C  143  1  0.77079600  0.30964800  0.03513900  1
  C  144  1  0.73746600  0.29101800  0.05751100  1
  C  145  1  0.75305900  0.26545000  0.08290700  1
  C  146  1  0.80264800  0.25611800  0.08603400  1
  C  147  1  0.83603200  0.27306300  0.06280200  1
  C  148  1  0.82022100  0.29840000  0.03758100  1
  C  149  1  0.79513100  0.36286800  0.99800900  1
  C  150  1  0.71321400  0.36240800  0.01442700  1
  C  151  1  0.69762500  0.37156200  0.04952100  1
  C  152  1  0.66073500  0.39716100  0.05554900  1
  C  153  1  0.63889600  0.41559800  0.02676800  1
  C  154  1  0.65447100  0.40732200  0.99169400  1
  C  155  1  0.69115300  0.38179000  0.98586300  1
  C  156  1  0.81220200  0.37184000  0.96322900  1
  C  157  1  0.85069000  0.39636000  0.95800700  1
  C  158  1  0.87217900  0.41420800  0.98729900  1
  C  159  1  0.85467900  0.40651600  0.02197600  1
  C  160  1  0.81662800  0.38196200  0.02700100  1
  C  181  1  0.85617500  0.24430700  0.19167000  1
  C  182  1  0.86694100  0.20727500  0.17998100  1
  C  187  1  0.89301300  0.14908300  0.20083500  1
  C  188  1  0.89273300  0.13632300  0.16507100  1
  C  189  1  0.90479500  0.09912900  0.15470300  1
  C  194  1  0.86641400  0.19444500  0.14418200  1
  C  195  1  0.90226900  0.12798200  0.23054200  1
  C  197  1  0.85693900  0.21491000  0.11409900  1
  C  199  1  0.35656600  0.76685600  0.81998500  1
  C  200  1  0.36714800  0.80394700  0.83158400  1
  C  205  1  0.39307400  0.86212500  0.81061100  1
  C  206  1  0.39275000  0.87496700  0.84633900  1
  C  207  1  0.40480900  0.91218200  0.85663200  1
  C  212  1  0.36657300  0.81685100  0.86736100  1
  C  213  1  0.40262500  0.88307700  0.78087400  1
  C  215  1  0.35774700  0.79630900  0.89752600  1
  C  217  1  0.10709500  0.81973000  0.24449900  1
  C  218  1  0.11741100  0.83141800  0.20739500  1
  C  223  1  0.14268600  0.81056800  0.14901400  1
  C  224  1  0.14230100  0.84633900  0.13627700  1
  C  225  1  0.15395600  0.85670900  0.09901400  1
  C  230  1  0.11677000  0.86722900  0.19459900  1
  C  231  1  0.15149200  0.78086900  0.12779500  1
  C  233  1  0.10819300  0.89731200  0.21534900  1
  C  235  1  0.60578500  0.19157600  0.76702700  1
  C  236  1  0.61671500  0.17992900  0.80404600  1
  C  241  1  0.64323100  0.20084100  0.86210300  1
  C  242  1  0.64295500  0.16510400  0.87493000  1
  C  243  1  0.65526800  0.15477700  0.91209100  1
  C  248  1  0.61613300  0.14415400  0.81694800  1
  C  249  1  0.65291700  0.23058100  0.88298800  1
  C  251  1  0.60663300  0.11403100  0.79654700  1
  C  253  1  0.76678500  0.02435700  0.57747500  1
  C  254  1  0.75913000  0.00675900  0.54239300  1
  C  259  1  0.79888000  0.99193200  0.48641700  1
  C  260  1  0.75387100  0.97882000  0.47295600  1
  C  261  1  0.74646400  0.96493000  0.43626900  1
  C  266  1  0.71447700  0.99329600  0.52892100  1
  C  267  1  0.84226300  0.99598700  0.46765600  1
  C  269  1  0.67026000  0.99741000  0.54582100  1
  C  271  1  0.26660900  0.98702600  0.43365200  1
  C  272  1  0.25905300  0.00457900  0.46877000  1
  C  277  1  0.29887300  0.01912500  0.52479100  1
  C  278  1  0.25390800  0.03224900  0.53832200  1
  C  279  1  0.24655400  0.04596400  0.57508400  1
  C  284  1  0.21445400  0.01806900  0.48231100  1
  C  285  1  0.34218300  0.01476400  0.54356800  1
  C  287  1  0.17016500  0.01399900  0.46550000  1
  C  289  1  0.01679100  0.43372200  0.02413200  1
  C  290  1  0.00918700  0.46884200  0.00659800  1
  C  295  1  0.04892300  0.52492800  0.99216300  1
  C  296  1  0.00392900  0.53845800  0.97911200  1
  C  297  1  0.99650000  0.57527400  0.96556000  1
  C  302  1  0.96456500  0.48234900  0.99310800  1
  C  303  1  0.09212800  0.54380400  0.99671300  1
  C  305  1  0.92029000  0.46553700  0.99723500  1
  C  307  1  0.51675900  0.57771900  0.98708700  1
  C  308  1  0.50911900  0.54261800  0.00465200  1
  C  313  1  0.54882500  0.48658300  0.01929700  1
  C  314  1  0.50383400  0.47313300  0.03245000  1
  C  315  1  0.49639000  0.43639200  0.04619600  1
  C  320  1  0.46449500  0.52918600  0.01821100  1
  C  321  1  0.59214300  0.46777300  0.01510200  1
  C  323  1  0.42024900  0.54603200  0.01405700  1
  N  41  1  0.85421300  0.97752900  0.43950700  1
  N  42  1  0.16087100  0.02879600  0.43511200  1
  N  43  1  0.94414900  0.11216300  0.23381600  1
  N  44  1  0.06676500  0.90082600  0.23186400  1
  N  86  1  0.35431800  0.03346700  0.57151600  1
  N  87  1  0.66100800  0.98260700  0.57621700  1
  N  88  1  0.44433400  0.89913600  0.77755600  1
  N  89  1  0.56563400  0.11058200  0.77945500  1
  N  131  1  0.10438700  0.57162100  0.97786600  1
  N  132  1  0.41092000  0.57640400  0.02888200  1
  N  133  1  0.19357500  0.77754500  0.11223800  1
  N  134  1  0.31641600  0.77960400  0.90095200  1
  N  176  1  0.60418700  0.43969700  0.03363200  1
  N  177  1  0.91096500  0.43513900  0.98247000  1
  N  178  1  0.69455300  0.23379400  0.89920500  1
  N  179  1  0.81590800  0.23197100  0.11066700  1
  N  186  1  0.87969500  0.18376500  0.20620400  1
  N  193  1  0.87973500  0.15974100  0.13886100  1
  N  204  1  0.37985800  0.82741200  0.80531100  1
  N  211  1  0.37984700  0.85158000  0.87259900  1
  N  222  1  0.12978400  0.80519000  0.18378100  1
  N  229  1  0.12971800  0.87255400  0.15981300  1
  N  240  1  0.62970900  0.20617300  0.82746300  1
  N  247  1  0.62971300  0.13887700  0.85160400  1
  N  258  1  0.79835300  0.00538000  0.52028900  1
  N  265  1  0.71420400  0.98067600  0.49478600  1
  N  276  1  0.29828300  0.00579100  0.49087300  1
  N  283  1  0.21422300  0.03053900  0.51650200  1
  N  294  1  0.04837600  0.49099100  0.00545200  1
  N  301  1  0.96429200  0.51659000  0.98076900  1
  N  312  1  0.54831200  0.52047900  0.00591300  1
  N  319  1  0.46420000  0.49500100  0.03069700  1
