# generated using pymatgen
data_Cd3H13C24N10Cl
_symmetry_space_group_name_H-M   'P 1'
_cell_length_a   20.51186000
_cell_length_b   28.42457000
_cell_length_c   28.42457000
_cell_angle_alpha   90.00000000
_cell_angle_beta   90.00000000
_cell_angle_gamma   90.00000000
_symmetry_Int_Tables_number   1
_chemical_formula_structural   Cd3H13C24N10Cl
_chemical_formula_sum   'Cd24 H104 C192 N80 Cl8'
_cell_volume   16572.68404383
_cell_formula_units_Z   8
loop_
 _symmetry_equiv_pos_site_id
 _symmetry_equiv_pos_as_xyz
  1  'x, y, z'
loop_
 _atom_site_type_symbol
 _atom_site_label
 _atom_site_symmetry_multiplicity
 _atom_site_fract_x
 _atom_site_fract_y
 _atom_site_fract_z
 _atom_site_occupancy
  Cd  Cd0  1  0.50000000  0.01965000  0.10651000  1
  Cd  Cd1  1  0.64381000  0.53617000  0.30241000  1
  Cd  Cd2  1  0.50000000  0.60651000  0.51965000  1
  Cd  Cd3  1  0.64381000  0.30241000  0.46383000  1
  Cd  Cd4  1  0.64381000  0.19759000  0.96383000  1
  Cd  Cd5  1  0.35618000  0.80241000  0.03617000  1
  Cd  Cd6  1  0.35618000  0.96383000  0.80241000  1
  Cd  Cd7  1  0.35618000  0.46383000  0.69759000  1
  Cd  Cd8  1  0.35618000  0.69759000  0.53617000  1
  Cd  Cd9  1  0.50000000  0.89350000  0.01965000  1
  Cd  Cd10  1  0.64381000  0.69759000  0.53617000  1
  Cd  Cd11  1  0.35618000  0.30241000  0.46383000  1
  Cd  Cd12  1  0.64381000  0.03617000  0.19759000  1
  Cd  Cd13  1  0.50000000  0.10651000  0.98035000  1
  Cd  Cd14  1  0.64381000  0.96383000  0.80241000  1
  Cd  Cd15  1  0.64381000  0.80241000  0.03617000  1
  Cd  Cd16  1  0.50000000  0.98035000  0.89350000  1
  Cd  Cd17  1  0.35618000  0.03617000  0.19759000  1
  Cd  Cd18  1  0.50000000  0.39349000  0.48035000  1
  Cd  Cd19  1  0.35618000  0.19759000  0.96383000  1
  Cd  Cd20  1  0.50000000  0.51965000  0.39349000  1
  Cd  Cd21  1  0.64381000  0.46383000  0.69759000  1
  Cd  Cd22  1  0.35618000  0.53617000  0.30241000  1
  Cd  Cd23  1  0.50000000  0.48035000  0.60651000  1
  H  H24  1  0.18970000  0.74204000  0.41802000  1
  H  H25  1  0.28515000  0.19937000  0.04854000  1
  H  H26  1  0.81030000  0.25796000  0.58198000  1
  H  H27  1  0.71485000  0.30063000  0.54854000  1
  H  H28  1  0.93384000  0.34836000  0.59271000  1
  H  H29  1  0.81030000  0.91802000  0.24204000  1
  H  H30  1  0.28515000  0.04854000  0.80063000  1
  H  H31  1  0.06616000  0.59271000  0.65164000  1
  H  H32  1  0.28515000  0.69937000  0.45146000  1
  H  H33  1  0.83522000  0.36656000  0.68531000  1
  H  H34  1  0.16478000  0.68531000  0.63344000  1
  H  H35  1  0.24830000  0.81406000  0.24697000  1
  H  H36  1  0.83522000  0.63344000  0.31469000  1
  H  H37  1  0.71485000  0.54854000  0.69937000  1
  H  H38  1  0.16478000  0.86656000  0.81469000  1
  H  H39  1  0.71485000  0.19937000  0.04854000  1
  H  H40  1  0.28515000  0.80063000  0.95146000  1
  H  H41  1  0.74022000  0.09003000  0.15215000  1
  H  H42  1  0.24830000  0.24697000  0.18594000  1
  H  H43  1  0.83522000  0.68531000  0.63344000  1
  H  H44  1  0.75170000  0.75304000  0.81406000  1
  H  H45  1  0.06616000  0.84837000  0.90729000  1
  H  H46  1  0.93384000  0.59271000  0.65164000  1
  H  H47  1  0.16478000  0.81469000  0.13344000  1
  H  H48  1  0.94826000  0.22013000  0.72013000  1
  H  H49  1  0.71485000  0.80063000  0.95146000  1
  H  H50  1  0.75170000  0.81406000  0.24697000  1
  H  H51  1  0.71485000  0.69937000  0.45146000  1
  H  H52  1  0.05174000  0.27987000  0.22013000  1
  H  H53  1  0.18970000  0.58198000  0.74204000  1
  H  H54  1  0.74022000  0.84785000  0.09003000  1
  H  H55  1  0.06616000  0.90729000  0.15164000  1
  H  H56  1  0.74022000  0.59003000  0.34785000  1
  H  H57  1  0.05174000  0.72013000  0.77987000  1
  H  H58  1  0.18970000  0.08198000  0.75796000  1
  H  H59  1  0.05174000  0.77987000  0.27987000  1
  H  H60  1  0.18970000  0.75796000  0.91802000  1
  H  H61  1  0.74022000  0.90997000  0.84785000  1
  H  H62  1  0.94826000  0.77987000  0.27987000  1
  H  H63  1  0.25978000  0.34785000  0.40997000  1
  H  H64  1  0.81030000  0.58198000  0.74204000  1
  H  H65  1  0.74022000  0.65215000  0.59003000  1
  H  H66  1  0.28515000  0.45146000  0.30063000  1
  H  H67  1  0.75170000  0.24697000  0.18594000  1
  H  H68  1  0.93384000  0.65164000  0.40729000  1
  H  H69  1  0.71485000  0.04854000  0.80063000  1
  H  H70  1  0.28515000  0.54854000  0.69937000  1
  H  H71  1  0.25978000  0.65215000  0.59003000  1
  H  H72  1  0.75170000  0.74697000  0.31406000  1
  H  H73  1  0.75170000  0.18594000  0.75304000  1
  H  H74  1  0.93384000  0.90729000  0.15164000  1
  H  H75  1  0.24830000  0.74697000  0.31406000  1
  H  H76  1  0.74022000  0.15215000  0.90997000  1
  H  H77  1  0.25978000  0.90997000  0.84785000  1
  H  H78  1  0.71485000  0.95146000  0.19937000  1
  H  H79  1  0.16478000  0.18531000  0.86656000  1
  H  H80  1  0.81030000  0.24204000  0.08198000  1
  H  H81  1  0.25978000  0.15215000  0.90997000  1
  H  H82  1  0.18970000  0.24204000  0.08198000  1
  H  H83  1  0.24830000  0.75304000  0.81406000  1
  H  H84  1  0.93384000  0.40729000  0.34836000  1
  H  H85  1  0.16478000  0.13344000  0.18531000  1
  H  H86  1  0.93384000  0.84837000  0.90729000  1
  H  H87  1  0.24830000  0.25303000  0.68594000  1
  H  H88  1  0.28515000  0.95146000  0.19937000  1
  H  H89  1  0.75170000  0.31406000  0.25303000  1
  H  H90  1  0.83522000  0.81469000  0.13344000  1
  H  H91  1  0.94826000  0.72013000  0.77987000  1
  H  H92  1  0.81030000  0.75796000  0.91802000  1
  H  H93  1  0.25978000  0.59003000  0.34785000  1
  H  H94  1  0.25978000  0.84785000  0.09003000  1
  H  H95  1  0.06616000  0.15164000  0.09271000  1
  H  H96  1  0.83522000  0.13344000  0.18531000  1
  H  H97  1  0.74022000  0.34785000  0.40997000  1
  H  H98  1  0.28515000  0.30063000  0.54854000  1
  H  H99  1  0.83522000  0.18531000  0.86656000  1
  H  H100  1  0.93384000  0.15164000  0.09271000  1
  H  H101  1  0.94826000  0.27987000  0.22013000  1
  H  H102  1  0.16478000  0.31469000  0.36656000  1
  H  H103  1  0.81030000  0.74204000  0.41802000  1
  H  H104  1  0.75170000  0.25303000  0.68594000  1
  H  H105  1  0.25978000  0.09003000  0.15215000  1
  H  H106  1  0.71485000  0.45146000  0.30063000  1
  H  H107  1  0.81030000  0.08198000  0.75796000  1
  H  H108  1  0.83522000  0.86656000  0.81469000  1
  H  H109  1  0.16478000  0.63344000  0.31469000  1
  H  H110  1  0.24830000  0.18594000  0.75304000  1
  H  H111  1  0.18970000  0.91802000  0.24204000  1
  H  H112  1  0.75170000  0.68594000  0.74697000  1
  H  H113  1  0.18970000  0.25796000  0.58198000  1
  H  H114  1  0.06616000  0.34836000  0.59271000  1
  H  H115  1  0.18970000  0.41802000  0.25796000  1
  H  H116  1  0.16478000  0.36656000  0.68531000  1
  H  H117  1  0.25978000  0.40997000  0.65215000  1
  H  H118  1  0.06616000  0.40729000  0.34836000  1
  H  H119  1  0.24830000  0.31406000  0.25303000  1
  H  H120  1  0.83522000  0.31469000  0.36656000  1
  H  H121  1  0.05174000  0.22013000  0.72013000  1
  H  H122  1  0.06616000  0.09271000  0.84837000  1
  H  H123  1  0.93384000  0.09271000  0.84837000  1
  H  H124  1  0.24830000  0.68594000  0.74697000  1
  H  H125  1  0.81030000  0.41802000  0.25796000  1
  H  H126  1  0.06616000  0.65164000  0.40729000  1
  H  H127  1  0.74022000  0.40997000  0.65215000  1
  C  C128  1  0.19140000  0.35245000  0.65533000  1
  C  C129  1  0.05308000  0.20730000  0.14899000  1
  C  C130  1  0.24477000  0.13686000  0.87649000  1
  C  C131  1  0.25896000  0.57862000  0.68478000  1
  C  C132  1  0.27985000  0.14213000  0.09865000  1
  C  C133  1  0.80859000  0.65533000  0.64755000  1
  C  C134  1  0.88147000  0.71804000  0.34069000  1
  C  C135  1  0.88147000  0.21804000  0.15931000  1
  C  C136  1  0.11853000  0.34069000  0.28196000  1
  C  C137  1  0.17167000  0.86394000  0.19068000  1
  C  C138  1  0.03323000  0.67242000  0.38591000  1
  C  C139  1  0.86001000  0.24801000  0.69164000  1
  C  C140  1  0.96677000  0.88591000  0.17242000  1
  C  C141  1  0.33822000  0.41864000  0.38198000  1
  C  C142  1  0.33822000  0.88198000  0.91864000  1
  C  C143  1  0.05308000  0.79270000  0.85102000  1
  C  C144  1  0.17167000  0.80932000  0.86394000  1
  C  C145  1  0.05308000  0.14899000  0.79270000  1
  C  C146  1  0.25896000  0.68478000  0.42138000  1
  C  C147  1  0.66178000  0.91864000  0.11802000  1
  C  C148  1  0.96677000  0.67242000  0.38591000  1
  C  C149  1  0.20649000  0.29748000  0.23672000  1
  C  C150  1  0.03323000  0.88591000  0.17242000  1
  C  C151  1  0.80859000  0.34467000  0.35245000  1
  C  C152  1  0.24477000  0.63686000  0.62351000  1
  C  C153  1  0.66178000  0.11802000  0.08136000  1
  C  C154  1  0.80859000  0.35245000  0.65533000  1
  C  C155  1  0.20543000  0.29125000  0.59716000  1
  C  C156  1  0.11853000  0.65931000  0.71804000  1
  C  C157  1  0.74104000  0.92138000  0.18478000  1
  C  C158  1  0.79350000  0.23672000  0.70252000  1
  C  C159  1  0.72015000  0.09865000  0.85787000  1
  C  C160  1  0.33822000  0.08136000  0.88198000  1
  C  C161  1  0.66178000  0.38198000  0.58136000  1
  C  C162  1  0.13998000  0.24801000  0.69164000  1
  C  C163  1  0.13998000  0.80836000  0.25199000  1
  C  C164  1  0.79457000  0.90284000  0.20875000  1
  C  C165  1  0.80859000  0.14755000  0.15533000  1
  C  C166  1  0.82832000  0.30932000  0.63606000  1
  C  C167  1  0.03323000  0.82758000  0.88591000  1
  C  C168  1  0.27985000  0.35787000  0.59865000  1
  C  C169  1  0.20649000  0.20252000  0.73672000  1
  C  C170  1  0.94692000  0.14899000  0.79270000  1
  C  C171  1  0.17167000  0.63606000  0.69068000  1
  C  C172  1  0.19140000  0.34467000  0.35245000  1
  C  C173  1  0.33822000  0.58136000  0.61802000  1
  C  C174  1  0.88147000  0.65931000  0.71804000  1
  C  C175  1  0.74104000  0.57862000  0.68478000  1
  C  C176  1  0.20649000  0.73672000  0.79748000  1
  C  C177  1  0.80859000  0.64755000  0.34467000  1
  C  C178  1  0.75523000  0.62351000  0.36314000  1
  C  C179  1  0.25896000  0.92138000  0.18478000  1
  C  C180  1  0.13998000  0.74801000  0.80836000  1
  C  C181  1  0.86001000  0.80836000  0.25199000  1
  C  C182  1  0.11853000  0.28196000  0.65931000  1
  C  C183  1  0.82832000  0.36394000  0.30932000  1
  C  C184  1  0.20543000  0.59716000  0.70875000  1
  C  C185  1  0.03323000  0.17242000  0.11409000  1
  C  C186  1  0.03323000  0.61409000  0.67242000  1
  C  C187  1  0.96677000  0.82758000  0.88591000  1
  C  C188  1  0.79457000  0.20875000  0.09716000  1
  C  C189  1  0.75523000  0.37649000  0.63686000  1
  C  C190  1  0.27985000  0.09865000  0.85787000  1
  C  C191  1  0.24477000  0.12351000  0.13686000  1
  C  C192  1  0.74104000  0.68478000  0.42138000  1
  C  C193  1  0.03323000  0.11409000  0.82758000  1
  C  C194  1  0.94692000  0.85102000  0.20730000  1
  C  C195  1  0.79457000  0.59716000  0.70875000  1
  C  C196  1  0.33822000  0.91864000  0.11802000  1
  C  C197  1  0.79457000  0.79125000  0.90284000  1
  C  C198  1  0.94692000  0.64899000  0.70730000  1
  C  C199  1  0.03323000  0.32758000  0.61409000  1
  C  C200  1  0.96677000  0.11409000  0.82758000  1
  C  C201  1  0.96677000  0.61409000  0.67242000  1
  C  C202  1  0.20543000  0.20875000  0.09716000  1
  C  C203  1  0.79457000  0.09716000  0.79125000  1
  C  C204  1  0.75523000  0.87649000  0.86315000  1
  C  C205  1  0.66178000  0.58136000  0.61802000  1
  C  C206  1  0.72015000  0.85787000  0.90135000  1
  C  C207  1  0.79457000  0.29125000  0.59716000  1
  C  C208  1  0.19140000  0.85245000  0.84467000  1
  C  C209  1  0.13998000  0.30836000  0.24801000  1
  C  C210  1  0.13998000  0.69164000  0.75199000  1
  C  C211  1  0.66178000  0.61802000  0.41864000  1
  C  C212  1  0.79350000  0.70252000  0.76328000  1
  C  C213  1  0.74104000  0.18478000  0.07862000  1
  C  C214  1  0.82832000  0.86394000  0.19068000  1
  C  C215  1  0.82832000  0.63606000  0.69068000  1
  C  C216  1  0.86001000  0.69164000  0.75199000  1
  C  C217  1  0.74104000  0.81522000  0.92138000  1
  C  C218  1  0.96677000  0.17242000  0.11409000  1
  C  C219  1  0.88147000  0.78196000  0.84070000  1
  C  C220  1  0.82832000  0.19068000  0.13606000  1
  C  C221  1  0.72015000  0.14213000  0.09865000  1
  C  C222  1  0.86001000  0.30836000  0.24801000  1
  C  C223  1  0.17167000  0.69068000  0.36394000  1
  C  C224  1  0.27985000  0.64213000  0.40135000  1
  C  C225  1  0.24477000  0.87649000  0.86315000  1
  C  C226  1  0.88147000  0.15931000  0.78196000  1
  C  C227  1  0.17167000  0.30932000  0.63606000  1
  C  C228  1  0.13998000  0.75199000  0.30836000  1
  C  C229  1  0.72015000  0.35787000  0.59865000  1
  C  C230  1  0.33822000  0.38198000  0.58136000  1
  C  C231  1  0.94692000  0.79270000  0.85102000  1
  C  C232  1  0.79350000  0.29748000  0.23672000  1
  C  C233  1  0.17167000  0.19068000  0.13606000  1
  C  C234  1  0.80859000  0.84467000  0.14755000  1
  C  C235  1  0.05308000  0.64899000  0.70730000  1
  C  C236  1  0.82832000  0.13606000  0.80932000  1
  C  C237  1  0.11853000  0.71804000  0.34069000  1
  C  C238  1  0.74104000  0.42138000  0.31522000  1
  C  C239  1  0.72015000  0.40135000  0.35787000  1
  C  C240  1  0.96677000  0.32758000  0.61409000  1
  C  C241  1  0.20649000  0.79748000  0.26328000  1
  C  C242  1  0.74104000  0.07862000  0.81522000  1
  C  C243  1  0.05308000  0.70730000  0.35101000  1
  C  C244  1  0.20649000  0.76328000  0.29748000  1
  C  C245  1  0.20543000  0.90284000  0.20875000  1
  C  C246  1  0.79350000  0.76328000  0.29748000  1
  C  C247  1  0.20649000  0.23672000  0.70252000  1
  C  C248  1  0.25896000  0.31522000  0.57862000  1
  C  C249  1  0.24477000  0.86315000  0.12351000  1
  C  C250  1  0.24477000  0.37649000  0.63686000  1
  C  C251  1  0.94692000  0.20730000  0.14899000  1
  C  C252  1  0.74104000  0.31522000  0.57862000  1
  C  C253  1  0.79457000  0.70875000  0.40284000  1
  C  C254  1  0.86001000  0.19164000  0.74801000  1
  C  C255  1  0.88147000  0.34069000  0.28196000  1
  C  C256  1  0.33822000  0.11802000  0.08136000  1
  C  C257  1  0.11853000  0.21804000  0.15931000  1
  C  C258  1  0.94692000  0.35101000  0.29270000  1
  C  C259  1  0.72015000  0.64213000  0.40135000  1
  C  C260  1  0.72015000  0.90135000  0.14213000  1
  C  C261  1  0.24477000  0.62351000  0.36314000  1
  C  C262  1  0.25896000  0.07862000  0.81522000  1
  C  C263  1  0.24477000  0.36314000  0.37649000  1
  C  C264  1  0.66178000  0.88198000  0.91864000  1
  C  C265  1  0.79350000  0.20252000  0.73672000  1
  C  C266  1  0.96677000  0.38591000  0.32758000  1
  C  C267  1  0.75523000  0.13686000  0.87649000  1
  C  C268  1  0.20543000  0.40284000  0.29125000  1
  C  C269  1  0.27985000  0.40135000  0.35787000  1
  C  C270  1  0.05308000  0.85102000  0.20730000  1
  C  C271  1  0.11853000  0.15931000  0.78196000  1
  C  C272  1  0.86001000  0.25199000  0.19164000  1
  C  C273  1  0.13998000  0.25199000  0.19164000  1
  C  C274  1  0.79350000  0.73672000  0.79748000  1
  C  C275  1  0.79350000  0.79748000  0.26328000  1
  C  C276  1  0.03323000  0.38591000  0.32758000  1
  C  C277  1  0.27985000  0.90135000  0.14213000  1
  C  C278  1  0.25896000  0.81522000  0.92138000  1
  C  C279  1  0.79457000  0.40284000  0.29125000  1
  C  C280  1  0.20649000  0.26328000  0.20252000  1
  C  C281  1  0.82832000  0.69068000  0.36394000  1
  C  C282  1  0.94692000  0.29270000  0.64899000  1
  C  C283  1  0.27985000  0.59865000  0.64213000  1
  C  C284  1  0.11853000  0.84070000  0.21804000  1
  C  C285  1  0.86001000  0.75199000  0.30836000  1
  C  C286  1  0.79350000  0.26328000  0.20252000  1
  C  C287  1  0.20543000  0.70875000  0.40284000  1
  C  C288  1  0.20543000  0.79125000  0.90284000  1
  C  C289  1  0.19140000  0.84467000  0.14755000  1
  C  C290  1  0.05308000  0.35101000  0.29270000  1
  C  C291  1  0.20543000  0.09716000  0.79125000  1
  C  C292  1  0.80859000  0.15533000  0.85245000  1
  C  C293  1  0.75523000  0.86315000  0.12351000  1
  C  C294  1  0.82832000  0.80932000  0.86394000  1
  C  C295  1  0.75523000  0.63686000  0.62351000  1
  C  C296  1  0.20649000  0.70252000  0.76328000  1
  C  C297  1  0.13998000  0.19164000  0.74801000  1
  C  C298  1  0.75523000  0.12351000  0.13686000  1
  C  C299  1  0.19140000  0.64755000  0.34467000  1
  C  C300  1  0.86001000  0.74801000  0.80836000  1
  C  C301  1  0.66178000  0.08136000  0.88198000  1
  C  C302  1  0.80859000  0.85245000  0.84467000  1
  C  C303  1  0.05308000  0.29270000  0.64899000  1
  C  C304  1  0.75523000  0.36314000  0.37649000  1
  C  C305  1  0.88147000  0.84070000  0.21804000  1
  C  C306  1  0.17167000  0.13606000  0.80932000  1
  C  C307  1  0.17167000  0.36394000  0.30932000  1
  C  C308  1  0.66178000  0.41864000  0.38198000  1
  C  C309  1  0.27985000  0.85787000  0.90135000  1
  C  C310  1  0.72015000  0.59865000  0.64213000  1
  C  C311  1  0.19140000  0.65533000  0.64755000  1
  C  C312  1  0.25896000  0.42138000  0.31522000  1
  C  C313  1  0.33822000  0.61802000  0.41864000  1
  C  C314  1  0.94692000  0.70730000  0.35101000  1
  C  C315  1  0.11853000  0.78196000  0.84070000  1
  C  C316  1  0.88147000  0.28196000  0.65931000  1
  C  C317  1  0.25896000  0.18478000  0.07862000  1
  C  C318  1  0.19140000  0.14755000  0.15533000  1
  C  C319  1  0.19140000  0.15533000  0.85245000  1
  N  N320  1  0.57884000  0.09953000  0.03984000  1
  N  N321  1  0.37016000  0.37138000  0.54107000  1
  N  N322  1  0.63095000  0.58280000  0.39553000  1
  N  N323  1  0.57884000  0.96016000  0.09953000  1
  N  N324  1  0.10150000  0.71966000  0.78034000  1
  N  N325  1  0.57950000  0.57203000  0.42215000  1
  N  N326  1  0.57950000  0.07203000  0.07785000  1
  N  N327  1  0.36904000  0.91721000  0.89553000  1
  N  N328  1  0.42116000  0.40047000  0.53984000  1
  N  N329  1  0.00000000  0.16970000  0.77183000  1
  N  N330  1  0.62984000  0.37138000  0.54107000  1
  N  N331  1  0.00000000  0.66970000  0.72817000  1
  N  N332  1  0.36904000  0.10447000  0.91721000  1
  N  N333  1  0.63095000  0.10447000  0.91721000  1
  N  N334  1  0.42050000  0.57785000  0.57203000  1
  N  N335  1  0.89850000  0.21966000  0.71966000  1
  N  N336  1  0.62984000  0.04106000  0.87138000  1
  N  N337  1  0.37016000  0.87138000  0.95894000  1
  N  N338  1  0.62984000  0.54107000  0.62862000  1
  N  N339  1  0.37016000  0.95894000  0.12862000  1
  N  N340  1  0.42116000  0.03984000  0.90047000  1
  N  N341  1  0.63095000  0.41720000  0.60447000  1
  N  N342  1  0.62984000  0.45894000  0.37138000  1
  N  N343  1  0.36904000  0.08280000  0.10447000  1
  N  N344  1  0.00000000  0.77183000  0.83030000  1
  N  N345  1  0.42116000  0.09953000  0.03984000  1
  N  N346  1  0.36904000  0.41720000  0.60447000  1
  N  N347  1  0.57950000  0.42215000  0.42797000  1
  N  N348  1  0.57884000  0.40047000  0.53984000  1
  N  N349  1  0.42050000  0.07203000  0.07785000  1
  N  N350  1  0.62984000  0.12862000  0.04106000  1
  N  N351  1  0.63095000  0.89553000  0.08280000  1
  N  N352  1  0.57884000  0.59953000  0.46016000  1
  N  N353  1  0.00000000  0.22817000  0.16970000  1
  N  N354  1  0.57884000  0.90047000  0.96016000  1
  N  N355  1  0.57950000  0.57785000  0.57203000  1
  N  N356  1  0.42050000  0.92797000  0.92215000  1
  N  N357  1  0.57884000  0.53984000  0.59953000  1
  N  N358  1  0.63095000  0.08280000  0.10447000  1
  N  N359  1  0.37016000  0.62862000  0.45894000  1
  N  N360  1  0.00000000  0.33030000  0.27183000  1
  N  N361  1  0.10150000  0.28034000  0.21966000  1
  N  N362  1  0.36904000  0.58280000  0.39553000  1
  N  N363  1  0.63095000  0.91721000  0.89553000  1
  N  N364  1  0.42050000  0.42215000  0.42797000  1
  N  N365  1  0.42116000  0.59953000  0.46016000  1
  N  N366  1  0.36904000  0.89553000  0.08280000  1
  N  N367  1  0.57950000  0.07785000  0.92797000  1
  N  N368  1  0.57950000  0.42797000  0.57785000  1
  N  N369  1  0.57884000  0.46016000  0.40047000  1
  N  N370  1  0.42116000  0.53984000  0.59953000  1
  N  N371  1  0.37016000  0.04106000  0.87138000  1
  N  N372  1  0.63095000  0.39553000  0.41720000  1
  N  N373  1  0.37016000  0.54107000  0.62862000  1
  N  N374  1  0.10150000  0.78034000  0.28034000  1
  N  N375  1  0.42116000  0.96016000  0.09953000  1
  N  N376  1  0.63095000  0.60447000  0.58280000  1
  N  N377  1  0.36904000  0.60447000  0.58280000  1
  N  N378  1  0.89850000  0.78034000  0.28034000  1
  N  N379  1  0.62984000  0.95894000  0.12862000  1
  N  N380  1  0.37016000  0.45894000  0.37138000  1
  N  N381  1  0.00000000  0.72817000  0.33030000  1
  N  N382  1  0.42050000  0.92215000  0.07203000  1
  N  N383  1  0.10150000  0.21966000  0.71966000  1
  N  N384  1  0.42116000  0.90047000  0.96016000  1
  N  N385  1  0.42050000  0.57203000  0.42215000  1
  N  N386  1  0.42050000  0.07785000  0.92797000  1
  N  N387  1  0.37016000  0.12862000  0.04106000  1
  N  N388  1  0.42116000  0.46016000  0.40047000  1
  N  N389  1  0.00000000  0.83030000  0.22817000  1
  N  N390  1  0.42050000  0.42797000  0.57785000  1
  N  N391  1  0.57950000  0.92797000  0.92215000  1
  N  N392  1  0.57950000  0.92215000  0.07203000  1
  N  N393  1  0.36904000  0.39553000  0.41720000  1
  N  N394  1  0.62984000  0.62862000  0.45894000  1
  N  N395  1  0.89850000  0.71966000  0.78034000  1
  N  N396  1  0.89850000  0.28034000  0.21966000  1
  N  N397  1  0.57884000  0.03984000  0.90047000  1
  N  N398  1  0.62984000  0.87138000  0.95894000  1
  N  N399  1  0.00000000  0.27183000  0.66970000  1
  Cl  Cl400  1  0.50000000  0.19425000  0.96502000  1
  Cl  Cl401  1  0.50000000  0.96502000  0.80575000  1
  Cl  Cl402  1  0.50000000  0.69425000  0.53499000  1
  Cl  Cl403  1  0.50000000  0.03499000  0.19425000  1
  Cl  Cl404  1  0.50000000  0.53499000  0.30575000  1
  Cl  Cl405  1  0.50000000  0.30575000  0.46502000  1
  Cl  Cl406  1  0.50000000  0.46502000  0.69425000  1
  Cl  Cl407  1  0.50000000  0.80575000  0.03499000  1
