# generated using pymatgen
data_H35(C29N3)2
_symmetry_space_group_name_H-M   'P 1'
_cell_length_a   25.83650000
_cell_length_b   42.55910000
_cell_length_c   47.24370000
_cell_angle_alpha   91.04500000
_cell_angle_beta   90.00000000
_cell_angle_gamma   90.00000000
_symmetry_Int_Tables_number   1
_chemical_formula_structural   H35(C29N3)2
_chemical_formula_sum   'H140 C232 N24'
_cell_volume   51939.50196926
_cell_formula_units_Z   4
loop_
 _symmetry_equiv_pos_site_id
 _symmetry_equiv_pos_as_xyz
  1  'x, y, z'
loop_
 _atom_site_type_symbol
 _atom_site_label
 _atom_site_symmetry_multiplicity
 _atom_site_fract_x
 _atom_site_fract_y
 _atom_site_fract_z
 _atom_site_occupancy
  H  9  1  0.97732700  0.00497300  0.09979600  1
  H  17  1  0.97808400  0.02079900  0.90740500  1
  H  19  1  0.98792800  0.93656500  0.97218400  1
  H  20  1  0.98888600  0.93233000  0.02154600  1
  H  21  1  0.98841500  0.09348700  0.98567000  1
  H  22  1  0.98701900  0.08925000  0.03502400  1
  H  27  1  0.93696500  0.06824200  0.08746800  1
  H  28  1  0.94983800  0.08972500  0.93928900  1
  H  29  1  0.93784700  0.95762900  0.91962100  1
  H  30  1  0.94971800  0.93605300  0.06782100  1
  H  39  1  0.47811900  0.50886200  0.59961600  1
  H  47  1  0.47751500  0.52453500  0.40720700  1
  H  49  1  0.48733900  0.44031800  0.47203700  1
  H  50  1  0.48869700  0.43612100  0.52139500  1
  H  51  1  0.48890600  0.59724600  0.48541300  1
  H  52  1  0.48790800  0.59305300  0.53477500  1
  H  57  1  0.43783900  0.57203700  0.58734600  1
  H  58  1  0.44973300  0.59344800  0.43912600  1
  H  59  1  0.43720400  0.46121200  0.41966000  1
  H  60  1  0.44999600  0.43990200  0.56772100  1
  H  79  1  0.21936900  0.24261400  0.19467500  1
  H  80  1  0.13696300  0.22515200  0.17829300  1
  H  81  1  0.16085200  0.25110200  0.27772800  1
  H  82  1  0.94490500  0.12361200  0.17476000  1
  H  83  1  0.06699200  0.16819500  0.13147000  1
  H  84  1  0.06953900  0.12539000  0.09795500  1
  H  85  1  0.94684500  0.08145500  0.14079000  1
  H  86  1  0.86826300  0.17859800  0.21835800  1
  H  87  1  0.83942400  0.28970200  0.23617900  1
  H  88  1  0.92320200  0.27215900  0.22104000  1
  H  89  1  0.78443600  0.19653800  0.23190500  1
  H  96  1  0.08485100  0.17855600  0.18229600  1
  H  97  1  0.92325000  0.18030100  0.17780700  1
  H  98  1  0.00110100  0.24268700  0.23301700  1
  H  99  1  0.07849100  0.23205100  0.26172400  1
  H  121  1  0.21031200  0.77223200  0.80249000  1
  H  122  1  0.13015500  0.78995600  0.82277600  1
  H  123  1  0.15698500  0.79623500  0.72129900  1
  H  124  1  0.94647900  0.90462300  0.83115800  1
  H  125  1  0.06483300  0.85718700  0.87503400  1
  H  126  1  0.06823100  0.89943900  0.90914000  1
  H  127  1  0.94921400  0.94616700  0.86567600  1
  H  128  1  0.87721100  0.85146900  0.77497100  1
  H  129  1  0.83464900  0.74035100  0.77357300  1
  H  130  1  0.91624100  0.75741700  0.79263300  1
  H  131  1  0.79600600  0.83424500  0.75574200  1
  H  138  1  0.08435500  0.84712100  0.82413000  1
  H  139  1  0.92160900  0.84882500  0.82638200  1
  H  140  1  0.99872900  0.78722100  0.77016300  1
  H  141  1  0.07663000  0.81376200  0.74141400  1
  H  163  1  0.21746100  0.19821000  0.77097400  1
  H  164  1  0.13478400  0.18050800  0.78612900  1
  H  165  1  0.16106400  0.29096400  0.76758100  1
  H  166  1  0.94584200  0.17591700  0.87862900  1
  H  167  1  0.05927800  0.12642100  0.83130100  1
  H  168  1  0.05908900  0.08588600  0.86559700  1
  H  169  1  0.94512700  0.13519300  0.91252700  1
  H  170  1  0.86677400  0.22692500  0.83047400  1
  H  171  1  0.83893600  0.24740600  0.73107600  1
  H  172  1  0.92239100  0.23024400  0.74644700  1
  H  173  1  0.78320800  0.24238400  0.81468300  1
  H  180  1  0.08279200  0.18398600  0.82797100  1
  H  181  1  0.92104600  0.18143500  0.82710000  1
  H  182  1  0.00026900  0.24295700  0.77368400  1
  H  183  1  0.07849500  0.27369300  0.78426700  1
  H  205  1  0.21630400  0.81341700  0.23690700  1
  H  206  1  0.13980000  0.83657200  0.21796600  1
  H  207  1  0.14195600  0.72524700  0.23852300  1
  H  208  1  0.93972000  0.85250500  0.13112800  1
  H  209  1  0.06507300  0.89673600  0.17323600  1
  H  210  1  0.06477800  0.93726300  0.13890500  1
  H  211  1  0.93895000  0.89322500  0.09724000  1
  H  212  1  0.86069500  0.80296800  0.18564500  1
  H  213  1  0.85663900  0.78377300  0.28658800  1
  H  214  1  0.93380300  0.80368500  0.26575600  1
  H  215  1  0.78280900  0.78437700  0.20697800  1
  H  222  1  0.08216100  0.83781500  0.17588500  1
  H  223  1  0.92112800  0.84872000  0.18385800  1
  H  224  1  0.99959500  0.78382200  0.23403500  1
  H  225  1  0.06613700  0.74782600  0.21838100  1
  H  247  1  0.71029500  0.75737500  0.70455300  1
  H  248  1  0.63014100  0.73964600  0.68426500  1
  H  249  1  0.65698700  0.73333400  0.78574100  1
  H  250  1  0.44648600  0.62496700  0.67585300  1
  H  251  1  0.56484500  0.67241300  0.63199000  1
  H  252  1  0.56824000  0.63017300  0.59787100  1
  H  253  1  0.44921400  0.58343500  0.64132100  1
  H  254  1  0.37720000  0.67810000  0.73204800  1
  H  255  1  0.33464800  0.78922100  0.73347100  1
  H  256  1  0.41624600  0.77215900  0.71441600  1
  H  257  1  0.29598600  0.69531900  0.75127100  1
  H  264  1  0.58436000  0.68246600  0.68290000  1
  H  265  1  0.42161000  0.68076000  0.68065000  1
  H  266  1  0.49873700  0.74234400  0.73688600  1
  H  267  1  0.57663500  0.71580000  0.76562200  1
  H  289  1  0.71936000  0.28689800  0.31232700  1
  H  290  1  0.63695000  0.30435900  0.32870900  1
  H  291  1  0.66086000  0.27845200  0.22926700  1
  H  292  1  0.44489500  0.40591100  0.33229300  1
  H  293  1  0.56708600  0.36133900  0.37551000  1
  H  294  1  0.56973000  0.40416200  0.40900300  1
  H  295  1  0.44692300  0.44808300  0.36624800  1
  H  296  1  0.36824400  0.35093500  0.28868000  1
  H  297  1  0.33943600  0.23983800  0.27080400  1
  H  298  1  0.42321200  0.25738200  0.28594500  1
  H  299  1  0.28441700  0.33299300  0.27513200  1
  H  306  1  0.58486700  0.35097100  0.32470400  1
  H  307  1  0.42326300  0.34923200  0.32921200  1
  H  308  1  0.50109400  0.28685100  0.27398500  1
  H  309  1  0.57849600  0.29750000  0.24527100  1
  H  331  1  0.71629200  0.71611900  0.27005000  1
  H  332  1  0.63980300  0.69295900  0.28899700  1
  H  333  1  0.64193700  0.80428200  0.26844600  1
  H  334  1  0.43974700  0.67700500  0.37584500  1
  H  335  1  0.56508500  0.63277900  0.33371600  1
  H  336  1  0.56481400  0.59225400  0.36804700  1
  H  337  1  0.43900800  0.63629000  0.40973500  1
  H  338  1  0.36069200  0.72656300  0.32132000  1
  H  339  1  0.35665900  0.74576300  0.22038000  1
  H  340  1  0.43381400  0.72583700  0.24121100  1
  H  341  1  0.28283000  0.74516600  0.29998900  1
  H  348  1  0.58216600  0.69170000  0.33108100  1
  H  349  1  0.42113000  0.68079100  0.32310000  1
  H  350  1  0.49959300  0.74570200  0.27293800  1
  H  351  1  0.56613000  0.78170300  0.28859600  1
  H  373  1  0.71748800  0.33112900  0.73588700  1
  H  374  1  0.63483300  0.34885800  0.72073500  1
  H  375  1  0.66104100  0.23838100  0.73922100  1
  H  376  1  0.44566900  0.35376000  0.62839700  1
  H  377  1  0.55949600  0.40302200  0.67563600  1
  H  378  1  0.55933400  0.44360100  0.64138400  1
  H  379  1  0.44496800  0.39453200  0.59455200  1
  H  380  1  0.36668000  0.30275200  0.67642100  1
  H  381  1  0.33906000  0.28164800  0.77571900  1
  H  382  1  0.42248900  0.29887700  0.76038100  1
  H  383  1  0.28313600  0.28724200  0.69218900  1
  H  390  1  0.58280800  0.34546200  0.67891900  1
  H  391  1  0.42107200  0.34811800  0.67988800  1
  H  392  1  0.50029300  0.28639100  0.73311400  1
  H  393  1  0.57849600  0.25567800  0.72253000  1
  C  1  1  0.98763300  0.01160000  0.01872000  1
  C  2  1  0.98682600  0.98138800  0.03146100  1
  C  3  1  0.98426600  0.97888300  0.06148800  1
  C  4  1  0.98201100  0.00663900  0.07827000  1
  C  5  1  0.98308000  0.03663200  0.06617200  1
  C  6  1  0.98617000  0.03925500  0.03626600  1
  C  7  1  0.98816200  0.95445400  0.01348000  1
  C  8  1  0.98709900  0.06886100  0.02321500  1
  C  10  1  0.98776700  0.01421900  0.98849300  1
  C  11  1  0.98669100  0.98655800  0.97094800  1
  C  12  1  0.98391300  0.98915000  0.94103300  1
  C  13  1  0.98262400  0.01914900  0.92894300  1
  C  14  1  0.98449600  0.04692900  0.94570800  1
  C  15  1  0.98683200  0.04442600  0.97574500  1
  C  16  1  0.98772200  0.95695200  0.98399800  1
  C  18  1  0.98780500  0.07136100  0.99373300  1
  C  23  1  0.97362100  0.06196700  0.08416400  1
  C  24  1  0.97735300  0.07536700  0.93213100  1
  C  25  1  0.97451600  0.96383000  0.92301700  1
  C  26  1  0.97713400  0.95044200  0.07504100  1
  C  31  1  0.48789200  0.51538600  0.51852100  1
  C  32  1  0.48699800  0.48518800  0.53128800  1
  C  33  1  0.48464900  0.48270400  0.56132500  1
  C  34  1  0.48262800  0.51049300  0.57807400  1
  C  35  1  0.48386300  0.54047500  0.56595700  1
  C  36  1  0.48674600  0.54306000  0.53604700  1
  C  37  1  0.48804700  0.45823900  0.51331900  1
  C  38  1  0.48775700  0.57265500  0.52297600  1
  C  40  1  0.48778000  0.51797800  0.48829100  1
  C  41  1  0.48637900  0.49030900  0.47076300  1
  C  42  1  0.48334400  0.49289800  0.44085200  1
  C  43  1  0.48212900  0.52288300  0.42874000  1
  C  44  1  0.48434300  0.55065400  0.44549900  1
  C  45  1  0.48693600  0.54817900  0.47553000  1
  C  46  1  0.48735800  0.46071400  0.48383400  1
  C  48  1  0.48824800  0.57512900  0.49349300  1
  C  53  1  0.47450000  0.56582600  0.58394700  1
  C  54  1  0.47722100  0.57908900  0.43193900  1
  C  55  1  0.47385800  0.46755800  0.42287200  1
  C  56  1  0.47743000  0.45428900  0.57492600  1
  C  61  1  0.00536600  0.15048000  0.15646200  1
  C  62  1  0.09890400  0.22644700  0.21831200  1
  C  63  1  0.90481000  0.22349000  0.21796900  1
  C  64  1  0.10727600  0.23488700  0.24712800  1
  C  65  1  0.15585900  0.24592700  0.25667700  1
  C  66  1  0.19784200  0.24870500  0.23767900  1
  C  67  1  0.18979100  0.24068900  0.20897000  1
  C  68  1  0.14109700  0.23019000  0.19943100  1
  C  69  1  0.04154800  0.15001900  0.13389100  1
  C  70  1  0.04295300  0.12497000  0.11401000  1
  C  71  1  0.00759200  0.09987500  0.11579900  1
  C  72  1  0.97184000  0.09987000  0.13844100  1
  C  73  1  0.97070800  0.12480600  0.15838100  1
  C  74  1  0.86311600  0.20221500  0.22166300  1
  C  75  1  0.81357500  0.21264800  0.22985600  1
  C  76  1  0.80418900  0.24472400  0.23556900  1
  C  77  1  0.84549200  0.26619900  0.23266400  1
  C  78  1  0.89490400  0.25572300  0.22393200  1
  C  90  1  0.95431500  0.21254000  0.20783000  1
  C  91  1  0.95685700  0.18846000  0.18675200  1
  C  92  1  0.00421700  0.17571300  0.17695100  1
  C  93  1  0.05037600  0.18846000  0.18832900  1
  C  94  1  0.05053100  0.21359800  0.20841400  1
  C  95  1  0.00188300  0.22496500  0.21811200  1
  C  103  1  0.00488300  0.87634200  0.84972400  1
  C  104  1  0.09537100  0.80324600  0.78402200  1
  C  105  1  0.90447100  0.80612700  0.78585600  1
  C  106  1  0.10411400  0.80457800  0.75449700  1
  C  107  1  0.15143100  0.79451100  0.74267100  1
  C  108  1  0.19067400  0.78210200  0.75993400  1
  C  109  1  0.18205800  0.78054400  0.78943200  1
  C  110  1  0.13514800  0.79121800  0.80133100  1
  C  111  1  0.04030100  0.87582300  0.87263500  1
  C  112  1  0.04220600  0.90054100  0.89285400  1
  C  113  1  0.00813000  0.92628300  0.89102900  1
  C  114  1  0.97320900  0.92727000  0.86804300  1
  C  115  1  0.97157900  0.90267200  0.84778800  1
  C  116  1  0.86849600  0.82801100  0.77517400  1
  C  117  1  0.82093000  0.81791700  0.76369500  1
  C  118  1  0.80746200  0.78581500  0.76333700  1
  C  119  1  0.84312000  0.76383500  0.77408600  1
  C  120  1  0.89120000  0.77386800  0.78500600  1
  C  132  1  0.95306500  0.81644800  0.79680500  1
  C  133  1  0.95548700  0.84014200  0.81813100  1
  C  134  1  0.00326500  0.85153700  0.82884400  1
  C  135  1  0.04934700  0.83835800  0.81756200  1
  C  136  1  0.04839500  0.81480100  0.79605900  1
  C  137  1  0.99991300  0.80404000  0.78594800  1
  C  145  1  0.00265700  0.15535900  0.85150400  1
  C  146  1  0.09773600  0.22525300  0.78709900  1
  C  147  1  0.90364900  0.22669000  0.79012200  1
  C  148  1  0.10682700  0.25726400  0.78088300  1
  C  149  1  0.15553000  0.26757900  0.77119900  1
  C  150  1  0.19695500  0.24616900  0.76759400  1
  C  151  1  0.18826200  0.21429200  0.77349100  1
  C  152  1  0.13941300  0.20399500  0.78264100  1
  C  153  1  0.03561800  0.12890900  0.84857200  1
  C  154  1  0.03536700  0.10492000  0.86868900  1
  C  155  1  0.00233200  0.10658200  0.89243600  1
  C  156  1  0.96965300  0.13308800  0.89564200  1
  C  157  1  0.96982400  0.15703300  0.87548000  1
  C  158  1  0.86183900  0.23080600  0.80933900  1
  C  159  1  0.81245600  0.24013500  0.80016000  1
  C  160  1  0.80332600  0.24666500  0.77147800  1
  C  161  1  0.84478100  0.24340300  0.75212200  1
  C  162  1  0.89401400  0.23347700  0.76131100  1
  C  174  1  0.95288800  0.21500700  0.79959900  1
  C  175  1  0.95486100  0.19117500  0.82013900  1
  C  176  1  0.00201500  0.17934500  0.83068100  1
  C  177  1  0.04849100  0.19161900  0.81970000  1
  C  178  1  0.04915300  0.21455800  0.79833200  1
  C  179  1  0.00071800  0.22611500  0.78884700  1
  C  187  1  0.00257600  0.87041800  0.15558300  1
  C  188  1  0.09512300  0.79456000  0.21599500  1
  C  189  1  0.90528000  0.80538700  0.22350500  1
  C  190  1  0.09736800  0.76209100  0.22211900  1
  C  191  1  0.14202900  0.74864200  0.23383600  1
  C  192  1  0.18633900  0.76710200  0.23906700  1
  C  193  1  0.18505000  0.79936600  0.23257000  1
  C  194  1  0.14002100  0.81287600  0.22126600  1
  C  195  1  0.03893500  0.89529300  0.15698600  1
  C  196  1  0.03861000  0.91928700  0.13687200  1
  C  197  1  0.00228500  0.91908800  0.11458200  1
  C  198  1  0.96620200  0.89411100  0.11289600  1
  C  199  1  0.96636000  0.87021300  0.13309400  1
  C  200  1  0.86010800  0.80004700  0.20709400  1
  C  201  1  0.81426400  0.78895500  0.21954900  1
  C  202  1  0.81242000  0.78280000  0.24882000  1
  C  203  1  0.85695300  0.78822900  0.26536100  1
  C  204  1  0.90244200  0.79974900  0.25295300  1
  C  216  1  0.95295600  0.81455400  0.21060100  1
  C  217  1  0.95465300  0.83754500  0.18936900  1
  C  218  1  0.00174000  0.84665400  0.17656300  1
  C  219  1  0.04800400  0.83200300  0.18545800  1
  C  220  1  0.04813500  0.80874700  0.20648300  1
  C  221  1  0.00015300  0.80047500  0.21868800  1
  C  229  1  0.50488700  0.65325300  0.65729300  1
  C  230  1  0.59537600  0.72632600  0.72301900  1
  C  231  1  0.40447500  0.72344500  0.72118700  1
  C  232  1  0.60411500  0.72499800  0.75254400  1
  C  233  1  0.65143600  0.73505900  0.76436800  1
  C  234  1  0.69068200  0.74746500  0.74710500  1
  C  235  1  0.68206500  0.74902500  0.71760700  1
  C  236  1  0.63514500  0.73836700  0.70570700  1
  C  237  1  0.54032200  0.65377200  0.63438600  1
  C  238  1  0.54221800  0.62906300  0.61416200  1
  C  239  1  0.50811500  0.60333300  0.61596800  1
  C  240  1  0.47320400  0.60233400  0.63895800  1
  C  241  1  0.47158200  0.62692500  0.65922300  1
  C  242  1  0.36850300  0.70156300  0.73187200  1
  C  243  1  0.32092300  0.71165000  0.74333300  1
  C  244  1  0.30745800  0.74375100  0.74369900  1
  C  245  1  0.34312400  0.76573600  0.73296500  1
  C  246  1  0.39120700  0.75570900  0.72204700  1
  C  258  1  0.45306900  0.71312800  0.71023300  1
  C  259  1  0.45548800  0.68944100  0.68890100  1
  C  260  1  0.50326600  0.67805800  0.67817800  1
  C  261  1  0.54934800  0.69124200  0.68945200  1
  C  262  1  0.54839900  0.71477500  0.71097800  1
  C  263  1  0.49992200  0.72553100  0.72109200  1
  C  271  1  0.50540600  0.37904900  0.35055300  1
  C  272  1  0.59889800  0.30307900  0.28868900  1
  C  273  1  0.40480800  0.30604900  0.28904100  1
  C  274  1  0.60728100  0.29466500  0.25987000  1
  C  275  1  0.65586300  0.28361800  0.25032000  1
  C  276  1  0.69783700  0.28082400  0.26932000  1
  C  277  1  0.68978800  0.28884000  0.29803100  1
  C  278  1  0.64109200  0.29933300  0.30757000  1
  C  279  1  0.54162600  0.37951000  0.37310500  1
  C  280  1  0.54308900  0.40457100  0.39297400  1
  C  281  1  0.50775900  0.42967900  0.39118700  1
  C  282  1  0.47193000  0.42967000  0.36858100  1
  C  283  1  0.47073800  0.40472100  0.34865500  1
  C  284  1  0.36310400  0.32732000  0.28536200  1
  C  285  1  0.31356500  0.31688500  0.27716600  1
  C  286  1  0.30419100  0.28481200  0.27143500  1
  C  287  1  0.34550500  0.26334100  0.27431800  1
  C  288  1  0.39490800  0.27381800  0.28306900  1
  C  300  1  0.45431600  0.31699800  0.29918000  1
  C  301  1  0.45686600  0.34107500  0.32026200  1
  C  302  1  0.50423300  0.35381900  0.33006000  1
  C  303  1  0.55038500  0.34107500  0.31866800  1
  C  304  1  0.55053200  0.31593600  0.29858900  1
  C  305  1  0.50188000  0.30457300  0.28889000  1
  C  313  1  0.50258100  0.65909000  0.35137300  1
  C  314  1  0.59512000  0.73496900  0.29098200  1
  C  315  1  0.40528000  0.72412600  0.28345900  1
  C  316  1  0.59735700  0.76743800  0.28485200  1
  C  317  1  0.64201800  0.78089000  0.27313700  1
  C  318  1  0.68632400  0.76243000  0.26789600  1
  C  319  1  0.68505400  0.73017000  0.27441200  1
  C  320  1  0.64003400  0.71666000  0.28573000  1
  C  321  1  0.53891300  0.63420100  0.34995100  1
  C  322  1  0.53863400  0.61022100  0.37007800  1
  C  323  1  0.50232900  0.61042300  0.39237800  1
  C  324  1  0.46623700  0.63539900  0.39406900  1
  C  325  1  0.46638400  0.65929700  0.37387100  1
  C  326  1  0.36009600  0.72944700  0.29986600  1
  C  327  1  0.31425800  0.74055100  0.28741200  1
  C  328  1  0.31243500  0.74673800  0.25814700  1
  C  329  1  0.35696500  0.74129600  0.24160400  1
  C  330  1  0.40244700  0.72976900  0.25401100  1
  C  342  1  0.45295300  0.71496500  0.29637100  1
  C  343  1  0.45465200  0.69197900  0.31760700  1
  C  344  1  0.50174100  0.68286100  0.33040200  1
  C  345  1  0.54800500  0.69751400  0.32151200  1
  C  346  1  0.54813600  0.72078000  0.30049200  1
  C  347  1  0.50015400  0.72904700  0.28828600  1
  C  355  1  0.50268500  0.37419200  0.65547300  1
  C  356  1  0.59775600  0.30411700  0.71972900  1
  C  357  1  0.40365500  0.30273300  0.71674300  1
  C  358  1  0.60682100  0.27210200  0.72594900  1
  C  359  1  0.65553300  0.26176900  0.73560100  1
  C  360  1  0.69697000  0.28316700  0.73921400  1
  C  361  1  0.68828600  0.31505200  0.73335200  1
  C  362  1  0.63944800  0.32536400  0.72419900  1
  C  363  1  0.53578900  0.40057800  0.65837900  1
  C  364  1  0.53552600  0.42460500  0.63829900  1
  C  365  1  0.50238700  0.42302600  0.61459100  1
  C  366  1  0.46958500  0.39657600  0.61140300  1
  C  367  1  0.46973600  0.37260500  0.63154100  1
  C  368  1  0.36179200  0.29875200  0.69753900  1
  C  369  1  0.31242000  0.28938300  0.70670400  1
  C  370  1  0.30334000  0.28268700  0.73535600  1
  C  371  1  0.34485400  0.28578900  0.75469200  1
  C  372  1  0.39407500  0.29575800  0.74552100  1
  C  384  1  0.45289900  0.31443900  0.70728800  1
  C  385  1  0.45488100  0.33834100  0.68681200  1
  C  386  1  0.50203500  0.35016700  0.67626400  1
  C  387  1  0.54850800  0.33783100  0.68719500  1
  C  388  1  0.54917400  0.31484300  0.70851800  1
  C  389  1  0.50073400  0.30327800  0.71799200  1
  N  100  1  0.75643400  0.25327100  0.24252500  1
  N  101  1  0.01082400  0.07628500  0.09702700  1
  N  102  1  0.24509700  0.25770600  0.24529100  1
  N  142  1  0.76277900  0.77754800  0.75168600  1
  N  143  1  0.01170200  0.94963600  0.91002000  1
  N  144  1  0.23497100  0.77372700  0.74786800  1
  N  184  1  0.75563100  0.25452200  0.76396400  1
  N  185  1  0.00317200  0.08230000  0.90981900  1
  N  186  1  0.24434200  0.25444600  0.75986300  1
  N  226  1  0.77176400  0.77023900  0.26123800  1
  N  227  1  0.00313700  0.94342700  0.09726600  1
  N  228  1  0.22643300  0.75379300  0.25140000  1
  N  268  1  0.26275800  0.75201400  0.75533500  1
  N  269  1  0.51169600  0.57998500  0.59697500  1
  N  270  1  0.73496200  0.75585900  0.75917600  1
  N  310  1  0.25643700  0.27626000  0.26447800  1
  N  311  1  0.51103000  0.45328100  0.40994300  1
  N  312  1  0.74509400  0.27182800  0.26170900  1
  N  352  1  0.27178000  0.75930700  0.24573100  1
  N  353  1  0.50322300  0.58609700  0.40971000  1
  N  354  1  0.72641700  0.77573600  0.25555600  1
  N  394  1  0.25565500  0.27477400  0.74285000  1
  N  395  1  0.50324200  0.44733300  0.59723600  1
  N  396  1  0.74433400  0.27489400  0.74699000  1
