# generated using pymatgen
data_H60C69N14O3
_symmetry_space_group_name_H-M   'P 1'
_cell_length_a   9.97893333
_cell_length_b   32.61904304
_cell_length_c   32.61910000
_cell_angle_alpha   120.00217330
_cell_angle_beta   90.00000000
_cell_angle_gamma   90.00000000
_symmetry_Int_Tables_number   1
_chemical_formula_structural   H60C69N14O3
_chemical_formula_sum   'H60 C69 N14 O3'
_cell_volume   9194.93009060
_cell_formula_units_Z   1
loop_
 _symmetry_equiv_pos_site_id
 _symmetry_equiv_pos_as_xyz
  1  'x, y, z'
loop_
 _atom_site_type_symbol
 _atom_site_label
 _atom_site_symmetry_multiplicity
 _atom_site_fract_x
 _atom_site_fract_y
 _atom_site_fract_z
 _atom_site_occupancy
  C  1  1  0.03448900  0.97854700  0.52599800  1
  C  4  1  0.84594900  0.96853200  0.47505100  1
  C  11  1  0.99246800  0.64405700  0.28003100  1
  C  12  1  0.96009900  0.71380300  0.35762900  1
  C  13  1  0.97575300  0.63514100  0.35037400  1
  C  14  1  0.86959900  0.60231200  0.33743200  1
  C  15  1  0.85077400  0.57625300  0.36064500  1
  C  16  1  0.93586900  0.58282700  0.39818600  1
  C  17  1  0.04182400  0.61582400  0.41111200  1
  C  18  1  0.06290900  0.64107700  0.38704000  1
  C  19  1  0.87474900  0.63854800  0.25370700  1
  C  20  1  0.88062100  0.61864100  0.20424900  1
  C  21  1  0.00447100  0.60487000  0.18031500  1
  C  22  1  0.12272000  0.61146000  0.20685200  1
  C  23  1  0.11649300  0.63034900  0.25618800  1
  C  24  1  0.05273700  0.74718700  0.35902200  1
  C  25  1  0.02343800  0.79591800  0.38427300  1
  C  26  1  0.90385200  0.81290400  0.41079200  1
  C  27  1  0.81214300  0.77922300  0.40972100  1
  C  28  1  0.83905900  0.73039900  0.38312000  1
  C  48  1  0.00693100  0.35843600  0.71627500  1
  C  49  1  0.99821400  0.28132400  0.64328000  1
  C  50  1  0.00561800  0.35417000  0.63880800  1
  C  51  1  0.12081000  0.38092900  0.64247400  1
  C  52  1  0.13500600  0.40182700  0.61402800  1
  C  53  1  0.03566100  0.39591800  0.58048700  1
  C  54  1  0.92169000  0.36834500  0.57643900  1
  C  55  1  0.90561500  0.34844200  0.60576600  1
  C  56  1  0.11741900  0.35111300  0.73887200  1
  C  57  1  0.13264600  0.37816800  0.78824600  1
  C  58  1  0.04004200  0.41430800  0.81660500  1
  C  59  1  0.93144900  0.42224100  0.79352100  1
  C  60  1  0.91344700  0.39406400  0.74420000  1
  C  61  1  0.89552400  0.25576700  0.65036100  1
  C  62  1  0.90565600  0.20637600  0.63065600  1
  C  63  1  0.01658300  0.18105800  0.60226200  1
  C  64  1  0.11855200  0.20690600  0.59493000  1
  C  65  1  0.10996800  0.25635500  0.61539400  1
  C  84  1  0.02720900  0.51728400  0.05096900  1
  C  85  1  0.89925700  0.49850800  0.03221700  1
  C  86  1  0.87524200  0.47584200  0.98257000  1
  C  87  1  0.97773800  0.47247800  0.95079500  1
  C  88  1  0.10223200  0.49426500  0.97063100  1
  C  89  1  0.12701900  0.51556500  0.01947500  1
  C  91  1  0.64960600  0.45988500  0.99561600  1
  C  92  1  0.67252400  0.48304400  0.04467300  1
  C  98  1  0.51179500  0.53091300  0.10031200  1
  C  102  1  0.05878600  0.53747000  0.10217100  1
  C  105  1  0.95284500  0.44535600  0.89838400  1
  C  108  1  0.98564800  0.50955500  0.45972100  1
  C  109  1  0.88107400  0.52348500  0.49375100  1
  C  110  1  0.87204400  0.50412300  0.52435100  1
  C  111  1  0.96651400  0.47041100  0.52179000  1
  C  112  1  0.06867200  0.45625300  0.48727600  1
  C  113  1  0.07843700  0.47565800  0.45740700  1
  C  115  1  0.67403800  0.54996200  0.55976900  1
  C  116  1  0.68098200  0.56867500  0.52933000  1
  C  122  1  0.49061000  0.57958700  0.49410600  1
  C  126  1  0.00748800  0.52770100  0.42602500  1
  C  129  1  0.95517900  0.45125400  0.55494400  1
  C  132  1  0.94418700  0.94762800  0.49047400  1
  C  133  1  0.84155100  0.01852600  0.49414500  1
  C  134  1  0.93479200  0.04890600  0.52896800  1
  C  135  1  0.02981800  0.02784100  0.54492000  1
  C  137  1  0.65053600  0.00965900  0.44582300  1
  C  138  1  0.65264200  0.96050500  0.42744800  1
  C  143  1  0.45954400  0.91492800  0.41421200  1
  C  147  1  0.96193300  0.89562100  0.47239000  1
  C  150  1  0.92937000  0.10121100  0.54752000  1
  H  5  1  0.10638100  0.96516000  0.53848500  1
  H  29  1  0.79419500  0.61483400  0.18579800  1
  H  30  1  0.78417000  0.64889000  0.27049900  1
  H  31  1  0.20296900  0.63482800  0.27481600  1
  H  32  1  0.21384600  0.60246800  0.19033800  1
  H  33  1  0.80253900  0.59820500  0.31197900  1
  H  34  1  0.77044900  0.55386500  0.35131600  1
  H  35  1  0.14006800  0.73598800  0.34017700  1
  H  36  1  0.08971500  0.81898600  0.38268200  1
  H  37  1  0.72282500  0.79003200  0.42732300  1
  H  38  1  0.76949900  0.70694300  0.38222800  1
  H  39  1  0.13820000  0.66560100  0.39792100  1
  H  40  1  0.10199200  0.62279800  0.43924400  1
  H  42  1  0.05830000  0.60884000  0.12342000  1
  H  44  1  0.81697800  0.54376100  0.41576600  1
  H  46  1  0.77650900  0.86757200  0.44720100  1
  H  66  1  0.21445900  0.37204800  0.80331200  1
  H  67  1  0.18779800  0.32603900  0.71940500  1
  H  68  1  0.83407300  0.40060600  0.72845600  1
  H  69  1  0.86479900  0.44892900  0.81251400  1
  H  70  1  0.19559900  0.38497700  0.66564900  1
  H  71  1  0.22009600  0.42070600  0.61729600  1
  H  72  1  0.81507500  0.27330100  0.67126200  1
  H  73  1  0.83224100  0.18897800  0.63781400  1
  H  74  1  0.20156200  0.18991300  0.57541000  1
  H  75  1  0.18684100  0.27421800  0.61051900  1
  H  76  1  0.82260500  0.32840300  0.60186600  1
  H  77  1  0.84995900  0.36211500  0.55160000  1
  H  79  1  0.14822900  0.43418600  0.87565900  1
  H  81  1  0.14750200  0.42779700  0.55271700  1
  H  83  1  0.12260400  0.12003000  0.57130900  1
  H  94  1  0.55850500  0.44528300  0.98171100  1
  H  95  1  0.21986100  0.52963500  0.03189200  1
  H  96  1  0.17860400  0.49423600  0.94983000  1
  H  99  1  0.43531500  0.52940200  0.12337100  1
  H  100  1  0.46292700  0.54018500  0.07605000  1
  H  101  1  0.58352200  0.55855400  0.12242400  1
  H  103  1  0.16715000  0.53781600  0.10746300  1
  H  104  1  0.01598000  0.51437700  0.11417700  1
  H  106  1  0.86407700  0.46079500  0.89176900  1
  H  107  1  0.92876400  0.40887400  0.88876300  1
  H  118  1  0.59870700  0.55929200  0.58402100  1
  H  119  1  0.15513900  0.46441400  0.43332800  1
  H  120  1  0.13828900  0.43159600  0.48332200  1
  H  123  1  0.42024300  0.60712000  0.49867900  1
  H  124  1  0.43414200  0.55162000  0.49557700  1
  H  125  1  0.53724800  0.56531800  0.45927000  1
  H  127  1  0.01277200  0.49730500  0.39004000  1
  H  128  1  0.10571900  0.54484900  0.43443700  1
  H  130  1  0.85433200  0.43652800  0.55049600  1
  H  131  1  0.96336800  0.48108000  0.59115600  1
  H  140  1  0.57945800  0.02515500  0.43548400  1
  H  141  1  0.09777200  0.04803900  0.57057300  1
  H  144  1  0.38984700  0.89278000  0.38599300  1
  H  145  1  0.40303700  0.94431300  0.44222700  1
  H  146  1  0.50288100  0.89346600  0.42802100  1
  H  148  1  0.95113600  0.88939800  0.50224900  1
  H  149  1  0.06551400  0.88728500  0.46004000  1
  H  151  1  0.82868800  0.11291300  0.56185200  1
  H  152  1  0.94175700  0.10704100  0.51745900  1
  N  10  1  0.98832000  0.66459900  0.32995400  1
  N  41  1  0.00502700  0.58626500  0.13069300  1
  N  43  1  0.90689200  0.56142600  0.42610700  1
  N  45  1  0.87184900  0.86213900  0.43356300  1
  N  47  1  0.99276700  0.33155200  0.66622100  1
  N  78  1  0.06138700  0.44430500  0.86636200  1
  N  80  1  0.05278200  0.41403900  0.54899300  1
  N  82  1  0.02818100  0.13140500  0.58478700  1
  N  90  1  0.75095900  0.45734100  0.96674500  1
  N  93  1  0.79680500  0.50068100  0.06080200  1
  N  114  1  0.76894700  0.51856000  0.55597600  1
  N  117  1  0.78485500  0.55509800  0.49843900  1
  N  136  1  0.74415000  0.03651200  0.47831800  1
  N  139  1  0.75103400  0.94240000  0.44241300  1
  O  97  1  0.57509700  0.48527800  0.07513000  1
  O  121  1  0.58839800  0.60050700  0.53143400  1
  O  142  1  0.56081900  0.93156700  0.39464800  1
