# generated using pymatgen
data_CoCu2H32C36(N2Cl)6
_symmetry_space_group_name_H-M   'P 1'
_cell_length_a   7.16504000
_cell_length_b   11.46690354
_cell_length_c   26.39437000
_cell_angle_alpha   89.19838111
_cell_angle_beta   88.27297000
_cell_angle_gamma   72.35950935
_symmetry_Int_Tables_number   1
_chemical_formula_structural   CoCu2H32C36(N2Cl)6
_chemical_formula_sum   'Co2 Cu4 H64 C72 N24 Cl12'
_cell_volume   2065.64370583
_cell_formula_units_Z   2
loop_
 _symmetry_equiv_pos_site_id
 _symmetry_equiv_pos_as_xyz
  1  'x, y, z'
loop_
 _atom_site_type_symbol
 _atom_site_label
 _atom_site_symmetry_multiplicity
 _atom_site_fract_x
 _atom_site_fract_y
 _atom_site_fract_z
 _atom_site_occupancy
  Co  Co0  1  0.86711000  0.22246000  0.75241000  1
  Co  Co1  1  0.11283000  0.77789000  0.24943000  1
  Cu  Cu2  1  0.54618000  0.87403000  0.97092000  1
  Cu  Cu3  1  0.59702000  0.87143000  0.52912000  1
  Cu  Cu4  1  0.45743000  0.12834000  0.02962000  1
  Cu  Cu5  1  0.43169000  0.11852000  0.46651000  1
  H  H6  1  0.40072000  0.06323000  0.88152000  1
  H  H7  1  0.64955000  0.08861000  0.80120000  1
  H  H8  1  0.01181000  0.94729000  0.83038000  1
  H  H9  1  0.98744000  0.83446000  0.95766000  1
  H  H10  1  0.14020000  0.81641000  0.90215000  1
  H  H11  1  0.17606000  0.62372000  0.97754000  1
  H  H12  1  0.20179000  0.29982000  0.98708000  1
  H  H13  1  0.25564000  0.42161000  0.01756000  1
  H  H14  1  0.47966000  0.50097000  0.06924000  1
  H  H15  1  0.14386000  0.88073000  0.03818000  1
  H  H16  1  0.83701000  0.69696000  0.84289000  1
  H  H17  1  0.89762000  0.51591000  0.78864000  1
  H  H18  1  0.99095000  0.36533000  0.81590000  1
  H  H19  1  0.49520000  0.60416000  0.84670000  1
  H  H20  1  0.21077000  0.49805000  0.82352000  1
  H  H21  1  0.42329000  0.27720000  0.78114000  1
  H  H22  1  0.54647000  0.06577000  0.61837000  1
  H  H23  1  0.26327000  0.09518000  0.69632000  1
  H  H24  1  0.04268000  0.95311000  0.66644000  1
  H  H25  1  0.17991000  0.83740000  0.54037000  1
  H  H26  1  0.04371000  0.82616000  0.59665000  1
  H  H27  1  0.20602000  0.62987000  0.52026000  1
  H  H28  1  0.50687000  0.31069000  0.51250000  1
  H  H29  1  0.32100000  0.42663000  0.48357000  1
  H  H30  1  0.01509000  0.49846000  0.43178000  1
  H  H31  1  0.98605000  0.87887000  0.45860000  1
  H  H32  1  0.44367000  0.70462000  0.65953000  1
  H  H33  1  0.54928000  0.52707000  0.71765000  1
  H  H34  1  0.60387000  0.37327000  0.69353000  1
  H  H35  1  0.85995000  0.61515000  0.65611000  1
  H  H36  1  0.24887000  0.51055000  0.67715000  1
  H  H37  1  0.25824000  0.29073000  0.72275000  1
  H  H38  1  0.60179000  0.93439000  0.11875000  1
  H  H39  1  0.35011000  0.91095000  0.19858000  1
  H  H40  1  0.98975000  0.05281000  0.16885000  1
  H  H41  1  0.01174000  0.16747000  0.04231000  1
  H  H42  1  0.86467000  0.18234000  0.09881000  1
  H  H43  1  0.82785000  0.37505000  0.02353000  1
  H  H44  1  0.80070000  0.69874000  0.01384000  1
  H  H45  1  0.74910000  0.57694000  0.98325000  1
  H  H46  1  0.51334000  0.50391000  0.93231000  1
  H  H47  1  0.86115000  0.12473000  0.95983000  1
  H  H48  1  0.16059000  0.30277000  0.15894000  1
  H  H49  1  0.09055000  0.48553000  0.21373000  1
  H  H50  1  0.00081000  0.63601000  0.18587000  1
  H  H51  1  0.49530000  0.39823000  0.15239000  1
  H  H52  1  0.77941000  0.50429000  0.17638000  1
  H  H53  1  0.56757000  0.71981000  0.22289000  1
  H  H54  1  0.48031000  0.93273000  0.37668000  1
  H  H55  1  0.75733000  0.91277000  0.29761000  1
  H  H56  1  0.97601000  0.05437000  0.32889000  1
  H  H57  1  0.84346000  0.16299000  0.45557000  1
  H  H58  1  0.96535000  0.18618000  0.39822000  1
  H  H59  1  0.80544000  0.37194000  0.47723000  1
  H  H60  1  0.50694000  0.69644000  0.48721000  1
  H  H61  1  0.67390000  0.57615000  0.51911000  1
  H  H62  1  0.00338000  0.46742000  0.57612000  1
  H  H63  1  0.06595000  0.09209000  0.53141000  1
  H  H64  1  0.55028000  0.30457000  0.34011000  1
  H  H65  1  0.42175000  0.47769000  0.28883000  1
  H  H66  1  0.37100000  0.63046000  0.31303000  1
  H  H67  1  0.10139000  0.39495000  0.34646000  1
  H  H68  1  0.71313000  0.50576000  0.32324000  1
  H  H69  1  0.71871000  0.72380000  0.27865000  1
  C  C70  1  0.55656000  0.01876000  0.87503000  1
  C  C71  1  0.68427000  0.03370000  0.83546000  1
  C  C72  1  0.86684000  0.95995000  0.84782000  1
  C  C73  1  0.99788000  0.80911000  0.91738000  1
  C  C74  1  0.99142000  0.67857000  0.91268000  1
  C  C75  1  0.09666000  0.59448000  0.94803000  1
  C  C76  1  0.10708000  0.47003000  0.94628000  1
  C  C77  1  0.24659000  0.38204000  0.98050000  1
  C  C78  1  0.42887000  0.59831000  0.06003000  1
  C  C79  1  0.23990000  0.67908000  0.06194000  1
  C  C80  1  0.25445000  0.79308000  0.04360000  1
  C  C81  1  0.99267000  0.43600000  0.91061000  1
  C  C82  1  0.91166000  0.51054000  0.87017000  1
  C  C83  1  0.90712000  0.63453000  0.87309000  1
  C  C84  1  0.87842000  0.45568000  0.82043000  1
  C  C85  1  0.50815000  0.51702000  0.82921000  1
  C  C86  1  0.36758000  0.46275000  0.81697000  1
  C  C87  1  0.47245000  0.34844000  0.79709000  1
  C  C88  1  0.43228000  0.02278000  0.62381000  1
  C  C89  1  0.28528000  0.04011000  0.66249000  1
  C  C90  1  0.17465000  0.96584000  0.64940000  1
  C  C91  1  0.19351000  0.81465000  0.58106000  1
  C  C92  1  0.31969000  0.68313000  0.58811000  1
  C  C93  1  0.30175000  0.59917000  0.55212000  1
  C  C94  1  0.39732000  0.47323000  0.55763000  1
  C  C95  1  0.36972000  0.38334000  0.52010000  1
  C  C96  1  0.97538000  0.59536000  0.44081000  1
  C  C97  1  0.08552000  0.67620000  0.43696000  1
  C  C98  1  0.96110000  0.79066000  0.45471000  1
  C  C99  1  0.51291000  0.43918000  0.59931000  1
  C  C100  1  0.53350000  0.51517000  0.63705000  1
  C  C101  1  0.43398000  0.64088000  0.63025000  1
  C  C102  1  0.62422000  0.46402000  0.68679000  1
  C  C103  1  0.93279000  0.52786000  0.67410000  1
  C  C104  1  0.12753000  0.47496000  0.68547000  1
  C  C105  1  0.13718000  0.36099000  0.70691000  1
  C  C106  1  0.44607000  0.98024000  0.12494000  1
  C  C107  1  0.31696000  0.96534000  0.16416000  1
  C  C108  1  0.13522000  0.03954000  0.15159000  1
  C  C109  1  0.00514000  0.19089000  0.08281000  1
  C  C110  1  0.01082000  0.32120000  0.08835000  1
  C  C111  1  0.90546000  0.40520000  0.05308000  1
  C  C112  1  0.88958000  0.53013000  0.05542000  1
  C  C113  1  0.75390000  0.61732000  0.02035000  1
  C  C114  1  0.56743000  0.40595000  0.94058000  1
  C  C115  1  0.75888000  0.32799000  0.93856000  1
  C  C116  1  0.74712000  0.21166000  0.95540000  1
  C  C117  1  0.99725000  0.56475000  0.09223000  1
  C  C118  1  0.08096000  0.48974000  0.13216000  1
  C  C119  1  0.09162000  0.36507000  0.12857000  1
  C  C120  1  0.11207000  0.54488000  0.18182000  1
  C  C121  1  0.48233000  0.48389000  0.17126000  1
  C  C122  1  0.62292000  0.53775000  0.18406000  1
  C  C123  1  0.51819000  0.64975000  0.20606000  1
  C  C124  1  0.59282000  0.97715000  0.37130000  1
  C  C125  1  0.73659000  0.96482000  0.33218000  1
  C  C126  1  0.84451000  0.04045000  0.34568000  1
  C  C127  1  0.81979000  0.19012000  0.41531000  1
  C  C128  1  0.68011000  0.31953000  0.41144000  1
  C  C129  1  0.69780000  0.40254000  0.44772000  1
  C  C130  1  0.58421000  0.52679000  0.44637000  1
  C  C131  1  0.63282000  0.61479000  0.48143000  1
  C  C132  1  0.04901000  0.37401000  0.56241000  1
  C  C133  1  0.95617000  0.28499000  0.56288000  1
  C  C134  1  0.08219000  0.18047000  0.53980000  1
  C  C135  1  0.43799000  0.56088000  0.41030000  1
  C  C136  1  0.43210000  0.48791000  0.36938000  1
  C  C137  1  0.55426000  0.36460000  0.37149000  1
  C  C138  1  0.34444000  0.54113000  0.31936000  1
  C  C139  1  0.03086000  0.48290000  0.32872000  1
  C  C140  1  0.83811000  0.53874000  0.31625000  1
  C  C141  1  0.83558000  0.65164000  0.29501000  1
  N  N142  1  0.65607000  0.93874000  0.90950000  1
  N  N143  1  0.84668000  0.90183000  0.89208000  1
  N  N144  1  0.55073000  0.66366000  0.04123000  1
  N  N145  1  0.44471000  0.78182000  0.02989000  1
  N  N146  1  0.68672000  0.43598000  0.81746000  1
  N  N147  1  0.66639000  0.33214000  0.79711000  1
  N  N148  1  0.41512000  0.94138000  0.58956000  1
  N  N149  1  0.25698000  0.90650000  0.60587000  1
  N  N150  1  0.79299000  0.66048000  0.46064000  1
  N  N151  1  0.78403000  0.77905000  0.47028000  1
  N  N152  1  0.83618000  0.44574000  0.68745000  1
  N  N153  1  0.95997000  0.34318000  0.70890000  1
  N  N154  1  0.34805000  0.06133000  0.09052000  1
  N  N155  1  0.15700000  0.09791000  0.10756000  1
  N  N156  1  0.44862000  0.33731000  0.95836000  1
  N  N157  1  0.55764000  0.21914000  0.96887000  1
  N  N158  1  0.30416000  0.56353000  0.18449000  1
  N  N159  1  0.32443000  0.66524000  0.20680000  1
  N  N160  1  0.60962000  0.05683000  0.40622000  1
  N  N161  1  0.76313000  0.09625000  0.38994000  1
  N  N162  1  0.22914000  0.32150000  0.53894000  1
  N  N163  1  0.25004000  0.20466000  0.52460000  1
  N  N164  1  0.13311000  0.56236000  0.31633000  1
  N  N165  1  0.01479000  0.66591000  0.29437000  1
  Cl  Cl166  1  0.13704000  0.13973000  0.79406000  1
  Cl  Cl167  1  0.47620000  0.73495000  0.91838000  1
  Cl  Cl168  1  0.74818000  0.93712000  0.02503000  1
  Cl  Cl169  1  0.70873000  0.13141000  0.70586000  1
  Cl  Cl170  1  0.79193000  0.73652000  0.58380000  1
  Cl  Cl171  1  0.33696000  0.93149000  0.47281000  1
  Cl  Cl172  1  0.85820000  0.86955000  0.20457000  1
  Cl  Cl173  1  0.53070000  0.26548000  0.08189000  1
  Cl  Cl174  1  0.25689000  0.06069000  0.97518000  1
  Cl  Cl175  1  0.28722000  0.86189000  0.29490000  1
  Cl  Cl176  1  0.22757000  0.25635000  0.41253000  1
  Cl  Cl177  1  0.69936000  0.06074000  0.52298000  1
