# generated using pymatgen
data_H18C25N2
_symmetry_space_group_name_H-M   'P 1'
_cell_length_a   9.98746667
_cell_length_b   56.91295026
_cell_length_c   56.90890000
_cell_angle_alpha   119.98293972
_cell_angle_beta   90.00000000
_cell_angle_gamma   90.00000000
_symmetry_Int_Tables_number   1
_chemical_formula_structural   H18C25N2
_chemical_formula_sum   'H108 C150 N12'
_cell_volume   28018.95276686
_cell_formula_units_Z   6
loop_
 _symmetry_equiv_pos_site_id
 _symmetry_equiv_pos_as_xyz
  1  'x, y, z'
loop_
 _atom_site_type_symbol
 _atom_site_label
 _atom_site_symmetry_multiplicity
 _atom_site_fract_x
 _atom_site_fract_y
 _atom_site_fract_z
 _atom_site_occupancy
  C  1  1  0.01382100  0.09049400  0.92769600  1
  C  2  1  0.01204200  0.06194200  0.91560400  1
  C  3  1  0.00380000  0.04959100  0.93166700  1
  C  4  1  0.99513600  0.06548800  0.96025400  1
  C  5  1  0.99477900  0.09406300  0.97229800  1
  C  6  1  0.00250800  0.10641800  0.95620000  1
  C  7  1  0.99499100  0.05364600  0.97649600  1
  C  8  1  0.91156200  0.03355500  0.97294600  1
  C  9  1  0.91465000  0.02101600  0.98857800  1
  C  10  1  0.91376900  0.03615900  0.01726500  1
  C  11  1  0.91456000  0.02322500  0.03298000  1
  C  12  1  0.91338700  0.99453900  0.01944400  1
  C  13  1  0.91422000  0.97883400  0.99079900  1
  C  14  1  0.91341300  0.99237700  0.97564600  1
  C  15  1  0.91085500  0.95067000  0.97827200  1
  C  16  1  0.99380400  0.93408600  0.95810700  1
  C  17  1  0.99374000  0.90601100  0.94629200  1
  C  18  1  0.99291000  0.88946100  0.91771900  1
  C  19  1  0.00297000  0.89334300  0.96221100  1
  C  20  1  0.01124700  0.86493900  0.94988500  1
  C  21  1  0.01258500  0.84846100  0.92133300  1
  C  22  1  0.00058600  0.86101700  0.90538900  1
  C  23  1  0.91151600  0.03887600  0.06114500  1
  C  24  1  0.99450000  0.03526700  0.07771100  1
  C  25  1  0.99493100  0.05161800  0.10577100  1
  C  26  1  0.00610300  0.08015700  0.11830000  1
  C  27  1  0.99246800  0.03972300  0.12243700  1
  C  28  1  0.00042400  0.05592700  0.15087000  1
  C  29  1  0.01425100  0.08438000  0.16329900  1
  C  30  1  0.01459200  0.09632200  0.14669400  1
  C  52  1  0.01975800  0.47682000  0.84322700  1
  C  53  1  0.95484200  0.50198500  0.85975400  1
  C  54  1  0.95916000  0.52293400  0.85338900  1
  C  55  1  0.02822900  0.51935500  0.83013200  1
  C  56  1  0.09696600  0.49467900  0.81409200  1
  C  57  1  0.09290000  0.47387200  0.82055800  1
  C  58  1  0.02664800  0.53856200  0.82183000  1
  C  59  1  0.91307700  0.54935000  0.81861400  1
  C  60  1  0.90989500  0.56256600  0.80378400  1
  C  61  1  0.90008200  0.54703100  0.77525600  1
  C  62  1  0.89303400  0.55959800  0.75926600  1
  C  63  1  0.89385400  0.58822600  0.77225200  1
  C  64  1  0.90318000  0.60414600  0.80083500  1
  C  65  1  0.91033400  0.59113400  0.81647800  1
  C  66  1  0.89974200  0.63219000  0.81331800  1
  C  67  1  0.00389900  0.64799800  0.82730400  1
  C  68  1  0.00320700  0.67624400  0.84083000  1
  C  69  1  0.06405500  0.69083200  0.86664900  1
  C  70  1  0.94883200  0.69113800  0.82926800  1
  C  71  1  0.95418900  0.71968800  0.84322500  1
  C  72  1  0.01681600  0.73431400  0.86890600  1
  C  73  1  0.07057300  0.71932700  0.88043200  1
  C  74  1  0.88208800  0.54327200  0.73139100  1
  C  75  1  0.97807100  0.54153600  0.71402100  1
  C  76  1  0.98040000  0.52070800  0.68726100  1
  C  77  1  0.99681300  0.49364100  0.68140700  1
  C  78  1  0.97178100  0.52592200  0.66550100  1
  C  79  1  0.97525700  0.50437800  0.63843800  1
  C  80  1  0.98848800  0.47723400  0.63258000  1
  C  81  1  0.00061700  0.47222600  0.65444900  1
  C  103  1  0.01950800  0.37778200  0.53499200  1
  C  104  1  0.95449900  0.36911500  0.50982800  1
  C  105  1  0.95863700  0.34179300  0.48892700  1
  C  106  1  0.02774900  0.32213800  0.49253800  1
  C  107  1  0.09666000  0.33080700  0.51720800  1
  C  108  1  0.09262100  0.35808300  0.53798200  1
  C  109  1  0.02602700  0.29462500  0.47339600  1
  C  110  1  0.91260700  0.28063000  0.46246000  1
  C  111  1  0.90939400  0.25258900  0.44921100  1
  C  112  1  0.89957200  0.23955000  0.46470900  1
  C  113  1  0.89268300  0.21099800  0.45210200  1
  C  114  1  0.89368500  0.19540200  0.42346900  1
  C  115  1  0.90301600  0.20811400  0.40758800  1
  C  116  1  0.91006300  0.23676300  0.42063700  1
  C  117  1  0.89978200  0.19260500  0.37953900  1
  C  118  1  0.00418000  0.19077500  0.36377600  1
  C  119  1  0.00374700  0.17609400  0.33552600  1
  C  120  1  0.06533400  0.18730400  0.32097900  1
  C  121  1  0.94876400  0.14970400  0.32058700  1
  C  122  1  0.95437100  0.13514500  0.29203900  1
  C  123  1  0.01766600  0.14617900  0.27745100  1
  C  124  1  0.07198500  0.17263100  0.29248100  1
  C  125  1  0.88186000  0.19941300  0.46840200  1
  C  126  1  0.97765900  0.18371400  0.47008800  1
  C  127  1  0.98000200  0.17783100  0.49095900  1
  C  128  1  0.99695400  0.19905300  0.51800100  1
  C  129  1  0.97081500  0.15088900  0.48580600  1
  C  130  1  0.97431300  0.14541200  0.50738600  1
  C  131  1  0.98805200  0.16671100  0.53450800  1
  C  132  1  0.00075000  0.19355100  0.53945000  1
  C  154  1  0.02017900  0.16856800  0.63398300  1
  C  155  1  0.95517000  0.15212200  0.64271700  1
  C  156  1  0.95945500  0.15858900  0.67005900  1
  C  157  1  0.02858000  0.18186900  0.68967700  1
  C  158  1  0.09743600  0.19782000  0.68093500  1
  C  159  1  0.09339200  0.19125800  0.65363500  1
  C  160  1  0.02674700  0.19034400  0.71722400  1
  C  161  1  0.91349700  0.19327100  0.73122200  1
  C  162  1  0.90994500  0.20804000  0.75926100  1
  C  163  1  0.90021200  0.23657000  0.77228300  1
  C  164  1  0.89295200  0.25251600  0.80083200  1
  C  165  1  0.89354300  0.23949000  0.81644300  1
  C  166  1  0.90279500  0.21090500  0.80375200  1
  C  167  1  0.91011500  0.19530100  0.77510300  1
  C  168  1  0.89933000  0.19838800  0.81928800  1
  C  169  1  0.00351900  0.18440600  0.82111100  1
  C  170  1  0.00295800  0.17089600  0.83585200  1
  C  171  1  0.06385300  0.14508300  0.82463900  1
  C  172  1  0.94876300  0.18247700  0.86231900  1
  C  173  1  0.95432900  0.16854300  0.87694100  1
  C  174  1  0.01706700  0.14287500  0.86591100  1
  C  175  1  0.07062400  0.13132900  0.83938400  1
  C  176  1  0.88212900  0.28039100  0.81239000  1
  C  177  1  0.97819000  0.29775400  0.82798600  1
  C  178  1  0.98047200  0.32450700  0.83388700  1
  C  179  1  0.99684300  0.33033600  0.81265200  1
  C  180  1  0.97183100  0.34628000  0.86084100  1
  C  181  1  0.97525600  0.37333400  0.86631900  1
  C  182  1  0.98840100  0.37916600  0.84500900  1
  C  183  1  0.00058600  0.35728400  0.81815400  1
  C  205  1  0.02509600  0.76318000  0.88263800  1
  C  206  1  0.13705600  0.77783900  0.89831600  1
  C  207  1  0.13972900  0.80650500  0.91164600  1
  C  208  1  0.02577900  0.81991700  0.90890600  1
  C  212  1  0.26188200  0.82140700  0.92666100  1
  C  216  1  0.02611200  0.13107000  0.24858600  1
  C  217  1  0.13848600  0.13197800  0.23395600  1
  C  218  1  0.14137000  0.11663000  0.20529000  1
  C  219  1  0.02722900  0.10057000  0.19184500  1
  C  223  1  0.26392700  0.11662800  0.19042900  1
  C  227  1  0.02564500  0.12917600  0.88107900  1
  C  228  1  0.13771500  0.11351500  0.88005000  1
  C  229  1  0.14062900  0.10019700  0.89540400  1
  C  230  1  0.02680800  0.10293400  0.91158400  1
  C  234  1  0.26281800  0.08517900  0.89526700  1
  C  238  1  0.00827600  0.40486500  0.55734200  1
  C  239  1  0.89403500  0.42148600  0.56261200  1
  C  240  1  0.88306000  0.44674100  0.58698600  1
  C  241  1  0.99139500  0.45495400  0.60566200  1
  C  245  1  0.75712300  0.46270100  0.59315900  1
  C  249  1  0.00870600  0.16380800  0.60688800  1
  C  250  1  0.89412500  0.15256100  0.59035100  1
  C  251  1  0.88284000  0.15168400  0.56509600  1
  C  252  1  0.99109200  0.16212300  0.55682900  1
  C  256  1  0.75667200  0.14195600  0.54920600  1
  C  260  1  0.00845600  0.45443800  0.84792000  1
  C  261  1  0.89421900  0.44917400  0.85928300  1
  C  262  1  0.88306100  0.42476800  0.86011100  1
  C  263  1  0.99127700  0.40606900  0.84959000  1
  C  267  1  0.75709400  0.41858700  0.86988500  1
  H  31  1  0.01757700  0.04986600  0.89496900  1
  H  32  1  0.00642100  0.02885800  0.92228500  1
  H  33  1  0.00385800  0.12715200  0.96552900  1
  H  34  1  0.98983300  0.10616600  0.99295200  1
  H  35  1  0.91136500  0.98119700  0.95486600  1
  H  36  1  0.91200200  0.05694100  0.02685400  1
  H  37  1  0.91133700  0.98494400  0.03063500  1
  H  38  1  0.01019900  0.08942300  0.10684300  1
  H  39  1  0.98760200  0.89799300  0.90559800  1
  H  40  1  0.00177700  0.84960400  0.88465500  1
  H  41  1  0.01722800  0.85640200  0.96198000  1
  H  42  1  0.00597300  0.90470500  0.98294200  1
  H  43  1  0.02171300  0.11692400  0.15513200  1
  H  44  1  0.00011733  0.04669700  0.16237400  1
  H  45  1  0.98565900  0.01910200  0.11400100  1
  H  46  1  0.05981000  0.94212800  0.95102100  1
  H  47  1  0.84578500  0.94256900  0.98547500  1
  H  48  1  0.06115100  0.06065800  0.99159000  1
  H  49  1  0.84631500  0.02642700  0.95767900  1
  H  50  1  0.06016500  0.02008300  0.06967700  1
  H  51  1  0.84693400  0.05426000  0.06925900  1
  H  82  1  0.90296500  0.50538200  0.87665900  1
  H  83  1  0.90911200  0.54064000  0.86559200  1
  H  84  1  0.13978900  0.45598600  0.80765600  1
  H  85  1  0.14700800  0.49120100  0.79692300  1
  H  86  1  0.91488100  0.60250600  0.83722600  1
  H  87  1  0.89839900  0.52624100  0.76599800  1
  H  88  1  0.88692400  0.59749400  0.76079900  1
  H  89  1  0.00558700  0.48923800  0.69673600  1
  H  90  1  0.10453500  0.68081800  0.87573300  1
  H  91  1  0.11382600  0.72901700  0.89924500  1
  H  92  1  0.91552100  0.72966700  0.83397200  1
  H  93  1  0.90654000  0.68132500  0.81036000  1
  H  94  1  0.01057700  0.45282900  0.65096600  1
  H  95  1  0.96997500  0.50871300  0.62305100  1
  H  96  1  0.96206000  0.54538300  0.66917800  1
  H  97  1  0.08634200  0.63904400  0.82893500  1
  H  98  1  0.81571500  0.64060500  0.81162300  1
  H  99  1  0.11185300  0.54163100  0.81463300  1
  H  100  1  0.82535800  0.54455900  0.82338900  1
  H  101  1  0.05705500  0.55382000  0.72082200  1
  H  102  1  0.80798700  0.52972600  0.72455500  1
  H  133  1  0.90264500  0.38260900  0.50640500  1
  H  134  1  0.90859400  0.33627100  0.47121200  1
  H  135  1  0.13954500  0.36308600  0.55587400  1
  H  136  1  0.14657000  0.31713100  0.52072900  1
  H  137  1  0.91462900  0.24617300  0.40929000  1
  H  138  1  0.89780000  0.25104700  0.48550200  1
  H  139  1  0.88691400  0.17468400  0.41417100  1
  H  140  1  0.00610300  0.21876100  0.52235800  1
  H  141  1  0.10623900  0.20635400  0.33102400  1
  H  142  1  0.11583000  0.18173200  0.28282100  1
  H  143  1  0.91518600  0.11596300  0.28202800  1
  H  144  1  0.90592900  0.14062100  0.33036700  1
  H  145  1  0.01109000  0.20947300  0.55883200  1
  H  146  1  0.96872800  0.12570900  0.50309200  1
  H  147  1  0.96075600  0.13509700  0.46636200  1
  H  148  1  0.08665400  0.20131700  0.37277200  1
  H  149  1  0.81570600  0.18254100  0.37108800  1
  H  150  1  0.11115000  0.28433200  0.47032400  1
  H  151  1  0.82489700  0.29019400  0.46715700  1
  H  152  1  0.05709700  0.17840200  0.45793800  1
  H  153  1  0.80742000  0.20598400  0.48187200  1
  H  184  1  0.90316800  0.13521700  0.62926100  1
  H  185  1  0.90928400  0.14644600  0.67563100  1
  H  186  1  0.14019200  0.20413100  0.64859500  1
  H  187  1  0.14730900  0.21503400  0.69457600  1
  H  188  1  0.91466100  0.17455300  0.76570800  1
  H  189  1  0.89873500  0.24586100  0.76077500  1
  H  190  1  0.88653600  0.25091500  0.83715900  1
  H  191  1  0.00561000  0.31499700  0.79293400  1
  H  192  1  0.10421500  0.13598800  0.80553400  1
  H  193  1  0.11391300  0.11252100  0.83027800  1
  H  194  1  0.91587000  0.17781700  0.89618800  1
  H  195  1  0.90646500  0.20138400  0.87140100  1
  H  196  1  0.01048700  0.36074900  0.80222400  1
  H  197  1  0.97003500  0.38873300  0.88602800  1
  H  198  1  0.96221000  0.34262100  0.87664100  1
  H  199  1  0.08600200  0.18280800  0.81054800  1
  H  200  1  0.81530600  0.20007300  0.82939800  1
  H  201  1  0.11170300  0.19775100  0.72752400  1
  H  202  1  0.82589100  0.18806300  0.72162500  1
  H  203  1  0.05737700  0.29093900  0.83340000  1
  H  204  1  0.80773500  0.28725300  0.80576900  1
  H  210  1  0.21864900  0.76757400  0.89944000  1
  H  213  1  0.34353400  0.80777900  0.92470100  1
  H  214  1  0.23960600  0.83401500  0.94820200  1
  H  215  1  0.29738700  0.83431400  0.91883100  1
  H  221  1  0.22014200  0.14331900  0.24424300  1
  H  224  1  0.34568800  0.12818600  0.20408600  1
  H  225  1  0.24238800  0.12561400  0.17783500  1
  H  226  1  0.29894900  0.09586100  0.17751300  1
  H  232  1  0.21919900  0.11238800  0.86863300  1
  H  235  1  0.34431600  0.08711100  0.88354900  1
  H  236  1  0.24049500  0.06364400  0.88638200  1
  H  237  1  0.29855800  0.09302900  0.91599000  1
  H  243  1  0.81467500  0.41445200  0.54952300  1
  H  246  1  0.68116600  0.45251400  0.57745400  1
  H  247  1  0.77749900  0.48228700  0.59481200  1
  H  248  1  0.71507000  0.46599200  0.61227800  1
  H  254  1  0.81486500  0.14650800  0.59741500  1
  H  257  1  0.68078200  0.13648600  0.55945000  1
  H  258  1  0.77670700  0.12401200  0.52961800  1
  H  259  1  0.71468800  0.15779400  0.54592300  1
  H  265  1  0.81483400  0.46225300  0.86532500  1
  H  268  1  0.68120700  0.43430900  0.87542700  1
  H  269  1  0.77743800  0.41689100  0.88779700  1
  H  270  1  0.71497000  0.39949000  0.85404500  1
  N  209  1  0.92327000  0.80443400  0.89299600  1
  N  211  1  0.92304900  0.77793900  0.88071800  1
  N  220  1  0.92433100  0.10024700  0.20731000  1
  N  222  1  0.92389200  0.11447700  0.23380200  1
  N  231  1  0.92417400  0.11882800  0.91202200  1
  N  233  1  0.92373300  0.13109400  0.89778500  1
  N  242  1  0.09784800  0.43795100  0.59905700  1
  N  244  1  0.10570700  0.41473600  0.57658000  1
  N  253  1  0.09786700  0.17243600  0.57375500  1
  N  255  1  0.10602800  0.17314400  0.59696000  1
  N  264  1  0.09788800  0.41268800  0.83924100  1
  N  266  1  0.10583700  0.43519100  0.83854300  1
