# generated using pymatgen
data_H32C41(N2O)4
_symmetry_space_group_name_H-M   'P 1'
_cell_length_a   27.77040000
_cell_length_b   55.15428546
_cell_length_c   55.15428546
_cell_angle_alpha   86.36621215
_cell_angle_beta   75.41879103
_cell_angle_gamma   75.41879103
_symmetry_Int_Tables_number   1
_chemical_formula_structural   H32C41(N2O)4
_chemical_formula_sum   'H256 C328 N64 O32'
_cell_volume   79123.32441873
_cell_formula_units_Z   8
loop_
 _symmetry_equiv_pos_site_id
 _symmetry_equiv_pos_as_xyz
  1  'x, y, z'
loop_
 _atom_site_type_symbol
 _atom_site_label
 _atom_site_symmetry_multiplicity
 _atom_site_fract_x
 _atom_site_fract_y
 _atom_site_fract_z
 _atom_site_occupancy
  C  1  1  0.90326200  0.93550800  0.95026200  1
  C  2  1  0.87511550  0.94479150  0.93207350  1
  C  3  1  0.85554450  0.92896850  0.91996250  1
  C  4  1  0.86325550  0.90281300  0.92486100  1
  C  5  1  0.89046300  0.89402950  0.94373850  1
  C  6  1  0.91046750  0.90966900  0.95580700  1
  C  7  1  0.83484600  0.88663050  0.91446350  1
  C  8  1  0.77956300  0.89614800  0.93065100  1
  C  9  1  0.76589900  0.89018000  0.95654800  1
  C  10  1  0.71832550  0.90186600  0.97262000  1
  C  11  1  0.68127350  0.92056050  0.96384850  1
  C  12  1  0.69429250  0.92694950  0.93822350  1
  C  13  1  0.74209300  0.91536500  0.92236100  1
  C  14  1  0.83559350  0.88905250  0.88633050  1
  C  15  1  0.86088300  0.85851400  0.91587700  1
  C  16  1  0.83433400  0.83970150  0.92543350  1
  C  17  1  0.85974800  0.81398400  0.92509200  1
  C  18  1  0.91343700  0.80550150  0.91526550  1
  C  19  1  0.94026550  0.82392450  0.90521650  1
  C  20  1  0.91453050  0.84952300  0.90525100  1
  C  21  1  0.86918000  0.90057650  0.86828850  1
  C  22  1  0.86736300  0.90284550  0.84282750  1
  C  23  1  0.83264200  0.89319650  0.83357650  1
  C  24  1  0.80066050  0.88058800  0.85112800  1
  C  25  1  0.80262300  0.87839650  0.87655150  1
  C  42  1  0.93780550  0.77987850  0.91275450  1
  C  43  1  0.91784950  0.95175050  0.96408950  1
  C  46  1  0.63661050  0.93401050  0.98041650  1
  C  48  1  0.83025700  0.89676550  0.80831750  1
  C  50  1  0.81776700  0.50684650  0.54970650  1
  C  51  1  0.78074450  0.49755750  0.56790450  1
  C  52  1  0.73326450  0.51338150  0.58005050  1
  C  53  1  0.71967950  0.53954350  0.57518050  1
  C  54  1  0.75694300  0.54831350  0.55626250  1
  C  55  1  0.80466050  0.53268750  0.54417850  1
  C  56  1  0.66467700  0.55571000  0.58556900  1
  C  57  1  0.63508300  0.54620700  0.56938600  1
  C  58  1  0.64135050  0.55216550  0.54348550  1
  C  59  1  0.62164650  0.54044400  0.52739100  1
  C  60  1  0.59465800  0.52168950  0.53613050  1
  C  61  1  0.58850150  0.51527650  0.56174850  1
  C  62  1  0.60872000  0.52691400  0.57763100  1
  C  63  1  0.63970550  0.55327800  0.61370000  1
  C  64  1  0.66400900  0.58382750  0.58415550  1
  C  65  1  0.62816450  0.60264450  0.57462750  1
  C  66  1  0.62755850  0.62835850  0.57493850  1
  C  67  1  0.66297950  0.63683850  0.58473350  1
  C  68  1  0.69816000  0.61841950  0.59479950  1
  C  69  1  0.69804700  0.59282200  0.59477500  1
  C  70  1  0.66677500  0.54176100  0.63174500  1
  C  71  1  0.64176750  0.53949900  0.65720800  1
  C  72  1  0.58814900  0.54915000  0.66645900  1
  C  73  1  0.56110950  0.56175250  0.64890750  1
  C  74  1  0.58630050  0.56393350  0.62348050  1
  C  91  1  0.65936450  0.66245950  0.58713250  1
  C  92  1  0.86240150  0.49061300  0.53584900  1
  C  95  1  0.58041250  0.50809000  0.51952200  1
  C  97  1  0.56409300  0.54561750  0.69173050  1
  C  99  1  0.86741750  0.92159300  0.53564600  1
  C  100  1  0.84872500  0.90333050  0.52637150  1
  C  101  1  0.81344900  0.89115650  0.54219950  1
  C  102  1  0.79493300  0.89605200  0.56835400  1
  C  103  1  0.81315300  0.91502400  0.57711100  1
  C  104  1  0.84874900  0.92712850  0.56148450  1
  C  105  1  0.75032550  0.88565550  0.58451950  1
  C  106  1  0.70454350  0.90183300  0.57501600  1
  C  107  1  0.68485450  0.92772650  0.58099450  1
  C  108  1  0.64903100  0.94381250  0.56928150  1
  C  109  1  0.63076800  0.93507200  0.55053200  1
  C  110  1  0.65034850  0.90946850  0.54407650  1
  C  111  1  0.68647850  0.89359200  0.55570200  1
  C  112  1  0.75347300  0.85752750  0.58209150  1
  C  113  1  0.74825600  0.88706700  0.61263500  1
  C  114  1  0.70288200  0.89657450  0.63145850  1
  C  115  1  0.70259450  0.89624950  0.65717250  1
  C  116  1  0.74782000  0.88644450  0.66564450  1
  C  117  1  0.79307600  0.87641600  0.64721700  1
  C  118  1  0.79292650  0.87645850  0.62161850  1
  C  119  1  0.79859450  0.83947450  0.57059450  1
  C  120  1  0.79904400  0.81401150  0.56834250  1
  C  121  1  0.75466100  0.80476700  0.57798500  1
  C  122  1  0.71006550  0.82232600  0.59057400  1
  C  123  1  0.70983350  0.84775450  0.59274050  1
  C  140  1  0.74664100  0.88399650  0.69126750  1
  C  141  1  0.89797200  0.93554700  0.51938600  1
  C  144  1  0.59996900  0.95168200  0.53691600  1
  C  146  1  0.75588400  0.77949100  0.57447700  1
  C  148  1  0.35349250  0.52080850  0.96432650  1
  C  149  1  0.30720750  0.53904000  0.97359600  1
  C  150  1  0.27560200  0.55120700  0.95775900  1
  C  151  1  0.28821850  0.54632550  0.93159650  1
  C  152  1  0.33424750  0.52740900  0.92283300  1
  C  153  1  0.36627250  0.51529900  0.93847900  1
  C  154  1  0.24936700  0.55673100  0.91543900  1
  C  155  1  0.21022900  0.54056600  0.92495700  1
  C  156  1  0.22247100  0.51466650  0.91898750  1
  C  157  1  0.19102750  0.49857800  0.93070400  1
  C  158  1  0.14520250  0.50732600  0.94941000  1
  C  159  1  0.13266750  0.53294050  0.95583550  1
  C  160  1  0.16452050  0.54882700  0.94420900  1
  C  161  1  0.22196800  0.58486350  0.91787350  1
  C  162  1  0.27682750  0.55531950  0.88732250  1
  C  163  1  0.25985650  0.54576550  0.86850150  1
  C  164  1  0.28489550  0.54614450  0.84278250  1
  C  165  1  0.32868450  0.55602950  0.83429450  1
  C  166  1  0.34542750  0.56608450  0.85272950  1
  C  167  1  0.31978950  0.56599000  0.87833200  1
  C  168  1  0.23750050  0.60290550  0.92940550  1
  C  169  1  0.21022750  0.62836900  0.93166800  1
  C  170  1  0.16627550  0.63762200  0.92200400  1
  C  171  1  0.15187050  0.62007450  0.90938050  1
  C  172  1  0.17924350  0.59464800  0.90720000  1
  C  189  1  0.35039050  0.55871800  0.80866200  1
  C  190  1  0.38173150  0.50684100  0.98059200  1
  C  193  1  0.11733200  0.49072750  0.96300050  1
  C  195  1  0.13868850  0.66289300  0.92553200  1
  C  197  1  0.09678900  0.00691000  0.04971600  1
  C  198  1  0.12497850  0.99762750  0.06788750  1
  C  199  1  0.14449250  0.01346250  0.08001650  1
  C  200  1  0.13668400  0.03963100  0.07515700  1
  C  201  1  0.10945550  0.04840150  0.05628650  1
  C  202  1  0.08947100  0.03275950  0.04421350  1
  C  203  1  0.16512900  0.05579400  0.08555400  1
  C  204  1  0.22043150  0.04627450  0.06938550  1
  C  205  1  0.23405900  0.05221600  0.04347700  1
  C  206  1  0.28160250  0.04051150  0.02739050  1
  C  207  1  0.31868050  0.02181450  0.03614950  1
  C  208  1  0.30565450  0.01542700  0.06177500  1
  C  209  1  0.25789950  0.02703900  0.07765100  1
  C  210  1  0.16438750  0.05335700  0.11368600  1
  C  211  1  0.13908500  0.08391100  0.08414700  1
  C  212  1  0.16561100  0.10272000  0.07454400  1
  C  213  1  0.14019950  0.12843850  0.07489550  1
  C  214  1  0.08653150  0.13693400  0.08479500  1
  C  215  1  0.05973400  0.11851250  0.09489850  1
  C  216  1  0.08545600  0.09290900  0.09481700  1
  C  217  1  0.13082600  0.04181350  0.13172150  1
  C  218  1  0.13264400  0.03953800  0.15718200  1
  C  219  1  0.16733550  0.04920400  0.16644100  1
  C  220  1  0.19928700  0.06183150  0.14889750  1
  C  221  1  0.19731750  0.06403150  0.12347450  1
  C  238  1  0.06218950  0.16256400  0.08743400  1
  C  239  1  0.08220850  0.99066050  0.03588350  1
  C  242  1  0.36321550  0.00826300  0.01955500  1
  C  244  1  0.16974400  0.04561400  0.19169700  1
  C  246  1  0.18213050  0.43546350  0.45033150  1
  C  247  1  0.21917200  0.44474750  0.43213050  1
  C  248  1  0.26664100  0.42892650  0.41997050  1
  C  249  1  0.28022400  0.40277350  0.42487150  1
  C  250  1  0.24296250  0.39398700  0.44377000  1
  C  251  1  0.19527150  0.40962150  0.45586650  1
  C  252  1  0.33521850  0.38660000  0.41446500  1
  C  253  1  0.36484150  0.39611850  0.43062750  1
  C  254  1  0.35856400  0.39015600  0.45653000  1
  C  255  1  0.37835400  0.40184850  0.47260950  1
  C  256  1  0.40549750  0.42054100  0.46384700  1
  C  257  1  0.41165100  0.42695250  0.43823050  1
  C  258  1  0.39130550  0.41536800  0.42236500  1
  C  259  1  0.36018000  0.38903350  0.38633150  1
  C  260  1  0.33587650  0.35848300  0.41586400  1
  C  261  1  0.37161350  0.33966750  0.42545850  1
  C  262  1  0.37229450  0.31394750  0.42507650  1
  C  263  1  0.33702800  0.30546200  0.41516200  1
  C  264  1  0.30183850  0.32389650  0.40511650  1
  C  265  1  0.30187850  0.34949800  0.40521000  1
  C  266  1  0.33311150  0.40055500  0.36828800  1
  C  267  1  0.35812000  0.40282400  0.34282600  1
  C  268  1  0.41174350  0.39317400  0.33357400  1
  C  269  1  0.43877650  0.38055950  0.35112350  1
  C  270  1  0.41358050  0.37836700  0.37654800  1
  C  287  1  0.34093550  0.27982500  0.41251300  1
  C  288  1  0.13760800  0.45171150  0.46429350  1
  C  291  1  0.42003350  0.43401450  0.48043550  1
  C  293  1  0.43581200  0.39674100  0.30831200  1
  C  295  1  0.13251200  0.02084500  0.46437500  1
  C  296  1  0.15126650  0.03908200  0.47365400  1
  C  297  1  0.18656300  0.05124900  0.45783200  1
  C  298  1  0.20505900  0.04634700  0.43168000  1
  C  299  1  0.18673250  0.02743350  0.42289550  1
  C  300  1  0.15117400  0.01531600  0.43853100  1
  C  301  1  0.24964550  0.05675900  0.41550800  1
  C  302  1  0.29542700  0.04059100  0.42502400  1
  C  303  1  0.31505050  0.01469050  0.41904850  1
  C  304  1  0.35093350  0.99860300  0.43072600  1
  C  305  1  0.36925700  0.00734800  0.44944900  1
  C  306  1  0.34977550  0.03295900  0.45588300  1
  C  307  1  0.31364100  0.04884700  0.44427100  1
  C  308  1  0.24647550  0.08489150  0.41793950  1
  C  309  1  0.25172750  0.05535500  0.38739100  1
  C  310  1  0.29709200  0.04579650  0.36858050  1
  C  311  1  0.29739250  0.04612050  0.34286350  1
  C  312  1  0.25217200  0.05590500  0.33438300  1
  C  313  1  0.20692800  0.06597250  0.35280250  1
  C  314  1  0.20706050  0.06595300  0.37840000  1
  C  315  1  0.20135650  0.10293900  0.42944900  1
  C  316  1  0.20090400  0.12840200  0.43171400  1
  C  317  1  0.24527450  0.13765400  0.42206900  1
  C  318  1  0.28986600  0.12010050  0.40946650  1
  C  319  1  0.29009700  0.09467450  0.40728250  1
  C  336  1  0.25342100  0.05831750  0.30875950  1
  C  337  1  0.10200800  0.00684850  0.48062050  1
  C  340  1  0.40035600  0.99075350  0.46293050  1
  C  342  1  0.24408700  0.16291750  0.42562950  1
  C  344  1  0.64651000  0.42149200  0.03564600  1
  C  345  1  0.69280750  0.40327800  0.02636500  1
  C  346  1  0.72446100  0.39112800  0.04218800  1
  C  347  1  0.71190500  0.39604300  0.06833700  1
  C  348  1  0.66588950  0.41496450  0.07711350  1
  C  349  1  0.63379950  0.42704000  0.06148400  1
  C  350  1  0.75072600  0.38563500  0.08451100  1
  C  351  1  0.78982200  0.40182250  0.07499150  1
  C  352  1  0.77762100  0.42771150  0.08099050  1
  C  353  1  0.80911200  0.44378800  0.06930300  1
  C  354  1  0.85489350  0.43503200  0.05057800  1
  C  355  1  0.86742300  0.40942300  0.04413900  1
  C  356  1  0.83553950  0.39354500  0.05574800  1
  C  357  1  0.77811700  0.35750150  0.08208950  1
  C  358  1  0.72328150  0.38704150  0.11262950  1
  C  359  1  0.74031350  0.39657100  0.13144300  1
  C  360  1  0.71521300  0.39625650  0.15715850  1
  C  361  1  0.67129650  0.38647150  0.16563750  1
  C  362  1  0.65448750  0.37643650  0.14721750  1
  C  363  1  0.68020750  0.37645300  0.12162000  1
  C  364  1  0.76255000  0.33945450  0.07058350  1
  C  365  1  0.78982600  0.31399050  0.06831850  1
  C  366  1  0.83382300  0.30474400  0.07795000  1
  C  367  1  0.84828850  0.32230300  0.09053000  1
  C  368  1  0.82088150  0.34772550  0.09273450  1
  C  385  1  0.64930400  0.38406200  0.19126000  1
  C  386  1  0.61818900  0.43538900  0.01939700  1
  C  389  1  0.88294400  0.45161100  0.03711200  1
  C  391  1  0.86146800  0.27948250  0.07438450  1
  C  785  1  0.02015700  0.98379550  0.01513250  1
  C  787  1  0.03286650  0.95242950  0.98410450  1
  C  788  1  0.97986800  0.95859300  0.98488900  1
  C  790  1  0.96715850  0.98995950  0.01591650  1
  C  793  1  0.90887400  0.99954950  0.05480350  1
  C  797  1  0.09114850  0.94284250  0.94521750  1
  C  803  1  0.04788350  0.45857250  0.48486350  1
  C  805  1  0.99814250  0.48990200  0.51592200  1
  C  806  1  0.95210000  0.48375700  0.51509100  1
  C  808  1  0.00183750  0.45243350  0.48402650  1
  C  811  1  0.99207450  0.44290750  0.44510950  1
  C  815  1  0.00790600  0.49942800  0.55484000  1
  C  821  1  0.03278100  0.98633300  0.48743900  1
  C  823  1  0.01400600  0.95526200  0.51874400  1
  C  824  1  0.96715000  0.95611350  0.51257150  1
  C  826  1  0.98592100  0.98718550  0.48126950  1
  C  829  1  0.93726950  0.02610450  0.47173150  1
  C  833  1  0.06265050  0.91634050  0.52828350  1
  C  839  1  0.53528650  0.45608250  0.01258750  1
  C  841  1  0.51682000  0.48713450  0.98125850  1
  C  842  1  0.46462950  0.48630650  0.98742750  1
  C  844  1  0.48309700  0.45525500  0.01875900  1
  C  847  1  0.46377400  0.41634950  0.02832150  1
  C  851  1  0.53614650  0.52603950  0.97168850  1
  C  857  1  0.48056500  0.45581150  0.48730350  1
  C  859  1  0.46682800  0.48676800  0.51889300  1
  C  860  1  0.51959450  0.48651100  0.51267800  1
  C  862  1  0.53332500  0.45555700  0.48108700  1
  C  865  1  0.59263600  0.41699850  0.47118750  1
  C  869  1  0.40751850  0.52532450  0.52879750  1
  C  875  1  0.45241000  0.98657850  0.01268050  1
  C  877  1  0.50115050  0.95562950  0.98107750  1
  C  878  1  0.54745900  0.95585850  0.98728750  1
  C  880  1  0.49872250  0.98681400  0.01888600  1
  C  883  1  0.50962700  0.02536000  0.02878600  1
  C  887  1  0.49027050  0.91707750  0.97117350  1
  C  893  1  0.46783600  0.98389950  0.48466550  1
  C  895  1  0.48571000  0.95231950  0.51562550  1
  C  896  1  0.53227250  0.95852900  0.51534900  1
  C  898  1  0.51439200  0.99011100  0.48439100  1
  C  901  1  0.56377850  0.00000000  0.44582100  1
  C  905  1  0.43631000  0.94243300  0.55419300  1
  C  911  1  0.96526250  0.45847150  0.01532150  1
  C  913  1  0.98245650  0.49006500  0.98436700  1
  C  914  1  0.03496300  0.48385900  0.98462100  1
  C  916  1  0.01776700  0.45226400  0.01557500  1
  C  919  1  0.03849950  0.44237200  0.05413900  1
  C  923  1  0.96168550  0.49995700  0.94581200  1
  C  1073  1  0.78366250  0.89066000  0.72461800  1
  C  1075  1  0.77610250  0.87041650  0.76499450  1
  C  1076  1  0.79937650  0.88713650  0.77359350  1
  C  1078  1  0.80713300  0.90731300  0.73317000  1
  C  1081  1  0.78740500  0.94941750  0.72137450  1
  C  1085  1  0.79603550  0.82830350  0.77679150  1
  C  1091  1  0.42752150  0.55174850  0.77540850  1
  C  1093  1  0.44023500  0.57197600  0.73502200  1
  C  1094  1  0.48880650  0.55523150  0.72644750  1
  C  1096  1  0.47616750  0.53506400  0.76687800  1
  C  1099  1  0.48670500  0.49296000  0.77866600  1
  C  1103  1  0.42994500  0.61408250  0.72321750  1
  C  1109  1  0.70312000  0.69580250  0.58054450  1
  C  1111  1  0.67526350  0.73619650  0.60075250  1
  C  1112  1  0.71530500  0.74478200  0.58405300  1
  C  1114  1  0.74328000  0.70433900  0.56390800  1
  C  1117  1  0.76575650  0.69251800  0.52180900  1
  C  1121  1  0.65295900  0.74802750  0.64285850  1
  C  1127  1  0.00825950  0.74657350  0.91945350  1
  C  1129  1  0.04107050  0.70618150  0.89924050  1
  C  1130  1  0.07298850  0.69760650  0.91594450  1
  C  1132  1  0.04031100  0.73804450  0.93609550  1
  C  1135  1  0.00884750  0.74985800  0.97819600  1
  C  1139  1  0.07273350  0.69436350  0.85713150  1
  C  1145  1  0.21629300  0.05173250  0.27540250  1
  C  1147  1  0.22388100  0.07197250  0.23502550  1
  C  1148  1  0.20058450  0.05526100  0.22642600  1
  C  1150  1  0.19279600  0.03509100  0.26685400  1
  C  1153  1  0.21247850  0.99298450  0.27865150  1
  C  1157  1  0.20400350  0.11408300  0.22321900  1
  C  1163  1  0.57221350  0.39063750  0.22460850  1
  C  1165  1  0.55968200  0.37041950  0.26499750  1
  C  1166  1  0.51105550  0.38711850  0.27358850  1
  C  1168  1  0.52351750  0.40727550  0.23315350  1
  C  1171  1  0.51285750  0.44937600  0.22133500  1
  C  1175  1  0.57017000  0.32831100  0.27682000  1
  C  1181  1  0.29700900  0.24658900  0.41944500  1
  C  1183  1  0.32470150  0.20618600  0.39925000  1
  C  1184  1  0.28465750  0.19762900  0.41597600  1
  C  1186  1  0.25684300  0.23807700  0.43610900  1
  C  1189  1  0.23442000  0.24989900  0.47820700  1
  C  1193  1  0.34693850  0.19434700  0.35714800  1
  C  1199  1  0.99187000  0.19580750  0.08055550  1
  C  1201  1  0.95895550  0.23620300  0.10076400  1
  C  1202  1  0.92709050  0.24476600  0.08403400  1
  C  1204  1  0.95986700  0.20432500  0.06388800  1
  C  1207  1  0.99139350  0.19252250  0.02178450  1
  C  1211  1  0.92721800  0.24802200  0.14287000  1
  H  26  1  0.83823400  0.80129950  0.93178450  1
  H  27  1  0.79536500  0.84443500  0.93201000  1
  H  28  1  0.97875150  0.81875450  0.89692150  1
  H  29  1  0.93583800  0.86191250  0.89719250  1
  H  30  1  0.89596200  0.90747950  0.87345750  1
  H  31  1  0.89210050  0.91181000  0.83093300  1
  H  32  1  0.77487900  0.87310900  0.84563300  1
  H  33  1  0.77808150  0.86930400  0.88835600  1
  H  34  1  0.75011850  0.92230400  0.90457500  1
  H  35  1  0.67013600  0.94121200  0.93112200  1
  H  36  1  0.71165200  0.89709350  0.99120850  1
  H  37  1  0.79187400  0.87771500  0.96432400  1
  H  38  1  0.89424300  0.87597400  0.94999000  1
  H  39  1  0.83363900  0.93707850  0.90785950  1
  H  40  1  0.86707350  0.96354200  0.92799200  1
  H  41  1  0.92828550  0.90216650  0.96968850  1
  H  44  1  0.85113800  0.90758750  0.79779650  1
  H  45  1  0.91646300  0.76823550  0.91136050  1
  H  47  1  0.63594100  0.93335750  0.99857350  1
  H  49  1  0.90010700  0.96985550  0.96424550  1
  H  75  1  0.60007100  0.64104300  0.56823200  1
  H  76  1  0.60050250  0.59791350  0.56805250  1
  H  77  1  0.72327800  0.62358500  0.60303100  1
  H  78  1  0.72371450  0.58043250  0.60281750  1
  H  79  1  0.70563100  0.53485950  0.62657550  1
  H  80  1  0.66357850  0.53054650  0.66910750  1
  H  81  1  0.52235900  0.56924450  0.65440550  1
  H  82  1  0.56446900  0.57302600  0.61167600  1
  H  83  1  0.60594800  0.51995700  0.59540900  1
  H  84  1  0.57168700  0.50094950  0.56882650  1
  H  85  1  0.62884450  0.54521000  0.50880100  1
  H  86  1  0.66257850  0.56465700  0.53571900  1
  H  87  1  0.74887650  0.56636400  0.55000000  1
  H  88  1  0.70737400  0.50525900  0.59214300  1
  H  89  1  0.78737050  0.47880350  0.57197050  1
  H  90  1  0.82879000  0.54019050  0.53026350  1
  H  93  1  0.58513650  0.53461700  0.70220200  1
  H  94  1  0.62489250  0.67409500  0.58874500  1
  H  96  1  0.59658150  0.50918850  0.50134250  1
  H  98  1  0.86289500  0.47251350  0.53566350  1
  H  124  1  0.66839350  0.90292200  0.66986200  1
  H  125  1  0.66863700  0.90313800  0.62673200  1
  H  126  1  0.82642200  0.86816800  0.65237600  1
  H  127  1  0.82663900  0.86842700  0.60922400  1
  H  128  1  0.83228550  0.84463950  0.56370350  1
  H  129  1  0.83275700  0.80210700  0.55940600  1
  H  130  1  0.67680950  0.81683150  0.59806450  1
  H  131  1  0.67619700  0.85956150  0.60182750  1
  H  132  1  0.70153900  0.87582450  0.54872550  1
  H  133  1  0.64065450  0.90239500  0.52973200  1
  H  134  1  0.63760200  0.96239900  0.57406100  1
  H  135  1  0.69828850  0.93549550  0.59349550  1
  H  136  1  0.79880700  0.92128300  0.59516200  1
  H  137  1  0.79971200  0.87903500  0.53408100  1
  H  138  1  0.85941350  0.89926150  0.50761950  1
  H  139  1  0.85883000  0.94109750  0.56897250  1
  H  142  1  0.78742100  0.76901100  0.56350000  1
  H  143  1  0.71373100  0.88235050  0.70282850  1
  H  145  1  0.59792950  0.96986750  0.53799250  1
  H  147  1  0.89879000  0.93538100  0.50125400  1
  H  173  1  0.27006100  0.53946500  0.83009500  1
  H  174  1  0.22750150  0.53915900  0.87323000  1
  H  175  1  0.37552800  0.57444050  0.84756450  1
  H  176  1  0.33300950  0.57406000  0.89072500  1
  H  177  1  0.26944350  0.59773550  0.93631350  1
  H  178  1  0.22307200  0.64026400  0.94063000  1
  H  179  1  0.12063200  0.62557550  0.90187350  1
  H  180  1  0.16653050  0.58284800  0.89808900  1
  H  181  1  0.15477000  0.56660850  0.95115750  1
  H  182  1  0.10143900  0.54003100  0.97011700  1
  H  183  1  0.20300300  0.47998550  0.92595050  1
  H  184  1  0.25624850  0.50688800  0.90654100  1
  H  185  1  0.34428600  0.52117800  0.90477000  1
  H  186  1  0.24158250  0.56330150  0.96587250  1
  H  187  1  0.29502150  0.54308900  0.99235300  1
  H  188  1  0.39789250  0.50137050  0.93098950  1
  H  191  1  0.14882550  0.67337900  0.93648100  1
  H  192  1  0.32745500  0.55995000  0.79715500  1
  H  194  1  0.13468050  0.47255600  0.96200500  1
  H  196  1  0.36415850  0.50705550  0.99871350  1
  H  222  1  0.16171400  0.14112050  0.06818850  1
  H  223  1  0.20456950  0.09798800  0.06792400  1
  H  224  1  0.02127100  0.12368500  0.10323500  1
  H  225  1  0.06416250  0.08052200  0.10290500  1
  H  226  1  0.10406850  0.03489550  0.12654650  1
  H  227  1  0.10793700  0.03055350  0.16906850  1
  H  228  1  0.22503850  0.06932750  0.15439850  1
  H  229  1  0.22182800  0.07314650  0.11167750  1
  H  230  1  0.24991700  0.02013300  0.09545300  1
  H  231  1  0.32983200  0.00117300  0.06887500  1
  H  232  1  0.28818150  0.04523150  0.00879050  1
  H  233  1  0.20803750  0.06464350  0.03569650  1
  H  234  1  0.10556750  0.06647350  0.05007450  1
  H  235  1  0.16645950  0.00534650  0.09209250  1
  H  236  1  0.13309750  0.97887200  0.07194400  1
  H  237  1  0.07158950  0.04026500  0.03035400  1
  H  240  1  0.14868950  0.03487950  0.20224250  1
  H  241  1  0.08375700  0.17416200  0.08859600  1
  H  243  1  0.36391250  0.00918900  0.00139500  1
  H  245  1  0.10000500  0.97256700  0.03577000  1
  H  271  1  0.39982750  0.30125950  0.43174850  1
  H  272  1  0.39927450  0.34439150  0.43204150  1
  H  273  1  0.27687600  0.31873100  0.39677800  1
  H  274  1  0.27626250  0.36189350  0.39714250  1
  H  275  1  0.29425800  0.40745900  0.37345900  1
  H  276  1  0.33631250  0.41179050  0.33093250  1
  H  277  1  0.47752750  0.37306850  0.34562550  1
  H  278  1  0.43541050  0.36926250  0.38834750  1
  H  279  1  0.39417550  0.42228850  0.40456950  1
  H  280  1  0.42866950  0.44120700  0.43112600  1
  H  281  1  0.37113900  0.39709600  0.49120400  1
  H  282  1  0.33722350  0.37771450  0.46431150  1
  H  283  1  0.25102250  0.37593150  0.45002150  1
  H  284  1  0.29252800  0.43704800  0.40787300  1
  H  285  1  0.21254350  0.46349900  0.42805800  1
  H  286  1  0.17114200  0.40212650  0.46979050  1
  H  289  1  0.41459150  0.40749800  0.29777000  1
  H  290  1  0.37535850  0.26830850  0.41132250  1
  H  292  1  0.40337450  0.43328450  0.49860350  1
  H  294  1  0.13714300  0.46982100  0.46418500  1
  H  320  1  0.33159450  0.03942650  0.33018050  1
  H  321  1  0.33134050  0.03925800  0.37330900  1
  H  322  1  0.17357800  0.07420100  0.34763600  1
  H  323  1  0.17335150  0.07399550  0.39078850  1
  H  324  1  0.16767150  0.09776850  0.43634850  1
  H  325  1  0.16719750  0.14029750  0.44067150  1
  H  326  1  0.32312200  0.12559550  0.40198050  1
  H  327  1  0.32373300  0.08287200  0.39818600  1
  H  328  1  0.29867300  0.06663050  0.45121650  1
  H  329  1  0.35970550  0.04005500  0.47013700  1
  H  330  1  0.36233000  0.98001400  0.42595600  1
  H  331  1  0.30153350  0.00692500  0.40657800  1
  H  332  1  0.20109350  0.02116300  0.40484800  1
  H  333  1  0.20029950  0.06337300  0.46594700  1
  H  334  1  0.14055400  0.04315700  0.49240600  1
  H  335  1  0.14104850  0.00136250  0.43104150  1
  H  338  1  0.21236200  0.17345700  0.43641500  1
  H  339  1  0.28628450  0.05993200  0.29713300  1
  H  341  1  0.40206900  0.97257350  0.46209150  1
  H  343  1  0.10124550  0.00705200  0.49874300  1
  H  369  1  0.73004750  0.40294050  0.16984350  1
  H  370  1  0.77273750  0.40312400  0.12671000  1
  H  371  1  0.62420850  0.36820300  0.15238300  1
  H  372  1  0.66691600  0.36841900  0.10922900  1
  H  373  1  0.73058000  0.34462050  0.06369450  1
  H  374  1  0.77696150  0.30209150  0.05937050  1
  H  375  1  0.87957100  0.31681050  0.09800450  1
  H  376  1  0.83365650  0.35953400  0.10180300  1
  H  377  1  0.84527600  0.37576250  0.04879950  1
  H  378  1  0.89870450  0.40231950  0.02988850  1
  H  379  1  0.79721650  0.46237050  0.07409750  1
  H  380  1  0.74388450  0.43547900  0.09347300  1
  H  381  1  0.65589200  0.42121800  0.09516800  1
  H  382  1  0.75843600  0.37899950  0.03407550  1
  H  383  1  0.70489300  0.39917400  0.00761800  1
  H  384  1  0.60218550  0.44096800  0.06898000  1
  H  387  1  0.85109950  0.26895500  0.06357300  1
  H  388  1  0.67214550  0.38244550  0.20289350  1
  H  390  1  0.86554100  0.46977950  0.03788150  1
  H  392  1  0.63563650  0.43535950  0.00126550  1
  H  794  1  0.88268800  0.01553300  0.06563200  1
  H  795  1  0.93689900  0.99047000  0.06541200  1
  H  796  1  0.88653850  0.98649700  0.05247900  1
  H  798  1  0.11733500  0.92686000  0.93438700  1
  H  799  1  0.11348600  0.95589350  0.94754150  1
  H  800  1  0.06312350  0.95192250  0.93460950  1
  H  812  1  0.99272700  0.42694100  0.43424900  1
  H  813  1  0.02162700  0.45200300  0.43452800  1
  H  814  1  0.95435900  0.45595500  0.44744100  1
  H  816  1  0.00725750  0.51539400  0.56569900  1
  H  817  1  0.04562200  0.48637800  0.55250800  1
  H  818  1  0.97835350  0.49033400  0.56542100  1
  H  830  1  0.92711000  0.03697350  0.45575950  1
  H  831  1  0.95619050  0.03668500  0.48086000  1
  H  832  1  0.90185900  0.02376600  0.48475200  1
  H  834  1  0.07281000  0.90547400  0.54425700  1
  H  835  1  0.09806050  0.91867550  0.51526150  1
  H  836  1  0.04371950  0.90576250  0.51916050  1
  H  848  1  0.44847900  0.40549800  0.04430000  1
  H  849  1  0.50240400  0.40575850  0.01920850  1
  H  850  1  0.43906600  0.41868350  0.01529250  1
  H  852  1  0.55144100  0.53688900  0.95570900  1
  H  853  1  0.56085700  0.52370600  0.98471700  1
  H  854  1  0.49752000  0.53663200  0.98080000  1
  H  866  1  0.61911450  0.40641000  0.45512400  1
  H  867  1  0.56505650  0.40610400  0.48011900  1
  H  868  1  0.61475350  0.41941000  0.48431000  1
  H  870  1  0.38104800  0.53591300  0.54486100  1
  H  871  1  0.38539450  0.52291350  0.51567750  1
  H  872  1  0.43509650  0.53622100  0.51986200  1
  H  884  1  0.50948550  0.03594050  0.04484850  1
  H  885  1  0.48007450  0.03626550  0.01986450  1
  H  886  1  0.54727050  0.02294450  0.01565450  1
  H  888  1  0.49040800  0.90649950  0.95511150  1
  H  889  1  0.45263800  0.91948400  0.98431200  1
  H  890  1  0.51983950  0.90617650  0.98008650  1
  H  902  1  0.57418850  0.01606000  0.43522500  1
  H  903  1  0.54511600  0.99106450  0.43493550  1
  H  904  1  0.59902250  0.98687800  0.44822800  1
  H  906  1  0.42590400  0.92637350  0.56479150  1
  H  907  1  0.40106350  0.95554950  0.55177850  1
  H  908  1  0.45495450  0.95137800  0.56508000  1
  H  920  1  0.05439800  0.42631250  0.06472850  1
  H  921  1  0.00001200  0.45129350  0.06502950  1
  H  922  1  0.06300350  0.45550500  0.05173500  1
  H  924  1  0.94579300  0.51601850  0.93522250  1
  H  925  1  0.93715600  0.48683600  0.94822900  1
  H  926  1  0.00016100  0.49102300  0.93491400  1
  H  1082  1  0.80385000  0.96277450  0.70862350  1
  H  1083  1  0.77900200  0.95637150  0.74049150  1
  H  1084  1  0.75174500  0.94845500  0.71690900  1
  H  1086  1  0.77964300  0.81492800  0.78953800  1
  H  1087  1  0.83164750  0.82931550  0.78127350  1
  H  1088  1  0.80450350  0.82134200  0.75767300  1
  H  1100  1  0.50369000  0.47960350  0.79143750  1
  H  1101  1  0.50445000  0.48600550  0.75955450  1
  H  1102  1  0.44562050  0.49392200  0.78308700  1
  H  1104  1  0.41297600  0.62746150  0.71045750  1
  H  1105  1  0.47105650  0.61305550  0.71875850  1
  H  1106  1  0.41230350  0.62105000  0.74233300  1
  H  1118  1  0.79558000  0.67975650  0.50846950  1
  H  1119  1  0.76433400  0.71163050  0.51484550  1
  H  1120  1  0.72913850  0.68805750  0.52275150  1
  H  1122  1  0.62316500  0.76078450  0.65621150  1
  H  1123  1  0.68957700  0.75250950  0.64186950  1
  H  1124  1  0.65444600  0.72891350  0.64983050  1
  H  1136  1  0.01254250  0.76262650  0.99153650  1
  H  1137  1  0.01960350  0.73074700  0.98515900  1
  H  1138  1  0.96871150  0.75430300  0.97725400  1
  H  1140  1  0.06907600  0.68160250  0.84377250  1
  H  1141  1  0.11284050  0.68989550  0.85812250  1
  H  1142  1  0.06205050  0.71347700  0.85016300  1
  H  1154  1  0.19601750  0.97963450  0.29140450  1
  H  1155  1  0.22087700  0.98603050  0.25953450  1
  H  1156  1  0.24814550  0.99393750  0.28311650  1
  H  1158  1  0.22041400  0.12745150  0.21047050  1
  H  1159  1  0.16838400  0.11308200  0.21873600  1
  H  1160  1  0.19553450  0.12104650  0.24233750  1
  H  1172  1  0.49579100  0.46271500  0.20857700  1
  H  1173  1  0.49517950  0.45633850  0.24044750  1
  H  1174  1  0.55393850  0.44843250  0.21686750  1
  H  1176  1  0.58721350  0.31495550  0.28957550  1
  H  1177  1  0.52907300  0.32929550  0.28130150  1
  H  1178  1  0.58780200  0.32134200  0.25770500  1
  H  1190  1  0.20464150  0.26268400  0.49154300  1
  H  1191  1  0.23575350  0.23079400  0.48517400  1
  H  1192  1  0.27108050  0.25431600  0.47726300  1
  H  1194  1  0.37669500  0.18157250  0.34379350  1
  H  1195  1  0.31029050  0.18989650  0.35814650  1
  H  1196  1  0.34551050  0.21345450  0.35016850  1
  H  1208  1  0.98775100  0.17974300  0.00843900  1
  H  1209  1  0.98058900  0.21163100  0.01482500  1
  H  1210  1  0.03152300  0.18810550  0.02273650  1
  H  1212  1  0.93083150  0.26079050  0.15623450  1
  H  1213  1  0.88712000  0.25247350  0.14186350  1
  H  1214  1  0.93791850  0.22891100  0.14984200  1
  N  786  1  0.05052300  0.96507150  0.99913050  1
  N  789  1  0.94950300  0.97731750  0.00089050  1
  N  801  1  0.03873700  0.99639500  0.02922900  1
  N  802  1  0.96128650  0.94600300  0.97078500  1
  N  804  1  0.04348400  0.47727250  0.50090250  1
  N  807  1  0.95649450  0.46506050  0.49905050  1
  N  819  1  0.09318600  0.44599850  0.47076350  1
  N  820  1  0.90681050  0.49634000  0.52919200  1
  N  822  1  0.04436150  0.97027950  0.50613950  1
  N  825  1  0.95556550  0.97216850  0.49387350  1
  N  837  1  0.06401900  0.00042950  0.47488750  1
  N  838  1  0.93590850  0.94202100  0.52512700  1
  N  840  1  0.54956250  0.47211450  0.99387350  1
  N  843  1  0.45035800  0.47027400  0.00614100  1
  N  855  1  0.56803750  0.44197900  0.02514900  1
  N  856  1  0.43187250  0.50040050  0.97486250  1
  N  858  1  0.44978350  0.47154550  0.50616350  1
  N  861  1  0.55036800  0.47077500  0.49381900  1
  N  873  1  0.46256650  0.44154900  0.47458300  1
  N  874  1  0.53763150  0.50077400  0.52538200  1
  N  876  1  0.45617850  0.97085700  0.99381900  1
  N  879  1  0.54369650  0.97158250  0.00614650  1
  N  891  1  0.40744100  0.00085150  0.02539950  1
  N  892  1  0.59241850  0.94158950  0.97455750  1
  N  894  1  0.45591700  0.96504650  0.50041050  1
  N  897  1  0.54418300  0.97738300  0.49960400  1
  N  909  1  0.43709450  0.99661400  0.47041000  1
  N  910  1  0.56302100  0.94583050  0.52961250  1
  N  912  1  0.95020050  0.47732800  0.99958800  1
  N  915  1  0.05001700  0.46500200  0.00035600  1
  N  927  1  0.93300750  0.44574750  0.02958250  1
  N  928  1  0.06724200  0.49657050  0.97035550  1
  N  1074  1  0.76906850  0.87293350  0.74124150  1
  N  1077  1  0.81405900  0.90481600  0.75693100  1
  N  1089  1  0.77781800  0.89220000  0.70104800  1
  N  1090  1  0.80604300  0.88526100  0.79704200  1
  N  1092  1  0.41191000  0.56947400  0.75876500  1
  N  1095  1  0.50442600  0.53754700  0.74312300  1
  N  1107  1  0.39951800  0.55021850  0.79895950  1
  N  1108  1  0.51708550  0.55710200  0.70300500  1
  N  1110  1  0.67074800  0.71244200  0.59824000  1
  N  1113  1  0.74771000  0.72810450  0.56639850  1
  N  1125  1  0.69878750  0.67223650  0.57900250  1
  N  1126  1  0.72010500  0.76822950  0.58592850  1
  N  1128  1  0.01026450  0.72992950  0.90175250  1
  N  1131  1  0.07102500  0.71428500  0.93360400  1
  N  1143  1  0.97876300  0.77013000  0.92099800  1
  N  1144  1  0.10312450  0.67416250  0.91406750  1
  N  1146  1  0.23091450  0.06945100  0.25877800  1
  N  1149  1  0.18587700  0.03758850  0.24309050  1
  N  1161  1  0.22214150  0.05018900  0.29897200  1
  N  1162  1  0.19393100  0.05713250  0.20297550  1
  N  1164  1  0.58794650  0.37293750  0.24124450  1
  N  1167  1  0.49533000  0.40477950  0.25691750  1
  N  1179  1  0.60010450  0.39218750  0.20104350  1
  N  1180  1  0.48282050  0.38524750  0.29703950  1
  N  1182  1  0.32929650  0.22992850  0.40174550  1
  N  1185  1  0.25233050  0.21432350  0.43363650  1
  N  1197  1  0.30147350  0.27013850  0.42096850  1
  N  1198  1  0.27982100  0.17418550  0.41412350  1
  N  1200  1  0.98978900  0.21246100  0.09826300  1
  N  1203  1  0.92912800  0.22807900  0.06636600  1
  N  1215  1  0.02142350  0.17226100  0.07902300  1
  N  1216  1  0.89695450  0.26821000  0.08589400  1
  O  791  1  0.93324900  0.00863700  0.03104000  1
  O  792  1  0.06677550  0.93375350  0.96898050  1
  O  809  1  0.00175900  0.43378100  0.46886600  1
  O  810  1  0.99822450  0.50855500  0.53108300  1
  O  827  1  0.97074050  0.00235550  0.46260850  1
  O  828  1  0.02918700  0.94009300  0.53740500  1
  O  845  1  0.46438600  0.44010500  0.03742800  1
  O  846  1  0.53553050  0.50228400  0.96258600  1
  O  863  1  0.56762350  0.44072650  0.46229250  1
  O  864  1  0.43254200  0.50159650  0.53768850  1
  O  881  1  0.49943250  0.00163500  0.03767900  1
  O  882  1  0.50043700  0.94081000  0.96228400  1
  O  899  1  0.52988700  0.00890050  0.46955050  1
  O  900  1  0.47021950  0.93353000  0.53046800  1
  O  917  1  0.03724350  0.43347450  0.03040650  1
  O  918  1  0.96298450  0.50885550  0.96953450  1
  O  1079  1  0.82412900  0.92554350  0.71798450  1
  O  1080  1  0.75921750  0.85214750  0.78016650  1
  O  1097  1  0.49613300  0.51683350  0.78208350  1
  O  1098  1  0.42031950  0.59024800  0.71983400  1
  O  1115  1  0.77853850  0.68914250  0.54569850  1
  O  1116  1  0.64006700  0.75138400  0.61899500  1
  O  1133  1  0.04213050  0.75324850  0.95430850  1
  O  1134  1  0.03933850  0.69099100  0.88099100  1
  O  1151  1  0.17577850  0.01686600  0.28204000  1
  O  1152  1  0.24079450  0.09023200  0.21984900  1
  O  1169  1  0.50344850  0.42548750  0.21795850  1
  O  1170  1  0.57969500  0.35217400  0.28018300  1
  O  1187  1  0.22164400  0.25329950  0.45431650  1
  O  1188  1  0.35984950  0.19097800  0.38100600  1
  O  1205  1  0.95811450  0.18911000  0.04566900  1
  O  1206  1  0.96063050  0.25140250  0.11901850  1
