# generated using pymatgen
data_ZnH12C16(NO2)2
_symmetry_space_group_name_H-M   'P 1'
_cell_length_a   9.02695000
_cell_length_b   11.61228870
_cell_length_c   13.43816000
_cell_angle_alpha   87.62707966
_cell_angle_beta   83.81817000
_cell_angle_gamma   67.27600439
_symmetry_Int_Tables_number   1
_chemical_formula_structural   ZnH12C16(NO2)2
_chemical_formula_sum   'Zn2 H24 C32 N4 O8'
_cell_volume   1291.73704588
_cell_formula_units_Z   2
loop_
 _symmetry_equiv_pos_site_id
 _symmetry_equiv_pos_as_xyz
  1  'x, y, z'
loop_
 _atom_site_type_symbol
 _atom_site_label
 _atom_site_symmetry_multiplicity
 _atom_site_fract_x
 _atom_site_fract_y
 _atom_site_fract_z
 _atom_site_occupancy
  Zn  Zn0  1  0.14855000  0.70184000  0.24962000  1
  Zn  Zn1  1  0.85145000  0.29816000  0.75038000  1
  H  H2  1  0.53640000  0.60515000  0.94259000  1
  H  H3  1  0.04542000  0.94396000  0.13739000  1
  H  H4  1  0.81188000  0.07374000  0.04223000  1
  H  H5  1  0.60513000  0.79776000  0.11946000  1
  H  H6  1  0.84121000  0.68515000  0.21536000  1
  H  H7  1  0.56771000  0.10387000  0.97937000  1
  H  H8  1  0.85921000  0.60534000  0.55740000  1
  H  H9  1  0.01091000  0.94337000  0.36229000  1
  H  H10  1  0.11466000  0.07325000  0.45755000  1
  H  H11  1  0.59630000  0.79787000  0.38031000  1
  H  H12  1  0.47301000  0.68515000  0.28426000  1
  H  H13  1  0.32883000  0.10364000  0.52062000  1
  H  H14  1  0.46359000  0.39485000  0.05741000  1
  H  H15  1  0.95458000  0.05604000  0.86261000  1
  H  H16  1  0.18811000  0.92626000  0.95777000  1
  H  H17  1  0.39487000  0.20224000  0.88054000  1
  H  H18  1  0.15879000  0.31485000  0.78464000  1
  H  H19  1  0.43229000  0.89613000  0.02063000  1
  H  H20  1  0.14079000  0.39466000  0.44260000  1
  H  H21  1  0.98909000  0.05663000  0.63771000  1
  H  H22  1  0.88534000  0.92675000  0.54245000  1
  H  H23  1  0.40369000  0.20213000  0.61969000  1
  H  H24  1  0.52699000  0.31484000  0.71573000  1
  H  H25  1  0.67116000  0.89636000  0.47938000  1
  C  C26  1  0.36904000  0.64483000  0.08115000  1
  C  C27  1  0.48249000  0.56171000  0.00123000  1
  C  C28  1  0.94345000  0.91718000  0.13251000  1
  C  C29  1  0.81513000  0.98741000  0.07903000  1
  C  C30  1  0.68950000  0.94570000  0.07085000  1
  C  C31  1  0.69893000  0.83455000  0.12156000  1
  C  C32  1  0.82967000  0.77109000  0.17507000  1
  C  C33  1  0.56018000  0.01750000  0.00998000  1
  C  C34  1  0.98418000  0.64429000  0.41735000  1
  C  C35  1  0.95535000  0.56152000  0.49825000  1
  C  C36  1  0.13946000  0.91662000  0.36721000  1
  C  C37  1  0.19765000  0.98701000  0.42074000  1
  C  C38  1  0.36469000  0.94554000  0.42904000  1
  C  C39  1  0.46595000  0.83453000  0.37821000  1
  C  C40  1  0.39861000  0.77091000  0.32463000  1
  C  C41  1  0.42245000  0.01740000  0.48997000  1
  C  C42  1  0.63096000  0.35517000  0.91885000  1
  C  C43  1  0.51751000  0.43829000  0.99876000  1
  C  C44  1  0.05656000  0.08281000  0.86749000  1
  C  C45  1  0.18487000  0.01259000  0.92097000  1
  C  C46  1  0.31050000  0.05430000  0.92915000  1
  C  C47  1  0.30106000  0.16545000  0.87843000  1
  C  C48  1  0.17032000  0.22891000  0.82493000  1
  C  C49  1  0.43981000  0.98250000  0.99001000  1
  C  C50  1  0.01582000  0.35571000  0.58265000  1
  C  C51  1  0.04464000  0.43848000  0.50175000  1
  C  C52  1  0.86053000  0.08338000  0.63279000  1
  C  C53  1  0.80236000  0.01298000  0.57925000  1
  C  C54  1  0.63532000  0.05445000  0.57096000  1
  C  C55  1  0.53406000  0.16546000  0.62179000  1
  C  C56  1  0.60139000  0.22909000  0.67537000  1
  C  C57  1  0.57755000  0.98260000  0.51003000  1
  N  N58  1  0.95184000  0.81023000  0.17982000  1
  N  N59  1  0.23757000  0.80966000  0.31987000  1
  N  N60  1  0.04817000  0.18976000  0.82018000  1
  N  N61  1  0.76242000  0.19034000  0.68012000  1
  O  O62  1  0.31392000  0.58934000  0.15310000  1
  O  O63  1  0.33305000  0.76092000  0.07577000  1
  O  O64  1  0.09133000  0.58898000  0.34371000  1
  O  O65  1  0.90633000  0.76049000  0.42401000  1
  O  O66  1  0.68608000  0.41066000  0.84690000  1
  O  O67  1  0.66694000  0.23908000  0.92423000  1
  O  O68  1  0.90867000  0.41102000  0.65629000  1
  O  O69  1  0.09367000  0.23951000  0.57599000  1
