# generated using pymatgen
data_AgH28(C19N2)2
_symmetry_space_group_name_H-M   'P 1'
_cell_length_a   16.71044000
_cell_length_b   16.70936000
_cell_length_c   17.82527956
_cell_angle_alpha   117.92499115
_cell_angle_beta   117.89372635
_cell_angle_gamma   90.07407000
_symmetry_Int_Tables_number   1
_chemical_formula_structural   AgH28(C19N2)2
_chemical_formula_sum   'Ag4 H112 C152 N16'
_cell_volume   3728.72423768
_cell_formula_units_Z   4
loop_
 _symmetry_equiv_pos_site_id
 _symmetry_equiv_pos_as_xyz
  1  'x, y, z'
loop_
 _atom_site_type_symbol
 _atom_site_label
 _atom_site_symmetry_multiplicity
 _atom_site_fract_x
 _atom_site_fract_y
 _atom_site_fract_z
 _atom_site_occupancy
  Ag  Ag0  1  0.36473000  0.36465000  0.72972000  1
  Ag  Ag1  1  0.63485000  0.63496000  0.27022000  1
  Ag  Ag2  1  0.38525000  0.88537000  0.77023000  1
  Ag  Ag3  1  0.11508000  0.61496000  0.22973000  1
  H  H4  1  0.42383000  0.11608000  0.46030000  1
  H  H5  1  0.46835000  0.05339000  0.33445000  1
  H  H6  1  0.60148000  0.33739000  0.44078000  1
  H  H7  1  0.55471000  0.40091000  0.56359000  1
  H  H8  1  0.46549000  0.17017000  0.19202000  1
  H  H9  1  0.56323000  0.27204000  0.28578000  1
  H  H10  1  0.71163000  0.26372000  0.42156000  1
  H  H11  1  0.46960000  0.01816000  0.19517000  1
  H  H12  1  0.57215000  0.01623000  0.29058000  1
  H  H13  1  0.58410000  0.03188000  0.06181000  1
  H  H14  1  0.42102000  0.13421000  0.86057000  1
  H  H15  1  0.47095000  0.06901000  0.96680000  1
  H  H16  1  0.62591000  0.34955000  0.23002000  1
  H  H17  1  0.57643000  0.41601000  0.12333000  1
  H  H18  1  0.03653000  0.34426000  0.46037000  1
  H  H19  1  0.86620000  0.28110000  0.33444000  1
  H  H20  1  0.83912000  0.10339000  0.44051000  1
  H  H21  1  0.00872000  0.16268000  0.56344000  1
  H  H22  1  0.72651000  0.02185000  0.19184000  1
  H  H23  1  0.72252000  0.01380000  0.28562000  1
  H  H24  1  0.70997000  0.15799000  0.42153000  1
  H  H25  1  0.72555000  0.17707000  0.19515000  1
  H  H26  1  0.71846000  0.27444000  0.29061000  1
  H  H27  1  0.47781000  0.03007000  0.06186000  1
  H  H28  1  0.43960000  0.72625000  0.86054000  1
  H  H29  1  0.49588000  0.89766000  0.96665000  1
  H  H30  1  0.60422000  0.88045000  0.22999000  1
  H  H31  1  0.54696000  0.70735000  0.12326000  1
  H  H32  1  0.65594000  0.57592000  0.53975000  1
  H  H33  1  0.71922000  0.53155000  0.66579000  1
  H  H34  1  0.89668000  0.39876000  0.55925000  1
  H  H35  1  0.83724000  0.44549000  0.43631000  1
  H  H36  1  0.97841000  0.53472000  0.80813000  1
  H  H37  1  0.98640000  0.43707000  0.71432000  1
  H  H38  1  0.84216000  0.28853000  0.57841000  1
  H  H39  1  0.82324000  0.53042000  0.80491000  1
  H  H40  1  0.72586000  0.42778000  0.70948000  1
  H  H41  1  0.96997000  0.41594000  0.93811000  1
  H  H42  1  0.27364000  0.57918000  0.13944000  1
  H  H43  1  0.10223000  0.52933000  0.03320000  1
  H  H44  1  0.11949000  0.37428000  0.76995000  1
  H  H45  1  0.29264000  0.42374000  0.87670000  1
  H  H46  1  0.88378000  0.96372000  0.53973000  1
  H  H47  1  0.94660000  0.13406000  0.66565000  1
  H  H48  1  0.66268000  0.16060000  0.55919000  1
  H  H49  1  0.59907000  0.99102000  0.43635000  1
  H  H50  1  0.82976000  0.27340000  0.80801000  1
  H  H51  1  0.72803000  0.27733000  0.71428000  1
  H  H52  1  0.73650000  0.29007000  0.57849000  1
  H  H53  1  0.98170000  0.27455000  0.80475000  1
  H  H54  1  0.98376000  0.28173000  0.70933000  1
  H  H55  1  0.96833000  0.52231000  0.93820000  1
  H  H56  1  0.86575000  0.56034000  0.13950000  1
  H  H57  1  0.93100000  0.50405000  0.03336000  1
  H  H58  1  0.65050000  0.39575000  0.77003000  1
  H  H59  1  0.58413000  0.45300000  0.87674000  1
  H  H60  1  0.71386000  0.13381000  0.03981000  1
  H  H61  1  0.88424000  0.19658000  0.16585000  1
  H  H62  1  0.91052000  0.91259000  0.05930000  1
  H  H63  1  0.74087000  0.84907000  0.93636000  1
  H  H64  1  0.02342000  0.07971000  0.30810000  1
  H  H65  1  0.02728000  0.97792000  0.21429000  1
  H  H66  1  0.03992000  0.98627000  0.07840000  1
  H  H67  1  0.02451000  0.23167000  0.30489000  1
  H  H68  1  0.03171000  0.23364000  0.20945000  1
  H  H69  1  0.27218000  0.21815000  0.43810000  1
  H  H70  1  0.31025000  0.11579000  0.63944000  1
  H  H71  1  0.25390000  0.18098000  0.53320000  1
  H  H72  1  0.14562000  0.90046000  0.26996000  1
  H  H73  1  0.20291000  0.83406000  0.37671000  1
  H  H74  1  0.32600000  0.90594000  0.03969000  1
  H  H75  1  0.28155000  0.96903000  0.16556000  1
  H  H76  1  0.14864000  0.14653000  0.05919000  1
  H  H77  1  0.19536000  0.08731000  0.93634000  1
  H  H78  1  0.28462000  0.22827000  0.30802000  1
  H  H79  1  0.18699000  0.23628000  0.21429000  1
  H  H80  1  0.03844000  0.09201000  0.07846000  1
  H  H81  1  0.28021000  0.07304000  0.30474000  1
  H  H82  1  0.17762000  0.97559000  0.20933000  1
  H  H83  1  0.16589000  0.21988000  0.43819000  1
  H  H84  1  0.32913000  0.52373000  0.63947000  1
  H  H85  1  0.27930000  0.35234000  0.53333000  1
  H  H86  1  0.12426000  0.36954000  0.27002000  1
  H  H87  1  0.17374000  0.54263000  0.37677000  1
  H  H88  1  0.86608000  0.67385000  0.96037000  1
  H  H89  1  0.80332000  0.71828000  0.83446000  1
  H  H90  1  0.08710000  0.85137000  0.94049000  1
  H  H91  1  0.15075000  0.80470000  0.06341000  1
  H  H92  1  0.91994000  0.71530000  0.69181000  1
  H  H93  1  0.02178000  0.81304000  0.78558000  1
  H  H94  1  0.01353000  0.96153000  0.92150000  1
  H  H95  1  0.76808000  0.71957000  0.69514000  1
  H  H96  1  0.76617000  0.82214000  0.79060000  1
  H  H97  1  0.78178000  0.83405000  0.56186000  1
  H  H98  1  0.88428000  0.67093000  0.36053000  1
  H  H99  1  0.81899000  0.72074000  0.46664000  1
  H  H100  1  0.09954000  0.87579000  0.72999000  1
  H  H101  1  0.16591000  0.82632000  0.62326000  1
  H  H102  1  0.09424000  0.28645000  0.96032000  1
  H  H103  1  0.03106000  0.11608000  0.83444000  1
  H  H104  1  0.85336000  0.08927000  0.94075000  1
  H  H105  1  0.91269000  0.25887000  0.06357000  1
  H  H106  1  0.77184000  0.97651000  0.69201000  1
  H  H107  1  0.76374000  0.97254000  0.78577000  1
  H  H108  1  0.90785000  0.95992000  0.92155000  1
  H  H109  1  0.92700000  0.97555000  0.69517000  1
  H  H110  1  0.02433000  0.96841000  0.79056000  1
  H  H111  1  0.77991000  0.72768000  0.56178000  1
  H  H112  1  0.47635000  0.68951000  0.36056000  1
  H  H113  1  0.64777000  0.74581000  0.46678000  1
  H  H114  1  0.63047000  0.85411000  0.73001000  1
  H  H115  1  0.45732000  0.79689000  0.62332000  1
  C  C116  1  0.46558000  0.29841000  0.59736000  1
  C  C117  1  0.48748000  0.26328000  0.52304000  1
  C  C118  1  0.46278000  0.16403000  0.45566000  1
  C  C119  1  0.48847000  0.12943000  0.38504000  1
  C  C120  1  0.54045000  0.18959000  0.37824000  1
  C  C121  1  0.56243000  0.28817000  0.44408000  1
  C  C122  1  0.53680000  0.32485000  0.51442000  1
  C  C123  1  0.57711000  0.15367000  0.30819000  1
  C  C124  1  0.54295000  0.19459000  0.23998000  1
  C  C125  1  0.54699000  0.04520000  0.24218000  1
  C  C126  1  0.58622000  0.16313000  0.17404000  1
  C  C127  1  0.46535000  0.31328000  0.91903000  1
  C  C128  1  0.49558000  0.27951000  0.98449000  1
  C  C129  1  0.46594000  0.18135000  0.94143000  1
  C  C130  1  0.49484000  0.14496000  0.00267000  1
  C  C131  1  0.55350000  0.20374000  0.10744000  1
  C  C132  1  0.58148000  0.30178000  0.14919000  1
  C  C133  1  0.55370000  0.34012000  0.08951000  1
  C  C134  1  0.13157000  0.29864000  0.59716000  1
  C  C135  1  0.03538000  0.25967000  0.52289000  1
  C  C136  1  0.99286000  0.29163000  0.45561000  1
  C  C137  1  0.89658000  0.25564000  0.38498000  1
  C  C138  1  0.83774000  0.18874000  0.37816000  1
  C  C139  1  0.88149000  0.15589000  0.44386000  1
  C  C140  1  0.97740000  0.18948000  0.51421000  1
  C  C141  1  0.73109000  0.15456000  0.30812000  1
  C  C142  1  0.69704000  0.04545000  0.23987000  1
  C  C143  1  0.69521000  0.19705000  0.24219000  1
  C  C144  1  0.58787000  0.01098000  0.17402000  1
  C  C145  1  0.45356000  0.60567000  0.91906000  1
  C  C146  1  0.48897000  0.70490000  0.98446000  1
  C  C147  1  0.47553000  0.75996000  0.94139000  1
  C  C148  1  0.50788000  0.85762000  0.00258000  1
  C  C149  1  0.55398000  0.90370000  0.10738000  1
  C  C150  1  0.56780000  0.84742000  0.14915000  1
  C  C151  1  0.53587000  0.74939000  0.08945000  1
  C  C152  1  0.68642000  0.18646000  0.37279000  1
  C  C153  1  0.55516000  0.05516000  0.11025000  1
  C  C154  1  0.70121000  0.53446000  0.40280000  1
  C  C155  1  0.74039000  0.51252000  0.47709000  1
  C  C156  1  0.70855000  0.53713000  0.54450000  1
  C  C157  1  0.74460000  0.51149000  0.61514000  1
  C  C158  1  0.81148000  0.45959000  0.62184000  1
  C  C159  1  0.84421000  0.43773000  0.55599000  1
  C  C160  1  0.81055000  0.46333000  0.48565000  1
  C  C161  1  0.84565000  0.42300000  0.69190000  1
  C  C162  1  0.95474000  0.45725000  0.76009000  1
  C  C163  1  0.80320000  0.45302000  0.75790000  1
  C  C164  1  0.98907000  0.41394000  0.82596000  1
  C  C165  1  0.39422000  0.53454000  0.08099000  1
  C  C166  1  0.29502000  0.50456000  0.01555000  1
  C  C167  1  0.23991000  0.53423000  0.05858000  1
  C  C168  1  0.14228000  0.50541000  0.99733000  1
  C  C169  1  0.09628000  0.44671000  0.89256000  1
  C  C170  1  0.15255000  0.41873000  0.85080000  1
  C  C171  1  0.25057000  0.44646000  0.91051000  1
  C  C172  1  0.70129000  0.86824000  0.40261000  1
  C  C173  1  0.73656000  0.96448000  0.47694000  1
  C  C174  1  0.83583000  0.00720000  0.54436000  1
  C  C175  1  0.87054000  0.10353000  0.61502000  1
  C  C176  1  0.81041000  0.16223000  0.62175000  1
  C  C177  1  0.71184000  0.11831000  0.55593000  1
  C  C178  1  0.67509000  0.02236000  0.48558000  1
  C  C179  1  0.84633000  0.26894000  0.69184000  1
  C  C180  1  0.80543000  0.30292000  0.76007000  1
  C  C181  1  0.95476000  0.30492000  0.75775000  1
  C  C182  1  0.83696000  0.41212000  0.82600000  1
  C  C183  1  0.68668000  0.54640000  0.08097000  1
  C  C184  1  0.72050000  0.51101000  0.01557000  1
  C  C185  1  0.81862000  0.52441000  0.05865000  1
  C  C186  1  0.85506000  0.49207000  0.99743000  1
  C  C187  1  0.79632000  0.44596000  0.89263000  1
  C  C188  1  0.69831000  0.43218000  0.85087000  1
  C  C189  1  0.65998000  0.46409000  0.91057000  1
  C  C190  1  0.81370000  0.31364000  0.62721000  1
  C  C191  1  0.94490000  0.44493000  0.88975000  1
  C  C192  1  0.61838000  0.95158000  0.90280000  1
  C  C193  1  0.71458000  0.98668000  0.97706000  1
  C  C194  1  0.75737000  0.08592000  0.04451000  1
  C  C195  1  0.85365000  0.12054000  0.11516000  1
  C  C196  1  0.91225000  0.06035000  0.12184000  1
  C  C197  1  0.86828000  0.96177000  0.05600000  1
  C  C198  1  0.77234000  0.92509000  0.98565000  1
  C  C199  1  0.01892000  0.09623000  0.19187000  1
  C  C200  1  0.05288000  0.05535000  0.26008000  1
  C  C201  1  0.05491000  0.20470000  0.25788000  1
  C  C202  1  0.16204000  0.08686000  0.32594000  1
  C  C203  1  0.29641000  0.93677000  0.58099000  1
  C  C204  1  0.26095000  0.97051000  0.51553000  1
  C  C205  1  0.27434000  0.06865000  0.55857000  1
  C  C206  1  0.24194000  0.10504000  0.49733000  1
  C  C207  1  0.19585000  0.04626000  0.39255000  1
  C  C208  1  0.18204000  0.94824000  0.35080000  1
  C  C209  1  0.21401000  0.90993000  0.41050000  1
  C  C210  1  0.28437000  0.95131000  0.90261000  1
  C  C211  1  0.26249000  0.99039000  0.97694000  1
  C  C212  1  0.28715000  0.95853000  0.04433000  1
  C  C213  1  0.26149000  0.99450000  0.11499000  1
  C  C214  1  0.20953000  0.06134000  0.12174000  1
  C  C215  1  0.18766000  0.09411000  0.05594000  1
  C  C216  1  0.21325000  0.06052000  0.98557000  1
  C  C217  1  0.17293000  0.09552000  0.19183000  1
  C  C218  1  0.20718000  0.20464000  0.26005000  1
  C  C219  1  0.20286000  0.05299000  0.25774000  1
  C  C220  1  0.16391000  0.23903000  0.32598000  1
  C  C221  1  0.28458000  0.64430000  0.58101000  1
  C  C222  1  0.25455000  0.54508000  0.51558000  1
  C  C223  1  0.28422000  0.49002000  0.55863000  1
  C  C224  1  0.25535000  0.39237000  0.49741000  1
  C  C225  1  0.19667000  0.34631000  0.39262000  1
  C  C226  1  0.16868000  0.40257000  0.35086000  1
  C  C227  1  0.19647000  0.50061000  0.41058000  1
  C  C228  1  0.06361000  0.06353000  0.12720000  1
  C  C229  1  0.19484000  0.19483000  0.38974000  1
  C  C230  1  0.04853000  0.71560000  0.09717000  1
  C  C231  1  0.01321000  0.73749000  0.02287000  1
  C  C232  1  0.91396000  0.71275000  0.95562000  1
  C  C233  1  0.87932000  0.73840000  0.88500000  1
  C  C234  1  0.93942000  0.79038000  0.87816000  1
  C  C235  1  0.03797000  0.81236000  0.94387000  1
  C  C236  1  0.07474000  0.78679000  0.01421000  1
  C  C237  1  0.90356000  0.82700000  0.80812000  1
  C  C238  1  0.94440000  0.79280000  0.73983000  1
  C  C239  1  0.79513000  0.79696000  0.74217000  1
  C  C240  1  0.91302000  0.83615000  0.67398000  1
  C  C241  1  0.06339000  0.71551000  0.41907000  1
  C  C242  1  0.02954000  0.74550000  0.48445000  1
  C  C243  1  0.93140000  0.71584000  0.44137000  1
  C  C244  1  0.89493000  0.74469000  0.50256000  1
  C  C245  1  0.95368000  0.80339000  0.60736000  1
  C  C246  1  0.05172000  0.83136000  0.64915000  1
  C  C247  1  0.09006000  0.80359000  0.58945000  1
  C  C248  1  0.04892000  0.38177000  0.09733000  1
  C  C249  1  0.00978000  0.28555000  0.02305000  1
  C  C250  1  0.04163000  0.24287000  0.95566000  1
  C  C251  1  0.00561000  0.14655000  0.88503000  1
  C  C252  1  0.93866000  0.08775000  0.87824000  1
  C  C253  1  0.90587000  0.13163000  0.94404000  1
  C  C254  1  0.93955000  0.22760000  0.01439000  1
  C  C255  1  0.90446000  0.98106000  0.80813000  1
  C  C256  1  0.79537000  0.94701000  0.73996000  1
  C  C257  1  0.94696000  0.94517000  0.74216000  1
  C  C258  1  0.76092000  0.83783000  0.67404000  1
  C  C259  1  0.35573000  0.70365000  0.41902000  1
  C  C260  1  0.45495000  0.73889000  0.48447000  1
  C  C261  1  0.51007000  0.72545000  0.44142000  1
  C  C262  1  0.60770000  0.75780000  0.50265000  1
  C  C263  1  0.65370000  0.80393000  0.60743000  1
  C  C264  1  0.59741000  0.81770000  0.64918000  1
  C  C265  1  0.49939000  0.78580000  0.58950000  1
  C  C266  1  0.93632000  0.93635000  0.87277000  1
  C  C267  1  0.80508000  0.80508000  0.61023000  1
  N  N268  1  0.45000000  0.32649000  0.66208000  1
  N  N269  1  0.43741000  0.33472000  0.85942000  1
  N  N270  1  0.21184000  0.33528000  0.66187000  1
  N  N271  1  0.42173000  0.52461000  0.85952000  1
  N  N272  1  0.66450000  0.55000000  0.33811000  1
  N  N273  1  0.47528000  0.56216000  0.14062000  1
  N  N274  1  0.67326000  0.78794000  0.33792000  1
  N  N275  1  0.66515000  0.57824000  0.14051000  1
  N  N276  1  0.53814000  0.92361000  0.83808000  1
  N  N277  1  0.32840000  0.91532000  0.64059000  1
  N  N278  1  0.30000000  0.91463000  0.83793000  1
  N  N279  1  0.31231000  0.72535000  0.64055000  1
  N  N280  1  0.07660000  0.70003000  0.16188000  1
  N  N281  1  0.08493000  0.68780000  0.35954000  1
  N  N282  1  0.08554000  0.46207000  0.16208000  1
  N  N283  1  0.27469000  0.67196000  0.35942000  1
