# generated using pymatgen
data_Zn4H18C36O13
_symmetry_space_group_name_H-M   'P 1'
_cell_length_a   17.34171000
_cell_length_b   17.34554000
_cell_length_c   17.47137000
_cell_angle_alpha   90.34143000
_cell_angle_beta   90.00000000
_cell_angle_gamma   90.00000000
_symmetry_Int_Tables_number   1
_chemical_formula_structural   Zn4H18C36O13
_chemical_formula_sum   'Zn16 H72 C144 O52'
_cell_volume   5255.31792522
_cell_formula_units_Z   4
loop_
 _symmetry_equiv_pos_site_id
 _symmetry_equiv_pos_as_xyz
  1  'x, y, z'
loop_
 _atom_site_type_symbol
 _atom_site_label
 _atom_site_symmetry_multiplicity
 _atom_site_fract_x
 _atom_site_fract_y
 _atom_site_fract_z
 _atom_site_occupancy
  Zn  Zn1  1  0.57342000  0.91914000  0.89143000  1.0
  Zn  Zn2  1  0.42410000  0.00588000  0.83205000  1.0
  Zn  Zn3  1  0.58298000  0.01334000  0.73681000  1.0
  Zn  Zn4  1  0.48640000  0.85765000  0.73822000  1.0
  Zn  Zn5  1  0.56860000  0.58756000  0.39128000  1.0
  Zn  Zn6  1  0.65050000  0.65699000  0.24010000  1.0
  Zn  Zn7  1  0.21646000  0.49801000  0.67723000  1.0
  Zn  Zn8  1  0.56008000  0.49746000  0.23092000  1.0
  Zn  Zn9  1  0.07342000  0.08087000  0.10856000  1.0
  Zn  Zn10  1  0.92410000  0.99412000  0.16794000  1.0
  Zn  Zn11  1  0.08298000  0.98667000  0.26318000  1.0
  Zn  Zn12  1  0.98640000  0.14235000  0.26178000  1.0
  Zn  Zn13  1  0.06860000  0.41245000  0.60871000  1.0
  Zn  Zn14  1  0.15050000  0.34301000  0.75989000  1.0
  Zn  Zn15  1  0.71646000  0.50199000  0.32276000  1.0
  Zn  Zn16  1  0.06008000  0.50254000  0.76907000  1.0
  H  H1  1  0.30532000  0.03319000  0.02422000  1.0
  H  H2  1  0.25803000  0.88074000  0.25509000  1.0
  H  H3  1  0.32615000  0.78230000  0.31764000  1.0
  H  H4  1  0.44575000  0.72820000  0.28608000  1.0
  H  H5  1  0.52641000  0.75699000  0.18253000  1.0
  H  H6  1  0.50965000  0.84802000  0.08590000  1.0
  H  H7  1  0.34589000  0.22840000  0.78661000  1.0
  H  H8  1  0.43405000  0.47123000  0.67509000  1.0
  H  H9  1  0.55222000  0.51361000  0.62310000  1.0
  H  H10  1  0.66906000  0.44735000  0.61422000  1.0
  H  H11  1  0.69790000  0.32110000  0.65033000  1.0
  H  H12  1  0.61616000  0.22731000  0.70396000  1.0
  H  H13  1  0.29479000  0.72960000  0.72522000  1.0
  H  H14  1  0.06575000  0.68326000  0.88376000  1.0
  H  H15  1  0.00019000  0.75611000  0.97714000  1.0
  H  H16  1  0.02809000  0.87998000  0.02354000  1.0
  H  H17  1  0.13229000  0.95989000  0.99272000  1.0
  H  H18  1  0.23184000  0.93870000  0.90462000  1.0
  H  H19  1  0.61024000  0.72972000  0.00363000  1.0
  H  H20  1  0.44399000  0.50788000  0.05889000  1.0
  H  H21  1  0.34388000  0.44556000  0.99231000  1.0
  H  H22  1  0.29432000  0.47248000  0.87079000  1.0
  H  H23  1  0.33109000  0.56949000  0.78584000  1.0
  H  H24  1  0.42765000  0.66307000  0.79947000  1.0
  H  H25  1  0.54496000  0.77590000  0.51434000  1.0
  H  H26  1  0.62289000  0.04710000  0.53084000  1.0
  H  H27  1  0.67353000  0.13543000  0.44230000  1.0
  H  H28  1  0.70745000  0.11496000  0.31445000  1.0
  H  H29  1  0.70177000  0.00168000  0.24198000  1.0
  H  H30  1  0.65701000  0.87891000  0.27842000  1.0
  H  H31  1  0.34556000  0.52546000  0.48008000  1.0
  H  H32  1  0.14463000  0.33534000  0.42487000  1.0
  H  H33  1  0.12534000  0.24332000  0.32761000  1.0
  H  H34  1  0.19683000  0.22406000  0.21520000  1.0
  H  H35  1  0.30928000  0.28662000  0.17547000  1.0
  H  H36  1  0.38018000  0.38384000  0.23810000  1.0
  H  H37  1  0.80532000  0.96681000  0.97577000  1.0
  H  H38  1  0.75803000  0.11926000  0.74491000  1.0
  H  H39  1  0.82615000  0.21770000  0.68235000  1.0
  H  H40  1  0.94574000  0.27180000  0.71391000  1.0
  H  H41  1  0.02641000  0.24301000  0.81746000  1.0
  H  H42  1  0.00965000  0.15198000  0.91410000  1.0
  H  H43  1  0.84589000  0.77160000  0.21338000  1.0
  H  H44  1  0.93405000  0.52877000  0.32491000  1.0
  H  H45  1  0.05222000  0.48639000  0.37689000  1.0
  H  H46  1  0.16906000  0.55266000  0.38577000  1.0
  H  H47  1  0.19790000  0.67890000  0.34966000  1.0
  H  H48  1  0.11616000  0.77269000  0.29604000  1.0
  H  H49  1  0.79479000  0.27040000  0.27477000  1.0
  H  H50  1  0.56575000  0.31674000  0.11623000  1.0
  H  H51  1  0.50019000  0.24389000  0.02286000  1.0
  H  H52  1  0.52809000  0.12002000  0.97645000  1.0
  H  H53  1  0.63229000  0.04011000  0.00727000  1.0
  H  H54  1  0.73184000  0.06130000  0.09537000  1.0
  H  H55  1  0.11024000  0.27028000  0.99636000  1.0
  H  H56  1  0.94399000  0.49212000  0.94110000  1.0
  H  H57  1  0.84388000  0.55444000  0.00768000  1.0
  H  H58  1  0.79431000  0.52752000  0.12920000  1.0
  H  H59  1  0.83108000  0.43051000  0.21415000  1.0
  H  H60  1  0.92765000  0.33693000  0.20053000  1.0
  H  H61  1  0.04496000  0.22410000  0.48566000  1.0
  H  H62  1  0.12289000  0.95290000  0.46915000  1.0
  H  H63  1  0.17353000  0.86457000  0.55769000  1.0
  H  H64  1  0.20745000  0.88504000  0.68555000  1.0
  H  H65  1  0.20177000  0.99832000  0.75801000  1.0
  H  H66  1  0.15701000  0.12109000  0.72157000  1.0
  H  H67  1  0.84556000  0.47454000  0.51991000  1.0
  H  H68  1  0.64463000  0.66466000  0.57512000  1.0
  H  H69  1  0.62534000  0.75668000  0.67238000  1.0
  H  H70  1  0.69683000  0.77594000  0.78479000  1.0
  H  H71  1  0.80928000  0.71338000  0.82452000  1.0
  H  H72  1  0.88018000  0.61616000  0.76189000  1.0
  C  C1  1  0.45023000  0.96449000  0.99186000  1.0
  C  C2  1  0.39713000  0.95053000  0.05529000  1.0
  C  C3  1  0.32627000  0.98936000  0.06299000  1.0
  C  C4  1  0.28689000  0.96353000  0.12833000  1.0
  C  C5  1  0.33306000  0.90550000  0.16417000  1.0
  C  C6  1  0.40325000  0.89659000  0.11691000  1.0
  C  C7  1  0.31305000  0.86417000  0.22975000  1.0
  C  C8  1  0.35377000  0.80573000  0.26676000  1.0
  C  C9  1  0.42507000  0.77317000  0.24775000  1.0
  C  C10  1  0.47358000  0.79069000  0.18644000  1.0
  C  C11  1  0.46396000  0.84512000  0.12857000  1.0
  C  C12  1  0.21078000  0.99208000  0.15101000  1.0
  C  C13  1  0.48407000  0.14847000  0.75956000  1.0
  C  C14  1  0.46669000  0.22984000  0.74651000  1.0
  C  C15  1  0.39337000  0.26033000  0.76199000  1.0
  C  C16  1  0.38926000  0.33729000  0.73815000  1.0
  C  C17  1  0.46263000  0.35842000  0.70703000  1.0
  C  C18  1  0.51280000  0.28958000  0.71345000  1.0
  C  C19  1  0.48144000  0.42997000  0.67573000  1.0
  C  C20  1  0.55162000  0.45488000  0.64512000  1.0
  C  C21  1  0.62142000  0.41493000  0.63920000  1.0
  C  C22  1  0.63858000  0.33927000  0.66068000  1.0
  C  C23  1  0.59046000  0.28351000  0.69291000  1.0
  C  C24  1  0.31685000  0.37998000  0.74186000  1.0
  C  C25  1  0.32637000  0.87707000  0.78948000  1.0
  C  C26  1  0.26387000  0.82286000  0.80654000  1.0
  C  C27  1  0.25636000  0.75089000  0.76948000  1.0
  C  C28  1  0.19188000  0.71082000  0.79771000  1.0
  C  C29  1  0.15576000  0.75851000  0.85484000  1.0
  C  C30  1  0.20196000  0.82992000  0.86062000  1.0
  C  C31  1  0.08979000  0.73983000  0.89697000  1.0
  C  C32  1  0.05102000  0.78339000  0.95247000  1.0
  C  C33  1  0.06810000  0.85699000  0.98087000  1.0
  C  C34  1  0.12957000  0.90528000  0.96173000  1.0
  C  C35  1  0.18902000  0.89298000  0.90911000  1.0
  C  C36  1  0.17004000  0.63349000  0.77075000  1.0
  C  C37  1  0.54362000  0.75847000  0.85798000  1.0
  C  C38  1  0.52821000  0.69649000  0.91223000  1.0
  C  C39  1  0.56515000  0.69124000  0.98375000  1.0
  C  C40  1  0.53493000  0.62929000  0.02575000  1.0
  C  C41  1  0.47607000  0.59304000  0.98035000  1.0
  C  C42  1  0.47157000  0.63632000  0.90794000  1.0
  C  C43  1  0.43058000  0.53037000  0.00237000  1.0
  C  C44  1  0.37108000  0.49348000  0.96253000  1.0
  C  C45  1  0.34125000  0.50977000  0.89008000  1.0
  C  C46  1  0.36348000  0.56743000  0.83913000  1.0
  C  C47  1  0.42102000  0.62324000  0.84698000  1.0
  C  C48  1  0.56003000  0.61010000  0.10332000  1.0
  C  C49  1  0.56576000  0.91337000  0.60027000  1.0
  C  C50  1  0.58323000  0.89751000  0.51981000  1.0
  C  C51  1  0.57027000  0.82502000  0.48572000  1.0
  C  C52  1  0.59614000  0.82477000  0.40950000  1.0
  C  C53  1  0.59329000  0.75519000  0.36180000  1.0
  C  C54  1  0.61636000  0.94694000  0.46317000  1.0
  C  C55  1  0.63468000  0.02476000  0.47360000  1.0
  C  C56  1  0.66486000  0.07691000  0.42086000  1.0
  C  C57  1  0.68530000  0.06460000  0.34437000  1.0
  C  C58  1  0.68137000  0.99683000  0.30080000  1.0
  C  C59  1  0.65484000  0.92393000  0.32217000  1.0
  C  C60  1  0.62530000  0.90013000  0.39262000  1.0
  C  C61  1  0.43481000  0.49091000  0.34818000  1.0
  C  C62  1  0.35985000  0.45983000  0.37211000  1.0
  C  C63  1  0.32319000  0.48289000  0.44025000  1.0
  C  C64  1  0.25333000  0.44265000  0.44961000  1.0
  C  C65  1  0.24528000  0.39001000  0.38663000  1.0
  C  C66  1  0.31264000  0.40201000  0.33615000  1.0
  C  C67  1  0.18660000  0.33531000  0.37843000  1.0
  C  C68  1  0.17518000  0.28093000  0.32024000  1.0
  C  C69  1  0.21862000  0.26869000  0.25385000  1.0
  C  C70  1  0.28579000  0.30627000  0.23009000  1.0
  C  C71  1  0.32794000  0.36443000  0.26679000  1.0
  C  C72  1  0.20244000  0.45516000  0.51539000  1.0
  C  C73  1  0.95023000  0.03551000  0.00813000  1.0
  C  C74  1  0.89713000  0.04947000  0.94470000  1.0
  C  C75  1  0.82626000  0.01064000  0.93700000  1.0
  C  C76  1  0.78689000  0.03647000  0.87166000  1.0
  C  C77  1  0.83306000  0.09450000  0.83582000  1.0
  C  C78  1  0.90325000  0.10341000  0.88308000  1.0
  C  C79  1  0.81305000  0.13583000  0.77024000  1.0
  C  C80  1  0.85377000  0.19427000  0.73324000  1.0
  C  C81  1  0.92507000  0.22683000  0.75225000  1.0
  C  C82  1  0.97358000  0.20931000  0.81355000  1.0
  C  C83  1  0.96396000  0.15488000  0.87142000  1.0
  C  C84  1  0.71078000  0.00792000  0.84898000  1.0
  C  C85  1  0.98407000  0.85153000  0.24043000  1.0
  C  C86  1  0.96669000  0.77016000  0.25349000  1.0
  C  C87  1  0.89337000  0.73967000  0.23800000  1.0
  C  C88  1  0.88926000  0.66271000  0.26184000  1.0
  C  C89  1  0.96263000  0.64158000  0.29296000  1.0
  C  C90  1  0.01280000  0.71042000  0.28655000  1.0
  C  C91  1  0.98144000  0.57004000  0.32427000  1.0
  C  C92  1  0.05162000  0.54512000  0.35487000  1.0
  C  C93  1  0.12142000  0.58507000  0.36079000  1.0
  C  C94  1  0.13859000  0.66073000  0.33931000  1.0
  C  C95  1  0.09046000  0.71649000  0.30708000  1.0
  C  C96  1  0.81685000  0.62002000  0.25813000  1.0
  C  C97  1  0.82637000  0.12293000  0.21051000  1.0
  C  C98  1  0.76387000  0.17714000  0.19346000  1.0
  C  C99  1  0.75636000  0.24911000  0.23052000  1.0
  C  C100  1  0.69188000  0.28919000  0.20228000  1.0
  C  C101  1  0.65576000  0.24149000  0.14515000  1.0
  C  C102  1  0.70196000  0.17008000  0.13937000  1.0
  C  C103  1  0.58979000  0.26017000  0.10302000  1.0
  C  C104  1  0.55102000  0.21661000  0.04752000  1.0
  C  C105  1  0.56810000  0.14301000  0.01912000  1.0
  C  C106  1  0.62956000  0.09472000  0.03826000  1.0
  C  C107  1  0.68901000  0.10702000  0.09088000  1.0
  C  C108  1  0.67004000  0.36651000  0.22924000  1.0
  C  C109  1  0.04362000  0.24153000  0.14201000  1.0
  C  C110  1  0.02822000  0.30351000  0.08776000  1.0
  C  C111  1  0.06515000  0.30876000  0.01625000  1.0
  C  C112  1  0.03493000  0.37071000  0.97424000  1.0
  C  C113  1  0.97607000  0.40696000  0.01964000  1.0
  C  C114  1  0.97157000  0.36368000  0.09206000  1.0
  C  C115  1  0.93058000  0.46963000  0.99762000  1.0
  C  C116  1  0.87108000  0.50652000  0.03746000  1.0
  C  C117  1  0.84125000  0.49023000  0.10991000  1.0
  C  C118  1  0.86348000  0.43258000  0.16086000  1.0
  C  C119  1  0.92102000  0.37676000  0.15301000  1.0
  C  C120  1  0.06004000  0.38990000  0.89667000  1.0
  C  C121  1  0.06576000  0.08663000  0.39972000  1.0
  C  C122  1  0.08323000  0.10249000  0.48018000  1.0
  C  C123  1  0.07027000  0.17498000  0.51427000  1.0
  C  C124  1  0.09614000  0.17523000  0.59049000  1.0
  C  C125  1  0.09329000  0.24481000  0.63819000  1.0
  C  C126  1  0.11636000  0.05306000  0.53682000  1.0
  C  C127  1  0.13468000  0.97524000  0.52639000  1.0
  C  C128  1  0.16487000  0.92310000  0.57914000  1.0
  C  C129  1  0.18530000  0.93540000  0.65562000  1.0
  C  C130  1  0.18137000  0.00317000  0.69919000  1.0
  C  C131  1  0.15484000  0.07607000  0.67782000  1.0
  C  C132  1  0.12530000  0.09987000  0.60737000  1.0
  C  C133  1  0.93481000  0.50909000  0.65181000  1.0
  C  C134  1  0.85985000  0.54017000  0.62788000  1.0
  C  C135  1  0.82319000  0.51711000  0.55975000  1.0
  C  C136  1  0.75333000  0.55735000  0.55039000  1.0
  C  C137  1  0.74528000  0.60999000  0.61336000  1.0
  C  C138  1  0.81264000  0.59799000  0.66384000  1.0
  C  C139  1  0.68660000  0.66469000  0.62157000  1.0
  C  C140  1  0.67518000  0.71907000  0.67975000  1.0
  C  C141  1  0.71862000  0.73131000  0.74614000  1.0
  C  C142  1  0.78579000  0.69373000  0.76991000  1.0
  C  C143  1  0.82794000  0.63557000  0.73320000  1.0
  C  C144  1  0.70244000  0.54484000  0.48461000  1.0
  O  O1  1  0.51592000  0.94848000  0.79930000  1.0
  O  O2  1  0.51090000  0.92166000  0.98507000  1.0
  O  O3  1  0.43373000  0.01950000  0.94559000  1.0
  O  O4  1  0.17224000  0.02768000  0.09890000  1.0
  O  O5  1  0.18766000  0.98050000  0.21983000  1.0
  O  O6  1  0.42931000  0.10927000  0.79044000  1.0
  O  O7  1  0.55009000  0.12175000  0.73896000  1.0
  O  O8  1  0.26201000  0.34822000  0.77984000  1.0
  O  O9  1  0.31223000  0.44546000  0.70780000  1.0
  O  O10  1  0.33181000  0.93997000  0.82933000  1.0
  O  O11  1  0.37195000  0.85908000  0.73436000  1.0
  O  O12  1  0.10944000  0.60148000  0.79875000  1.0
  O  O13  1  0.21458000  0.60262000  0.72005000  1.0
  O  O14  1  0.50386000  0.76156000  0.79562000  1.0
  O  O15  1  0.59642000  0.80791000  0.87548000  1.0
  O  O16  1  0.53534000  0.54702000  0.13291000  1.0
  O  O17  1  0.60523000  0.65882000  0.13667000  1.0
  O  O18  1  0.53501000  0.85711000  0.63748000  1.0
  O  O19  1  0.58220000  0.97993000  0.62880000  1.0
  O  O20  1  0.55063000  0.69989000  0.38615000  1.0
  O  O21  1  0.63269000  0.75294000  0.29910000  1.0
  O  O22  1  0.62473000  0.56237000  0.29610000  1.0
  O  O23  1  0.46093000  0.47270000  0.28155000  1.0
  O  O24  1  0.46907000  0.53497000  0.39726000  1.0
  O  O25  1  0.13776000  0.41836000  0.51893000  1.0
  O  O26  1  0.22609000  0.50416000  0.56549000  1.0
  O  O27  1  0.01592000  0.05152000  0.20069000  1.0
  O  O28  1  0.01090000  0.07834000  0.01492000  1.0
  O  O29  1  0.93372000  0.98050000  0.05441000  1.0
  O  O30  1  0.67224000  0.97232000  0.90109000  1.0
  O  O31  1  0.68766000  0.01950000  0.78016000  1.0
  O  O32  1  0.92930000  0.89073000  0.20955000  1.0
  O  O33  1  0.05009000  0.87825000  0.26103000  1.0
  O  O34  1  0.76201000  0.65179000  0.22015000  1.0
  O  O35  1  0.81223000  0.55454000  0.29220000  1.0
  O  O36  1  0.83180000  0.06003000  0.17066000  1.0
  O  O37  1  0.87195000  0.14092000  0.26563000  1.0
  O  O38  1  0.60944000  0.39852000  0.20124000  1.0
  O  O39  1  0.71458000  0.39738000  0.27994000  1.0
  O  O40  1  0.00386000  0.23844000  0.20437000  1.0
  O  O41  1  0.09642000  0.19209000  0.12451000  1.0
  O  O42  1  0.03534000  0.45298000  0.86708000  1.0
  O  O43  1  0.10523000  0.34118000  0.86333000  1.0
  O  O44  1  0.03501000  0.14289000  0.36251000  1.0
  O  O45  1  0.08220000  0.02007000  0.37119000  1.0
  O  O46  1  0.05063000  0.30011000  0.61384000  1.0
  O  O47  1  0.13269000  0.24706000  0.70089000  1.0
  O  O48  1  0.12473000  0.43763000  0.70389000  1.0
  O  O49  1  0.96093000  0.52730000  0.71844000  1.0
  O  O50  1  0.96907000  0.46503000  0.60274000  1.0
  O  O51  1  0.63776000  0.58164000  0.48106000  1.0
  O  O52  1  0.72609000  0.49584000  0.43450000  1.0
