# generated using pymatgen
data_CdNiH12(CN)7
_symmetry_space_group_name_H-M   'P 1'
_cell_length_a   7.73280000
_cell_length_b   11.94375000
_cell_length_c   13.15458000
_cell_angle_alpha   91.51313000
_cell_angle_beta   106.07228000
_cell_angle_gamma   95.38282000
_symmetry_Int_Tables_number   1
_chemical_formula_structural   CdNiH12(CN)7
_chemical_formula_sum   'Cd2 Ni2 H24 C14 N14'
_cell_volume   1160.55932680
_cell_formula_units_Z   2
loop_
 _symmetry_equiv_pos_site_id
 _symmetry_equiv_pos_as_xyz
  1  'x, y, z'
loop_
 _atom_site_type_symbol
 _atom_site_label
 _atom_site_symmetry_multiplicity
 _atom_site_fract_x
 _atom_site_fract_y
 _atom_site_fract_z
 _atom_site_occupancy
  Cd  Cd0  1  0.11766000  0.24968000  0.19893000  1
  Cd  Cd1  1  0.88432000  0.75021000  0.80109000  1
  Ni  Ni2  1  0.50255000  0.99169000  0.00899000  1
  Ni  Ni3  1  0.99417000  0.49903000  0.49744000  1
  H  H4  1  0.28182000  0.06247000  0.29438000  1
  H  H5  1  0.14008000  0.08871000  0.36472000  1
  H  H6  1  0.47456000  0.13152000  0.46444000  1
  H  H7  1  0.33573000  0.23759000  0.46547000  1
  H  H8  1  0.55880000  0.21266000  0.30750000  1
  H  H9  1  0.62420000  0.30692000  0.42352000  1
  H  H10  1  0.38826000  0.41186000  0.34776000  1
  H  H11  1  0.47067000  0.38334000  0.25283000  1
  H  H12  1  0.88571000  0.31640000  0.01336000  1
  H  H13  1  0.08485000  0.31939000  0.98837000  1
  H  H14  1  0.97616000  0.49562000  0.11165000  1
  H  H15  1  0.18587000  0.50084000  0.08268000  1
  H  H16  1  0.71794000  0.93734000  0.70601000  1
  H  H17  1  0.86050000  0.91073000  0.63619000  1
  H  H18  1  0.52577000  0.86858000  0.53583000  1
  H  H19  1  0.66436000  0.76254000  0.53464000  1
  H  H20  1  0.44078000  0.78726000  0.69227000  1
  H  H21  1  0.37574000  0.69285000  0.57643000  1
  H  H22  1  0.61175000  0.58806000  0.65255000  1
  H  H23  1  0.52972000  0.61703000  0.74761000  1
  H  H24  1  0.11560000  0.68371000  0.98727000  1
  H  H25  1  0.91484000  0.68156000  0.01005000  1
  H  H26  1  0.02407000  0.50440000  0.88806000  1
  H  H27  1  0.81461000  0.49984000  0.91731000  1
  C  C28  1  0.36390000  0.11209000  0.03920000  1
  C  C29  1  0.72383000  0.06517000  0.09975000  1
  C  C30  1  0.98960000  0.42444000  0.36621000  1
  C  C31  1  0.22472000  0.43679000  0.57132000  1
  C  C32  1  0.38845000  0.18665000  0.41314000  1
  C  C33  1  0.50825000  0.26337000  0.36212000  1
  C  C34  1  0.04094000  0.47167000  0.05150000  1
  C  C35  1  0.63657000  0.91746000  0.92513000  1
  C  C36  1  0.28338000  0.90319000  0.93478000  1
  C  C37  1  0.03191000  0.60462000  0.62636000  1
  C  C38  1  0.74553000  0.53231000  0.44630000  1
  C  C39  1  0.61165000  0.81335000  0.58706000  1
  C  C40  1  0.49160000  0.73648000  0.63781000  1
  C  C41  1  0.95965000  0.52867000  0.94831000  1
  N  N42  1  0.28287000  0.15741000  0.08942000  1
  N  N43  1  0.85549000  0.12598000  0.13576000  1
  N  N44  1  0.97277000  0.36232000  0.29071000  1
  N  N45  1  0.38128000  0.42855000  0.59841000  1
  N  N46  1  0.23570000  0.12434000  0.33183000  1
  N  N47  1  0.39931000  0.34595000  0.29929000  1
  N  N48  1  0.02023000  0.34659000  0.04144000  1
  N  N49  1  0.71941000  0.84633000  0.90586000  1
  N  N50  1  0.14514000  0.86975000  0.87171000  1
  N  N51  1  0.02661000  0.63813000  0.70983000  1
  N  N52  1  0.61365000  0.57300000  0.39952000  1
  N  N53  1  0.76413000  0.87543000  0.66863000  1
  N  N54  1  0.60087000  0.65414000  0.70093000  1
  N  N55  1  0.98114000  0.65359000  0.95825000  1
