# generated using pymatgen
data_TbH9(C3O2)3
_symmetry_space_group_name_H-M   'P 1'
_cell_length_a   9.74945000
_cell_length_b   13.75947000
_cell_length_c   15.32103000
_cell_angle_alpha   89.94450000
_cell_angle_beta   85.25518000
_cell_angle_gamma   89.87275000
_symmetry_Int_Tables_number   1
_chemical_formula_structural   TbH9(C3O2)3
_chemical_formula_sum   'Tb4 H36 C36 O24'
_cell_volume   2048.22512561
_cell_formula_units_Z   4
loop_
 _symmetry_equiv_pos_site_id
 _symmetry_equiv_pos_as_xyz
  1  'x, y, z'
loop_
 _atom_site_type_symbol
 _atom_site_label
 _atom_site_symmetry_multiplicity
 _atom_site_fract_x
 _atom_site_fract_y
 _atom_site_fract_z
 _atom_site_occupancy
  Tb  Tb0  1  0.04944000  0.90572000  0.09493000  1
  Tb  Tb1  1  0.45163000  0.40493000  0.40661000  1
  Tb  Tb2  1  0.95056000  0.09428000  0.90510000  1
  Tb  Tb3  1  0.54839000  0.59503000  0.59338000  1
  H  H4  1  0.66194000  0.10200000  0.26344000  1
  H  H5  1  0.74308000  0.19657000  0.20043000  1
  H  H6  1  0.66544000  0.12322000  0.06316000  1
  H  H7  1  0.55774000  0.95812000  0.06651000  1
  H  H8  1  0.55122000  0.95750000  0.18189000  1
  H  H9  1  0.41320000  0.10796000  0.06948000  1
  H  H10  1  0.29970000  0.16965000  0.20870000  1
  H  H11  1  0.39371000  0.08606000  0.26874000  1
  H  H12  1  0.51753000  0.24411000  0.14536000  1
  H  H13  1  0.83820000  0.60035000  0.23674000  1
  H  H14  1  0.75651000  0.69493000  0.29985000  1
  H  H15  1  0.83474000  0.62197000  0.43694000  1
  H  H16  1  0.94446000  0.45733000  0.43413000  1
  H  H17  1  0.95158000  0.45638000  0.31884000  1
  H  H18  1  0.08675000  0.60794000  0.43102000  1
  H  H19  1  0.20010000  0.66934000  0.29182000  1
  H  H20  1  0.10801000  0.58511000  0.23180000  1
  H  H21  1  0.98118000  0.74267000  0.35451000  1
  H  H22  1  0.33824000  0.89781000  0.73639000  1
  H  H23  1  0.25710000  0.80327000  0.79945000  1
  H  H24  1  0.33440000  0.87676000  0.93675000  1
  H  H25  1  0.44206000  0.04184000  0.93344000  1
  H  H26  1  0.44879000  0.04253000  0.81806000  1
  H  H27  1  0.58678000  0.89209000  0.93052000  1
  H  H28  1  0.70045000  0.83042000  0.79132000  1
  H  H29  1  0.60637000  0.91395000  0.73125000  1
  H  H30  1  0.48265000  0.75588000  0.85463000  1
  H  H31  1  0.16191000  0.39977000  0.76320000  1
  H  H32  1  0.24360000  0.30519000  0.70010000  1
  H  H33  1  0.16525000  0.37809000  0.56301000  1
  H  H34  1  0.05544000  0.54273000  0.56586000  1
  H  H35  1  0.04840000  0.54365000  0.68115000  1
  H  H36  1  0.91324000  0.39205000  0.56901000  1
  H  H37  1  0.80002000  0.33062000  0.70821000  1
  H  H38  1  0.89199000  0.41491000  0.76823000  1
  H  H39  1  0.01893000  0.25743000  0.64547000  1
  C  C40  1  0.65683000  0.14505000  0.20342000  1
  C  C41  1  0.66887000  0.07800000  0.12212000  1
  C  C42  1  0.54810000  0.00513000  0.12453000  1
  C  C43  1  0.41200000  0.06140000  0.12848000  1
  C  C44  1  0.39680000  0.12924000  0.20817000  1
  C  C45  1  0.51964000  0.20006000  0.20525000  1
  C  C46  1  0.28497000  0.99884000  0.12323000  1
  C  C47  1  0.80444000  0.02493000  0.11341000  1
  C  C48  1  0.49336000  0.27071000  0.28005000  1
  C  C49  1  0.84305000  0.64339000  0.29670000  1
  C  C50  1  0.83197000  0.57647000  0.37820000  1
  C  C51  1  0.95367000  0.50425000  0.37602000  1
  C  C52  1  0.08878000  0.56107000  0.37225000  1
  C  C53  1  0.10361000  0.62852000  0.29218000  1
  C  C54  1  0.97963000  0.69872000  0.29462000  1
  C  C55  1  0.21593000  0.49868000  0.37839000  1
  C  C56  1  0.69743000  0.52272000  0.38703000  1
  C  C57  1  0.00458000  0.77023000  0.22025000  1
  C  C58  1  0.34323000  0.85490000  0.79652000  1
  C  C59  1  0.33108000  0.92200000  0.87781000  1
  C  C60  1  0.45186000  0.99487000  0.87540000  1
  C  C61  1  0.58799000  0.93863000  0.87150000  1
  C  C62  1  0.60330000  0.87078000  0.79182000  1
  C  C63  1  0.48048000  0.79993000  0.79475000  1
  C  C64  1  0.71502000  0.00121000  0.87673000  1
  C  C65  1  0.19559000  0.97514000  0.88670000  1
  C  C66  1  0.50674000  0.72927000  0.71996000  1
  C  C67  1  0.15705000  0.35671000  0.70325000  1
  C  C68  1  0.16803000  0.42361000  0.62175000  1
  C  C69  1  0.04629000  0.49579000  0.62396000  1
  C  C70  1  0.91123000  0.43892000  0.62778000  1
  C  C71  1  0.89646000  0.37149000  0.70786000  1
  C  C72  1  0.02052000  0.30135000  0.70538000  1
  C  C73  1  0.78408000  0.50130000  0.62162000  1
  C  C74  1  0.30258000  0.47734000  0.61293000  1
  C  C75  1  0.99576000  0.22981000  0.77976000  1
  O  O76  1  0.16662000  0.03866000  0.14204000  1
  O  O77  1  0.29313000  0.91062000  0.09639000  1
  O  O78  1  0.83213000  0.95747000  0.16502000  1
  O  O79  1  0.89633000  0.04759000  0.04933000  1
  O  O80  1  0.42452000  0.34777000  0.26646000  1
  O  O81  1  0.53380000  0.25305000  0.35679000  1
  O  O82  1  0.33413000  0.53855000  0.36005000  1
  O  O83  1  0.20765000  0.41057000  0.40548000  1
  O  O84  1  0.67319000  0.45268000  0.33754000  1
  O  O85  1  0.60307000  0.54767000  0.44901000  1
  O  O86  1  0.06926000  0.84827000  0.23578000  1
  O  O87  1  0.96763000  0.75289000  0.14252000  1
  O  O88  1  0.83339000  0.96135000  0.85798000  1
  O  O89  1  0.70687000  0.08947000  0.90344000  1
  O  O90  1  0.16805000  0.04287000  0.83533000  1
  O  O91  1  0.10363000  0.95229000  0.95067000  1
  O  O92  1  0.57556000  0.65222000  0.73354000  1
  O  O93  1  0.46626000  0.74693000  0.64322000  1
  O  O94  1  0.66587000  0.46145000  0.63995000  1
  O  O95  1  0.79235000  0.58942000  0.59452000  1
  O  O96  1  0.32683000  0.54735000  0.66244000  1
  O  O97  1  0.39697000  0.45235000  0.55099000  1
  O  O98  1  0.93087000  0.15182000  0.76429000  1
  O  O99  1  0.03302000  0.24708000  0.85741000  1
