# generated using pymatgen
data_CdH7C12(NO2)2
_symmetry_space_group_name_H-M   'P 1'
_cell_length_a   13.33854000
_cell_length_b   13.41451000
_cell_length_c   26.73932000
_cell_angle_alpha   90.00000000
_cell_angle_beta   90.00180000
_cell_angle_gamma   90.00000000
_symmetry_Int_Tables_number   1
_chemical_formula_structural   CdH7C12(NO2)2
_chemical_formula_sum   'Cd8 H56 C96 N16 O32'
_cell_volume   4784.46594273
_cell_formula_units_Z   8
loop_
 _symmetry_equiv_pos_site_id
 _symmetry_equiv_pos_as_xyz
  1  'x, y, z'
loop_
 _atom_site_type_symbol
 _atom_site_label
 _atom_site_symmetry_multiplicity
 _atom_site_fract_x
 _atom_site_fract_y
 _atom_site_fract_z
 _atom_site_occupancy
  Cd  Cd1  1  0.81411000  0.81027000  0.82344000  1.0
  Cd  Cd2  1  0.18591000  0.68973000  0.32345000  1.0
  Cd  Cd3  1  0.31409000  0.18973000  0.67655000  1.0
  Cd  Cd4  1  0.68590000  0.31027000  0.17656000  1.0
  Cd  Cd5  1  0.18590000  0.18973000  0.17656000  1.0
  Cd  Cd6  1  0.81410000  0.31027000  0.67655000  1.0
  Cd  Cd7  1  0.68591000  0.81026000  0.32345000  1.0
  Cd  Cd8  1  0.31411000  0.68973000  0.82344000  1.0
  H  H1  1  0.81632000  0.99715000  0.75128000  1.0
  H  H2  1  0.04741000  0.80422000  0.79020000  1.0
  H  H3  1  0.67255000  0.09276000  0.75460000  1.0
  H  H4  1  0.78279000  0.99572000  0.89490000  1.0
  H  H5  1  0.86228000  0.08784000  0.96453000  1.0
  H  H6  1  0.07149000  0.84219000  0.97823000  1.0
  H  H7  1  0.98446000  0.76300000  0.90648000  1.0
  H  H8  1  0.18370000  0.50285000  0.25128000  1.0
  H  H9  1  0.95261000  0.69578000  0.29020000  1.0
  H  H10  1  0.32745000  0.40724000  0.25459000  1.0
  H  H11  1  0.21722000  0.50428000  0.39490000  1.0
  H  H12  1  0.13773000  0.41215000  0.46453000  1.0
  H  H13  1  0.92852000  0.65781000  0.47822000  1.0
  H  H14  1  0.01555000  0.73700000  0.40648000  1.0
  H  H15  1  0.31631000  0.00285000  0.74872000  1.0
  H  H16  1  0.54740000  0.19578000  0.70980000  1.0
  H  H17  1  0.17256000  0.90724000  0.74541000  1.0
  H  H18  1  0.28278000  0.00428000  0.60510000  1.0
  H  H19  1  0.36228000  0.91215000  0.53547000  1.0
  H  H20  1  0.57149000  0.15781000  0.52178000  1.0
  H  H21  1  0.48445000  0.23700000  0.59352000  1.0
  H  H22  1  0.68369000  0.49715000  0.24872000  1.0
  H  H23  1  0.45260000  0.30422000  0.20980000  1.0
  H  H24  1  0.82745000  0.59277000  0.24541000  1.0
  H  H25  1  0.71722000  0.49572000  0.10510000  1.0
  H  H26  1  0.63773000  0.58784000  0.03547000  1.0
  H  H27  1  0.42852000  0.34219000  0.02178000  1.0
  H  H28  1  0.51555000  0.26300000  0.09352000  1.0
  H  H29  1  0.18369000  0.00285000  0.24872000  1.0
  H  H30  1  0.95260000  0.19578000  0.20980000  1.0
  H  H31  1  0.32745000  0.90723000  0.24541000  1.0
  H  H32  1  0.21722000  0.00428000  0.10510000  1.0
  H  H33  1  0.13773000  0.91216000  0.03547000  1.0
  H  H34  1  0.92852000  0.15781000  0.02178000  1.0
  H  H35  1  0.01555000  0.23700000  0.09352000  1.0
  H  H36  1  0.81631000  0.49715000  0.74872000  1.0
  H  H37  1  0.04740000  0.30422000  0.70980000  1.0
  H  H38  1  0.67256000  0.59276000  0.74541000  1.0
  H  H39  1  0.78279000  0.49572000  0.60510000  1.0
  H  H40  1  0.86228000  0.58785000  0.53547000  1.0
  H  H41  1  0.07148000  0.34219000  0.52178000  1.0
  H  H42  1  0.98445000  0.26300000  0.59352000  1.0
  H  H43  1  0.68370000  0.99715000  0.25128000  1.0
  H  H44  1  0.45261000  0.80421000  0.29020000  1.0
  H  H45  1  0.82745000  0.09276000  0.25459000  1.0
  H  H46  1  0.71722000  0.99572000  0.39490000  1.0
  H  H47  1  0.63773000  0.08785000  0.46453000  1.0
  H  H48  1  0.42852000  0.84219000  0.47822000  1.0
  H  H49  1  0.51555000  0.76300000  0.40648000  1.0
  H  H50  1  0.31632000  0.50285000  0.75128000  1.0
  H  H51  1  0.54741000  0.69578000  0.79020000  1.0
  H  H52  1  0.17255000  0.40724000  0.75460000  1.0
  H  H53  1  0.28279000  0.50428000  0.89490000  1.0
  H  H54  1  0.36228000  0.41216000  0.96453000  1.0
  H  H55  1  0.57149000  0.65781000  0.97823000  1.0
  H  H56  1  0.48446000  0.73700000  0.90648000  1.0
  C  C1  1  0.64211000  0.91717000  0.80165000  1.0
  C  C2  1  0.56263000  0.98213000  0.77859000  1.0
  C  C3  1  0.45991000  0.95835000  0.77769000  1.0
  C  C4  1  0.41727000  0.86876000  0.80378000  1.0
  C  C5  1  0.89569000  0.97924000  0.74918000  1.0
  C  C6  1  0.02494000  0.87234000  0.77108000  1.0
  C  C7  1  0.59424000  0.06957000  0.75446000  1.0
  C  C8  1  0.84710000  0.96510000  0.91467000  1.0
  C  C9  1  0.89250000  0.01563000  0.95399000  1.0
  C  C10  1  0.97513000  0.97385000  0.97890000  1.0
  C  C11  1  0.00800000  0.88039000  0.96145000  1.0
  C  C12  1  0.95957000  0.83433000  0.92153000  1.0
  C  C13  1  0.35790000  0.58283000  0.30166000  1.0
  C  C14  1  0.43737000  0.51787000  0.27860000  1.0
  C  C15  1  0.54010000  0.54165000  0.27769000  1.0
  C  C16  1  0.58274000  0.63124000  0.30378000  1.0
  C  C17  1  0.10432000  0.52076000  0.24919000  1.0
  C  C18  1  0.97508000  0.62765000  0.27109000  1.0
  C  C19  1  0.40576000  0.43043000  0.25447000  1.0
  C  C20  1  0.15291000  0.53490000  0.41467000  1.0
  C  C21  1  0.10751000  0.48437000  0.45399000  1.0
  C  C22  1  0.02488000  0.52615000  0.47890000  1.0
  C  C23  1  0.99201000  0.61961000  0.46145000  1.0
  C  C24  1  0.04045000  0.66567000  0.42153000  1.0
  C  C25  1  0.14211000  0.08283000  0.69835000  1.0
  C  C26  1  0.06263000  0.01787000  0.72141000  1.0
  C  C27  1  0.95991000  0.04165000  0.72231000  1.0
  C  C28  1  0.91727000  0.13124000  0.69623000  1.0
  C  C29  1  0.39568000  0.02076000  0.75081000  1.0
  C  C30  1  0.52493000  0.12765000  0.72892000  1.0
  C  C31  1  0.09425000  0.93043000  0.74554000  1.0
  C  C32  1  0.34709000  0.03490000  0.58533000  1.0
  C  C33  1  0.39250000  0.98436000  0.54601000  1.0
  C  C34  1  0.47513000  0.02615000  0.52110000  1.0
  C  C35  1  0.50799000  0.11961000  0.53855000  1.0
  C  C36  1  0.45956000  0.16567000  0.57847000  1.0
  C  C37  1  0.85790000  0.41717000  0.19835000  1.0
  C  C38  1  0.93738000  0.48213000  0.22141000  1.0
  C  C39  1  0.04010000  0.45835000  0.22232000  1.0
  C  C40  1  0.08274000  0.36876000  0.19622000  1.0
  C  C41  1  0.60432000  0.47924000  0.25082000  1.0
  C  C42  1  0.47507000  0.37235000  0.22892000  1.0
  C  C43  1  0.90576000  0.56957000  0.24554000  1.0
  C  C44  1  0.65291000  0.46510000  0.08533000  1.0
  C  C45  1  0.60751000  0.51563000  0.04601000  1.0
  C  C46  1  0.52488000  0.47385000  0.02110000  1.0
  C  C47  1  0.49201000  0.38039000  0.03855000  1.0
  C  C48  1  0.54044000  0.33433000  0.07847000  1.0
  C  C49  1  0.35790000  0.08283000  0.19835000  1.0
  C  C50  1  0.43738000  0.01787000  0.22141000  1.0
  C  C51  1  0.54010000  0.04165000  0.22232000  1.0
  C  C52  1  0.58274000  0.13124000  0.19622000  1.0
  C  C53  1  0.10432000  0.02076000  0.25082000  1.0
  C  C54  1  0.97507000  0.12765000  0.22892000  1.0
  C  C55  1  0.40576000  0.93043000  0.24554000  1.0
  C  C56  1  0.15291000  0.03490000  0.08533000  1.0
  C  C57  1  0.10751000  0.98437000  0.04601000  1.0
  C  C58  1  0.02488000  0.02615000  0.02110000  1.0
  C  C59  1  0.99201000  0.11961000  0.03855000  1.0
  C  C60  1  0.04044000  0.16567000  0.07847000  1.0
  C  C61  1  0.64211000  0.41717000  0.69835000  1.0
  C  C62  1  0.56264000  0.48213000  0.72141000  1.0
  C  C63  1  0.45991000  0.45835000  0.72231000  1.0
  C  C64  1  0.41727000  0.36876000  0.69623000  1.0
  C  C65  1  0.89568000  0.47924000  0.75081000  1.0
  C  C66  1  0.02493000  0.37235000  0.72892000  1.0
  C  C67  1  0.59425000  0.56957000  0.74554000  1.0
  C  C68  1  0.84709000  0.46510000  0.58533000  1.0
  C  C69  1  0.89250000  0.51563000  0.54601000  1.0
  C  C70  1  0.97513000  0.47385000  0.52110000  1.0
  C  C71  1  0.00799000  0.38039000  0.53855000  1.0
  C  C72  1  0.95956000  0.33433000  0.57847000  1.0
  C  C73  1  0.85790000  0.91717000  0.30166000  1.0
  C  C74  1  0.93738000  0.98213000  0.27860000  1.0
  C  C75  1  0.04010000  0.95835000  0.27769000  1.0
  C  C76  1  0.08274000  0.86876000  0.30378000  1.0
  C  C77  1  0.60432000  0.97924000  0.24919000  1.0
  C  C78  1  0.47508000  0.87234000  0.27109000  1.0
  C  C79  1  0.90576000  0.06957000  0.25447000  1.0
  C  C80  1  0.65292000  0.96510000  0.41467000  1.0
  C  C81  1  0.60751000  0.01563000  0.45399000  1.0
  C  C82  1  0.52488000  0.97385000  0.47890000  1.0
  C  C83  1  0.49201000  0.88039000  0.46145000  1.0
  C  C84  1  0.54045000  0.83433000  0.42153000  1.0
  C  C85  1  0.14211000  0.58283000  0.80165000  1.0
  C  C86  1  0.06263000  0.51787000  0.77859000  1.0
  C  C87  1  0.95991000  0.54165000  0.77769000  1.0
  C  C88  1  0.91727000  0.63124000  0.80378000  1.0
  C  C89  1  0.39569000  0.52075000  0.74918000  1.0
  C  C90  1  0.52494000  0.62765000  0.77108000  1.0
  C  C91  1  0.09424000  0.43043000  0.75446000  1.0
  C  C92  1  0.34710000  0.53490000  0.91467000  1.0
  C  C93  1  0.39250000  0.48437000  0.95399000  1.0
  C  C94  1  0.47513000  0.52615000  0.97890000  1.0
  C  C95  1  0.50800000  0.61961000  0.96145000  1.0
  C  C96  1  0.45957000  0.66567000  0.92153000  1.0
  N  N1  1  0.92665000  0.89711000  0.77350000  1.0
  N  N2  1  0.87967000  0.87547000  0.89842000  1.0
  N  N3  1  0.07337000  0.60289000  0.27351000  1.0
  N  N4  1  0.12034000  0.62454000  0.39843000  1.0
  N  N5  1  0.42664000  0.10289000  0.72649000  1.0
  N  N6  1  0.37967000  0.12454000  0.60157000  1.0
  N  N7  1  0.57336000  0.39711000  0.22650000  1.0
  N  N8  1  0.62034000  0.37547000  0.10158000  1.0
  N  N9  1  0.07336000  0.10289000  0.22650000  1.0
  N  N10  1  0.12034000  0.12453000  0.10158000  1.0
  N  N11  1  0.92664000  0.39711000  0.72649000  1.0
  N  N12  1  0.87967000  0.37546000  0.60157000  1.0
  N  N13  1  0.57337000  0.89711000  0.27351000  1.0
  N  N14  1  0.62034000  0.87546000  0.39843000  1.0
  N  N15  1  0.42665000  0.60289000  0.77350000  1.0
  N  N16  1  0.37967000  0.62453000  0.89842000  1.0
  O  O1  1  0.68705000  0.94924000  0.84010000  1.0
  O  O2  1  0.66682000  0.83850000  0.77779000  1.0
  O  O3  1  0.46936000  0.82312000  0.83571000  1.0
  O  O4  1  0.32768000  0.84330000  0.79066000  1.0
  O  O5  1  0.31297000  0.55076000  0.34012000  1.0
  O  O6  1  0.33318000  0.66149000  0.27779000  1.0
  O  O7  1  0.53066000  0.67688000  0.33571000  1.0
  O  O8  1  0.67232000  0.65671000  0.29065000  1.0
  O  O9  1  0.18704000  0.05077000  0.65989000  1.0
  O  O10  1  0.16682000  0.16149000  0.72221000  1.0
  O  O11  1  0.96935000  0.17688000  0.66430000  1.0
  O  O12  1  0.82769000  0.15670000  0.70934000  1.0
  O  O13  1  0.81296000  0.44924000  0.15990000  1.0
  O  O14  1  0.83319000  0.33850000  0.22222000  1.0
  O  O15  1  0.03064000  0.32312000  0.16430000  1.0
  O  O16  1  0.17233000  0.34330000  0.20933000  1.0
  O  O17  1  0.31296000  0.05076000  0.15990000  1.0
  O  O18  1  0.33318000  0.16150000  0.22222000  1.0
  O  O19  1  0.53064000  0.17687000  0.16430000  1.0
  O  O20  1  0.67233000  0.15670000  0.20933000  1.0
  O  O21  1  0.68704000  0.44923000  0.65989000  1.0
  O  O22  1  0.66683000  0.33851000  0.72221000  1.0
  O  O23  1  0.46935000  0.32312000  0.66430000  1.0
  O  O24  1  0.32769000  0.34329000  0.70934000  1.0
  O  O25  1  0.81297000  0.94923000  0.34012000  1.0
  O  O26  1  0.83318000  0.83851000  0.27779000  1.0
  O  O27  1  0.03066000  0.82312000  0.33571000  1.0
  O  O28  1  0.17232000  0.84329000  0.29065000  1.0
  O  O29  1  0.18705000  0.55076000  0.84010000  1.0
  O  O30  1  0.16682000  0.66150000  0.77779000  1.0
  O  O31  1  0.96936000  0.67687000  0.83571000  1.0
  O  O32  1  0.82768000  0.65670000  0.79066000  1.0
