# generated using pymatgen
data_CoHC4O3
_symmetry_space_group_name_H-M   'P 1'
_cell_length_a   6.86488000
_cell_length_b   15.24893000
_cell_length_c   15.24833328
_cell_angle_alpha   117.77221426
_cell_angle_beta   98.58733460
_cell_angle_gamma   98.63197000
_symmetry_Int_Tables_number   1
_chemical_formula_structural   CoHC4O3
_chemical_formula_sum   'Co6 H6 C24 O18'
_cell_volume   1351.78596642
_cell_formula_units_Z   6
loop_
 _symmetry_equiv_pos_site_id
 _symmetry_equiv_pos_as_xyz
  1  'x, y, z'
loop_
 _atom_site_type_symbol
 _atom_site_label
 _atom_site_symmetry_multiplicity
 _atom_site_fract_x
 _atom_site_fract_y
 _atom_site_fract_z
 _atom_site_occupancy
  Co  Co0  1  0.11246000  0.32788000  0.59551000  1
  Co  Co1  1  0.51700000  0.40442000  0.73249000  1
  Co  Co2  1  0.78396000  0.26761000  0.67213000  1
  Co  Co3  1  0.88761000  0.67195000  0.40462000  1
  Co  Co4  1  0.48297000  0.59535000  0.26724000  1
  Co  Co5  1  0.21601000  0.73258000  0.32787000  1
  H  H6  1  0.65139000  0.02347000  0.47130000  1
  H  H7  1  0.18049000  0.52880000  0.55256000  1
  H  H8  1  0.62755000  0.44716000  0.97549000  1
  H  H9  1  0.34863000  0.97655000  0.52919000  1
  H  H10  1  0.81939000  0.47072000  0.44724000  1
  H  H11  1  0.37226000  0.55296000  0.02445000  1
  C  C12  1  0.35306000  0.17206000  0.60719000  1
  C  C13  1  0.16912000  0.08561000  0.55184000  1
  C  C14  1  0.96872000  0.10039000  0.53641000  1
  C  C15  1  0.80447000  0.01353000  0.48458000  1
  C  C16  1  0.74668000  0.39294000  0.56515000  1
  C  C17  1  0.61771000  0.44819000  0.53399000  1
  C  C18  1  0.43278000  0.46374000  0.56428000  1
  C  C19  1  0.32012000  0.51546000  0.52911000  1
  C  C20  1  0.18339000  0.43500000  0.82825000  1
  C  C21  1  0.08482000  0.46617000  0.91453000  1
  C  C22  1  0.86952000  0.43586000  0.89950000  1
  C  C23  1  0.79075000  0.47079000  0.98606000  1
  C  C24  1  0.64709000  0.82773000  0.39246000  1
  C  C25  1  0.83095000  0.91427000  0.44825000  1
  C  C26  1  0.03129000  0.89948000  0.46396000  1
  C  C27  1  0.19548000  0.98638000  0.51582000  1
  C  C28  1  0.25353000  0.60690000  0.43472000  1
  C  C29  1  0.38226000  0.55148000  0.46580000  1
  C  C30  1  0.56715000  0.53586000  0.43546000  1
  C  C31  1  0.67970000  0.48408000  0.47058000  1
  C  C32  1  0.81680000  0.56506000  0.17180000  1
  C  C33  1  0.91511000  0.53412000  0.08548000  1
  C  C34  1  0.13037000  0.56450000  0.10050000  1
  C  C35  1  0.20908000  0.52955000  0.01394000  1
  O  O36  1  0.32900000  0.26355000  0.64003000  1
  O  O37  1  0.52859000  0.15575000  0.62192000  1
  O  O38  1  0.93003000  0.19359000  0.56844000  1
  O  O39  1  0.69071000  0.36065000  0.62434000  1
  O  O40  1  0.90711000  0.37792000  0.53380000  1
  O  O41  1  0.36171000  0.43173000  0.62543000  1
  O  O42  1  0.06850000  0.37619000  0.73674000  1
  O  O43  1  0.37542000  0.46609000  0.84471000  1
  O  O44  1  0.73823000  0.37481000  0.80625000  1
  O  O45  1  0.67115000  0.73629000  0.35964000  1
  O  O46  1  0.47171000  0.84417000  0.37762000  1
  O  O47  1  0.07019000  0.80633000  0.43196000  1
  O  O48  1  0.30901000  0.63896000  0.37526000  1
  O  O49  1  0.09345000  0.62218000  0.46637000  1
  O  O50  1  0.63840000  0.56798000  0.37441000  1
  O  O51  1  0.93149000  0.62412000  0.26334000  1
  O  O52  1  0.62484000  0.53357000  0.15530000  1
  O  O53  1  0.26175000  0.62540000  0.19375000  1
