# generated using pymatgen
data_Cu3H40C45N9O8
_symmetry_space_group_name_H-M   'P 1'
_cell_length_a   14.79918000
_cell_length_b   19.86344000
_cell_length_c   21.63854000
_cell_angle_alpha   116.87028000
_cell_angle_beta   98.45934000
_cell_angle_gamma   90.26974000
_symmetry_Int_Tables_number   1
_chemical_formula_structural   Cu3H40C45N9O8
_chemical_formula_sum   'Cu12 H160 C180 N36 O32'
_cell_volume   5594.11333224
_cell_formula_units_Z   4
loop_
 _symmetry_equiv_pos_site_id
 _symmetry_equiv_pos_as_xyz
  1  'x, y, z'
loop_
 _atom_site_type_symbol
 _atom_site_label
 _atom_site_symmetry_multiplicity
 _atom_site_fract_x
 _atom_site_fract_y
 _atom_site_fract_z
 _atom_site_occupancy
  Cu  Cu0  1  0.87978000  0.28967000  0.20180000  1
  Cu  Cu1  1  0.36968000  0.38113000  0.30335000  1
  Cu  Cu2  1  0.58512000  0.18543000  0.28712000  1
  Cu  Cu3  1  0.62978000  0.09112000  0.80073000  1
  Cu  Cu4  1  0.13625000  0.08350000  0.69927000  1
  Cu  Cu5  1  0.91923000  0.90183000  0.71159000  1
  Cu  Cu6  1  0.12437000  0.71033000  0.79919000  1
  Cu  Cu7  1  0.63033000  0.61707000  0.69538000  1
  Cu  Cu8  1  0.41748000  0.81392000  0.71152000  1
  Cu  Cu9  1  0.37230000  0.90850000  0.19946000  1
  Cu  Cu10  1  0.86385000  0.91585000  0.30036000  1
  Cu  Cu11  1  0.08231000  0.09638000  0.28740000  1
  H  H12  1  0.79323000  0.53152000  0.65674000  1
  H  H13  1  0.86991000  0.46969000  0.55231000  1
  H  H14  1  0.66007000  0.54443000  0.44111000  1
  H  H15  1  0.59172000  0.60207000  0.55001000  1
  H  H16  1  0.93409000  0.30888000  0.34209000  1
  H  H17  1  0.88966000  0.38488000  0.45497000  1
  H  H18  1  0.74868000  0.52127000  0.36618000  1
  H  H19  1  0.80376000  0.43972000  0.25575000  1
  H  H20  1  0.78100000  0.75707000  0.21222000  1
  H  H21  1  0.81529000  0.62781000  0.19531000  1
  H  H22  1  0.01223000  0.73376000  0.38791000  1
  H  H23  1  0.97009000  0.85890000  0.39569000  1
  H  H24  1  0.98389000  0.42293000  0.14329000  1
  H  H25  1  0.92347000  0.54607000  0.16231000  1
  H  H26  1  0.98738000  0.61797000  0.38612000  1
  H  H27  1  0.04090000  0.49024000  0.35617000  1
  H  H28  1  0.96342000  0.13636000  0.74718000  1
  H  H29  1  0.90099000  0.19049000  0.85762000  1
  H  H30  1  0.17047000  0.18270000  0.96390000  1
  H  H31  1  0.22154000  0.13074000  0.84777000  1
  H  H32  1  0.44654000  0.05469000  0.19287000  1
  H  H33  1  0.41509000  0.96511000  0.06805000  1
  H  H34  1  0.60040000  0.10935000  0.03277000  1
  H  H35  1  0.62329000  0.19391000  0.16029000  1
  H  H36  1  0.79695000  0.23526000  0.05592000  1
  H  H37  1  0.85069000  0.19438000  0.94284000  1
  H  H38  1  0.12771000  0.25752000  0.05965000  1
  H  H39  1  0.06333000  0.29906000  0.16781000  1
  H  H40  1  0.79869000  0.12887000  0.37422000  1
  H  H41  1  0.68326000  0.11998000  0.38489000  1
  H  H42  1  0.77483000  0.25804000  0.38346000  1
  H  H43  1  0.75604000  0.25270000  0.45989000  1
  H  H44  1  0.63714000  0.37539000  0.45321000  1
  H  H45  1  0.68848000  0.34188000  0.37599000  1
  H  H46  1  0.53731000  0.29375000  0.46076000  1
  H  H47  1  0.61602000  0.23716000  0.48015000  1
  H  H48  1  0.59840000  0.03530000  0.28158000  1
  H  H49  1  0.62866000  0.01910000  0.20067000  1
  H  H50  1  0.83720000  0.12418000  0.27746000  1
  H  H51  1  0.76055000  0.07585000  0.19822000  1
  H  H52  1  0.70785000  0.86661000  0.34541000  1
  H  H53  1  0.63390000  0.91164000  0.45125000  1
  H  H54  1  0.83153000  0.10712000  0.54882000  1
  H  H55  1  0.89791000  0.05258000  0.43931000  1
  H  H56  1  0.57089000  0.97124000  0.66285000  1
  H  H57  1  0.60890000  0.93271000  0.54788000  1
  H  H58  1  0.75473000  0.15473000  0.62899000  1
  H  H59  1  0.70641000  0.18533000  0.74230000  1
  H  H60  1  0.71417000  0.54682000  0.78310000  1
  H  H61  1  0.68472000  0.43191000  0.79810000  1
  H  H62  1  0.48135000  0.34891000  0.60910000  1
  H  H63  1  0.51968000  0.46836000  0.60275000  1
  H  H64  1  0.52608000  0.27370000  0.85100000  1
  H  H65  1  0.58082000  0.38027000  0.83216000  1
  H  H66  1  0.51059000  0.23361000  0.60819000  1
  H  H67  1  0.46327000  0.13305000  0.63788000  1
  H  H68  1  0.54217000  0.38824000  0.25435000  1
  H  H69  1  0.60534000  0.33247000  0.14443000  1
  H  H70  1  0.33697000  0.21557000  0.03841000  1
  H  H71  1  0.28512000  0.27915000  0.15404000  1
  H  H72  1  0.05172000  0.85789000  0.80490000  1
  H  H73  1  0.08193000  0.89138000  0.92994000  1
  H  H74  1  0.91133000  0.07843000  0.96578000  1
  H  H75  1  0.88907000  0.03671000  0.83826000  1
  H  H76  1  0.71180000  0.18379000  0.94734000  1
  H  H77  1  0.65688000  0.25312000  0.05981000  1
  H  H78  1  0.38040000  0.19481000  0.94195000  1
  H  H79  1  0.44577000  0.13144000  0.83430000  1
  H  H80  1  0.70382000  0.75737000  0.62020000  1
  H  H81  1  0.81981000  0.73941000  0.61103000  1
  H  H82  1  0.72993000  0.87992000  0.61528000  1
  H  H83  1  0.74837000  0.80084000  0.53782000  1
  H  H84  1  0.86780000  0.92961000  0.54586000  1
  H  H85  1  0.81625000  0.97167000  0.62295000  1
  H  H86  1  0.97005000  0.84204000  0.54053000  1
  H  H87  1  0.88896000  0.76614000  0.51738000  1
  H  H88  1  0.89934000  0.75295000  0.71387000  1
  H  H89  1  0.87032000  0.81656000  0.79505000  1
  H  H90  1  0.66363000  0.85011000  0.71542000  1
  H  H91  1  0.73535000  0.87378000  0.79567000  1
  H  H92  1  0.20817000  0.46672000  0.34290000  1
  H  H93  1  0.13301000  0.53018000  0.44791000  1
  H  H94  1  0.34227000  0.45441000  0.55863000  1
  H  H95  1  0.40941000  0.39548000  0.44922000  1
  H  H96  1  0.06848000  0.69091000  0.65757000  1
  H  H97  1  0.11300000  0.61459000  0.54491000  1
  H  H98  1  0.25338000  0.47835000  0.63406000  1
  H  H99  1  0.19790000  0.55987000  0.74423000  1
  H  H100  1  0.21992000  0.24142000  0.78682000  1
  H  H101  1  0.18571000  0.37093000  0.80432000  1
  H  H102  1  0.98667000  0.26582000  0.61286000  1
  H  H103  1  0.02891000  0.14041000  0.60440000  1
  H  H104  1  0.02115000  0.57733000  0.85786000  1
  H  H105  1  0.07953000  0.45335000  0.83818000  1
  H  H106  1  0.01164000  0.38135000  0.61456000  1
  H  H107  1  0.95994000  0.50980000  0.64509000  1
  H  H108  1  0.03575000  0.85974000  0.25219000  1
  H  H109  1  0.09817000  0.80417000  0.14182000  1
  H  H110  1  0.83111000  0.81729000  0.03564000  1
  H  H111  1  0.77975000  0.87031000  0.15159000  1
  H  H112  1  0.55598000  0.94468000  0.80542000  1
  H  H113  1  0.58722000  0.03444000  0.93021000  1
  H  H114  1  0.40269000  0.88981000  0.96565000  1
  H  H115  1  0.38061000  0.80486000  0.83845000  1
  H  H116  1  0.20475000  0.75872000  0.94417000  1
  H  H117  1  0.15036000  0.79842000  0.05666000  1
  H  H118  1  0.87336000  0.74330000  0.93959000  1
  H  H119  1  0.93832000  0.70249000  0.83190000  1
  H  H120  1  0.20223000  0.87043000  0.62512000  1
  H  H121  1  0.31732000  0.88012000  0.61419000  1
  H  H122  1  0.22721000  0.74160000  0.61595000  1
  H  H123  1  0.24466000  0.74701000  0.53930000  1
  H  H124  1  0.36426000  0.62408000  0.54468000  1
  H  H125  1  0.31302000  0.65736000  0.62197000  1
  H  H126  1  0.46132000  0.70544000  0.53500000  1
  H  H127  1  0.38421000  0.76545000  0.51958000  1
  H  H128  1  0.40212000  0.96480000  0.71720000  1
  H  H129  1  0.37309000  0.98066000  0.79833000  1
  H  H130  1  0.16438000  0.87193000  0.72058000  1
  H  H131  1  0.23932000  0.92385000  0.80021000  1
  H  H132  1  0.29035000  0.13307000  0.65291000  1
  H  H133  1  0.36464000  0.08732000  0.54744000  1
  H  H134  1  0.17093000  0.88928000  0.45215000  1
  H  H135  1  0.10395000  0.94463000  0.56124000  1
  H  H136  1  0.43208000  0.02707000  0.33815000  1
  H  H137  1  0.39371000  0.06464000  0.45277000  1
  H  H138  1  0.24272000  0.84425000  0.36895000  1
  H  H139  1  0.29192000  0.81439000  0.25617000  1
  H  H140  1  0.28357000  0.45302000  0.21721000  1
  H  H141  1  0.31317000  0.56748000  0.20149000  1
  H  H142  1  0.51839000  0.65024000  0.38937000  1
  H  H143  1  0.48006000  0.53120000  0.39641000  1
  H  H144  1  0.47355000  0.72363000  0.14658000  1
  H  H145  1  0.41830000  0.61773000  0.16624000  1
  H  H146  1  0.48862000  0.76570000  0.38996000  1
  H  H147  1  0.53624000  0.86555000  0.35944000  1
  H  H148  1  0.45670000  0.61299000  0.74468000  1
  H  H149  1  0.39411000  0.66846000  0.85493000  1
  H  H150  1  0.66314000  0.78386000  0.96068000  1
  H  H151  1  0.71462000  0.72049000  0.84488000  1
  H  H152  1  0.95245000  0.13960000  0.19293000  1
  H  H153  1  0.92507000  0.10640000  0.06799000  1
  H  H154  1  0.09128000  0.91706000  0.03313000  1
  H  H155  1  0.11315000  0.95978000  0.16098000  1
  H  H156  1  0.28976000  0.81936000  0.05324000  1
  H  H157  1  0.34364000  0.74965000  0.94015000  1
  H  H158  1  0.62047000  0.80261000  0.05712000  1
  H  H159  1  0.55602000  0.86627000  0.16528000  1
  H  H160  1  0.29856000  0.23959000  0.37740000  1
  H  H161  1  0.18317000  0.25923000  0.38730000  1
  H  H162  1  0.27160000  0.11844000  0.38384000  1
  H  H163  1  0.25259000  0.19808000  0.46082000  1
  H  H164  1  0.13369000  0.06932000  0.45311000  1
  H  H165  1  0.18430000  0.02653000  0.37542000  1
  H  H166  1  0.03217000  0.15664000  0.45879000  1
  H  H167  1  0.11244000  0.23289000  0.48090000  1
  H  H168  1  0.10144000  0.24539000  0.28532000  1
  H  H169  1  0.12971000  0.18211000  0.20374000  1
  H  H170  1  0.33704000  0.14859000  0.28064000  1
  H  H171  1  0.26265000  0.12276000  0.20096000  1
  C  C172  1  0.76579000  0.53208000  0.60749000  1
  C  C173  1  0.80864000  0.49864000  0.54924000  1
  C  C174  1  0.77280000  0.50152000  0.48635000  1
  C  C175  1  0.69360000  0.54128000  0.48780000  1
  C  C176  1  0.65407000  0.57298000  0.54791000  1
  C  C177  1  0.89518000  0.35775000  0.34971000  1
  C  C178  1  0.86896000  0.40178000  0.41399000  1
  C  C179  1  0.81182000  0.46106000  0.42234000  1
  C  C180  1  0.78936000  0.47490000  0.36355000  1
  C  C181  1  0.81963000  0.42936000  0.30128000  1
  C  C182  1  0.83230000  0.74889000  0.24929000  1
  C  C183  1  0.85237000  0.67722000  0.24013000  1
  C  C184  1  0.92034000  0.66887000  0.28871000  1
  C  C185  1  0.96061000  0.73600000  0.34760000  1
  C  C186  1  0.93741000  0.80584000  0.35276000  1
  C  C187  1  0.98311000  0.46746000  0.19644000  1
  C  C188  1  0.94847000  0.53627000  0.20720000  1
  C  C189  1  0.95057000  0.59409000  0.27629000  1
  C  C190  1  0.98550000  0.57701000  0.33127000  1
  C  C191  1  0.01663000  0.50562000  0.31458000  1
  C  C192  1  0.00661000  0.14833000  0.79677000  1
  C  C193  1  0.97257000  0.17828000  0.85909000  1
  C  C194  1  0.02980000  0.19216000  0.92296000  1
  C  C195  1  0.12207000  0.17498000  0.91780000  1
  C  C196  1  0.15130000  0.14498000  0.85343000  1
  C  C197  1  0.48054000  0.06440000  0.15593000  1
  C  C198  1  0.46305000  0.01408000  0.08472000  1
  C  C199  1  0.50764000  0.02646000  0.03693000  1
  C  C200  1  0.56521000  0.09383000  0.06564000  1
  C  C201  1  0.57877000  0.14197000  0.13716000  1
  C  C202  1  0.86956000  0.24016000  0.05418000  1
  C  C203  1  0.90044000  0.21745000  0.99117000  1
  C  C204  1  0.99559000  0.22039000  0.98901000  1
  C  C205  1  0.05373000  0.25068000  0.05538000  1
  C  C206  1  0.01821000  0.27431000  0.11689000  1
  C  C207  1  0.72965000  0.14613000  0.36525000  1
  C  C208  1  0.72953000  0.23190000  0.40358000  1
  C  C209  1  0.63142000  0.33152000  0.39852000  1
  C  C210  1  0.54332000  0.33512000  0.35374000  1
  C  C211  1  0.57429000  0.24291000  0.43663000  1
  C  C212  1  0.50131000  0.17468000  0.39927000  1
  C  C213  1  0.65678000  0.03659000  0.25602000  1
  C  C214  1  0.72015000  0.97679000  0.25832000  1
  C  C215  1  0.76847000  0.12488000  0.25036000  1
  C  C216  1  0.76779000  0.19567000  0.23916000  1
  C  C217  1  0.73336000  0.91907000  0.39216000  1
  C  C218  1  0.69178000  0.94540000  0.45119000  1
  C  C219  1  0.72519000  0.01442000  0.51080000  1
  C  C220  1  0.80027000  0.05424000  0.50509000  1
  C  C221  1  0.83878000  0.02409000  0.44450000  1
  C  C222  1  0.60953000  0.01149000  0.65321000  1
  C  C223  1  0.63205000  0.99028000  0.58748000  1
  C  C224  1  0.68865000  0.03966000  0.57615000  1
  C  C225  1  0.71399000  0.11207000  0.63363000  1
  C  C226  1  0.68767000  0.12975000  0.69763000  1
  C  C227  1  0.66269000  0.50169000  0.74641000  1
  C  C228  1  0.64535000  0.43778000  0.75448000  1
  C  C229  1  0.57713000  0.38104000  0.70636000  1
  C  C230  1  0.53356000  0.39105000  0.64888000  1
  C  C231  1  0.55433000  0.45694000  0.64463000  1
  C  C232  1  0.52422000  0.26671000  0.79784000  1
  C  C233  1  0.55569000  0.32618000  0.78719000  1
  C  C234  1  0.55005000  0.31716000  0.71821000  1
  C  C235  1  0.51518000  0.24577000  0.66306000  1
  C  C236  1  0.48758000  0.18947000  0.67961000  1
  C  C237  1  0.49924000  0.35011000  0.20499000  1
  C  C238  1  0.53383000  0.31798000  0.14288000  1
  C  C239  1  0.47726000  0.26742000  0.07911000  1
  C  C240  1  0.38506000  0.25439000  0.08431000  1
  C  C241  1  0.35534000  0.28856000  0.14855000  1
  C  C242  1  0.02038000  0.90560000  0.84211000  1
  C  C243  1  0.03735000  0.92563000  0.91340000  1
  C  C244  1  0.99659000  0.98756000  0.96143000  1
  C  C245  1  0.94354000  0.02872000  0.93289000  1
  C  C246  1  0.93036000  0.00614000  0.86135000  1
  C  C247  1  0.63895000  0.18850000  0.94859000  1
  C  C248  1  0.60736000  0.22734000  0.01136000  1
  C  C249  1  0.51207000  0.23047000  0.01322000  1
  C  C250  1  0.45453000  0.19385000  0.94662000  1
  C  C251  1  0.49071000  0.15754000  0.88531000  1
  C  C252  1  0.77313000  0.78434000  0.63082000  1
  C  C253  1  0.77482000  0.83411000  0.59433000  1
  C  C254  1  0.87341000  0.93955000  0.60057000  1
  C  C255  1  0.96142000  0.98786000  0.64563000  1
  C  C256  1  0.93057000  0.81366000  0.56248000  1
  C  C257  1  0.00109000  0.78019000  0.59910000  1
  C  C258  1  0.84155000  0.78029000  0.73962000  1
  C  C259  1  0.77621000  0.71870000  0.73712000  1
  C  C260  1  0.73247000  0.87501000  0.74527000  1
  C  C261  1  0.73863000  0.95832000  0.76085000  1
  C  C262  1  0.23589000  0.46639000  0.39219000  1
  C  C263  1  0.19383000  0.50066000  0.45078000  1
  C  C264  1  0.22978000  0.49785000  0.51369000  1
  C  C265  1  0.30857000  0.45753000  0.51196000  1
  C  C266  1  0.34741000  0.42506000  0.45151000  1
  C  C267  1  0.10761000  0.64221000  0.65032000  1
  C  C268  1  0.13375000  0.59788000  0.58603000  1
  C  C269  1  0.19088000  0.53861000  0.57777000  1
  C  C270  1  0.21292000  0.52480000  0.63660000  1
  C  C271  1  0.18260000  0.57048000  0.69882000  1
  C  C272  1  0.16828000  0.24988000  0.75012000  1
  C  C273  1  0.14827000  0.32165000  0.75961000  1
  C  C274  1  0.07985000  0.33027000  0.71148000  1
  C  C275  1  0.03883000  0.26334000  0.65274000  1
  C  C276  1  0.06205000  0.19336000  0.64720000  1
  C  C277  1  0.02048000  0.53256000  0.80459000  1
  C  C278  1  0.05399000  0.46329000  0.79345000  1
  C  C279  1  0.05025000  0.40529000  0.72425000  1
  C  C280  1  0.01470000  0.42251000  0.66948000  1
  C  C281  1  0.98472000  0.49431000  0.68651000  1
  C  C282  1  0.99300000  0.84864000  0.20267000  1
  C  C283  1  0.02714000  0.81794000  0.14036000  1
  C  C284  1  0.97073000  0.80526000  0.07649000  1
  C  C285  1  0.87897000  0.82419000  0.08171000  1
  C  C286  1  0.84961000  0.85481000  0.14607000  1
  C  C287  1  0.52208000  0.93494000  0.84240000  1
  C  C288  1  0.53953000  0.98533000  0.91361000  1
  C  C289  1  0.49505000  0.97299000  0.96147000  1
  C  C290  1  0.43789000  0.90543000  0.93286000  1
  C  C291  1  0.42458000  0.85706000  0.86140000  1
  C  C292  1  0.13190000  0.75564000  0.94570000  1
  C  C293  1  0.10058000  0.77763000  0.00846000  1
  C  C294  1  0.00528000  0.77687000  0.01052000  1
  C  C295  1  0.94752000  0.74878000  0.94409000  1
  C  C296  1  0.98344000  0.72574000  0.88278000  1
  C  C297  1  0.27155000  0.85353000  0.63391000  1
  C  C298  1  0.27193000  0.76779000  0.59548000  1
  C  C299  1  0.37011000  0.66781000  0.59948000  1
  C  C300  1  0.45846000  0.66348000  0.64366000  1
  C  C301  1  0.42642000  0.75697000  0.56139000  1
  C  C302  1  0.50174000  0.82333000  0.59874000  1
  C  C303  1  0.34423000  0.96306000  0.74309000  1
  C  C304  1  0.28022000  0.02272000  0.74123000  1
  C  C305  1  0.23344000  0.87398000  0.74877000  1
  C  C306  1  0.23690000  0.80412000  0.76151000  1
  C  C307  1  0.26560000  0.07991000  0.60671000  1
  C  C308  1  0.30740000  0.05320000  0.54782000  1
  C  C309  1  0.27498000  0.98348000  0.48867000  1
  C  C310  1  0.20097000  0.94314000  0.49511000  1
  C  C311  1  0.16218000  0.97370000  0.55558000  1
  C  C312  1  0.39240000  0.98683000  0.34713000  1
  C  C313  1  0.36952000  0.00754000  0.41266000  1
  C  C314  1  0.31155000  0.95841000  0.42333000  1
  C  C315  1  0.28500000  0.88667000  0.36513000  1
  C  C316  1  0.31178000  0.86941000  0.30136000  1
  C  C317  1  0.33557000  0.49792000  0.25346000  1
  C  C318  1  0.35294000  0.56161000  0.24500000  1
  C  C319  1  0.42177000  0.61808000  0.29253000  1
  C  C320  1  0.46577000  0.60819000  0.34996000  1
  C  C321  1  0.44497000  0.54247000  0.35455000  1
  C  C322  1  0.47529000  0.73102000  0.19987000  1
  C  C323  1  0.44354000  0.67195000  0.21099000  1
  C  C324  1  0.44903000  0.68160000  0.28016000  1
  C  C325  1  0.48408000  0.75312000  0.33498000  1
  C  C326  1  0.51195000  0.80899000  0.31797000  1
  C  C327  1  0.50003000  0.65056000  0.79407000  1
  C  C328  1  0.46572000  0.68257000  0.85636000  1
  C  C329  1  0.52274000  0.73250000  0.92014000  1
  C  C330  1  0.61489000  0.74527000  0.91475000  1
  C  C331  1  0.64435000  0.71121000  0.85038000  1
  C  C332  1  0.98399000  0.09171000  0.15609000  1
  C  C333  1  0.96825000  0.07162000  0.08482000  1
  C  C334  1  0.00842000  0.00904000  0.03709000  1
  C  C335  1  0.06007000  0.96748000  0.06592000  1
  C  C336  1  0.07270000  0.99052000  0.13761000  1
  C  C337  1  0.36236000  0.81294000  0.05156000  1
  C  C338  1  0.39334000  0.77403000  0.98853000  1
  C  C339  1  0.48846000  0.76935000  0.98633000  1
  C  C340  1  0.54646000  0.80466000  0.05279000  1
  C  C341  1  0.51083000  0.84102000  0.11436000  1
  C  C342  1  0.22885000  0.21354000  0.36731000  1
  C  C343  1  0.22662000  0.16426000  0.40430000  1
  C  C344  1  0.12754000  0.05897000  0.39825000  1
  C  C345  1  0.03899000  0.01094000  0.35355000  1
  C  C346  1  0.07083000  0.18487000  0.43628000  1
  C  C347  1  0.99935000  0.21715000  0.39916000  1
  C  C348  1  0.15891000  0.21805000  0.25913000  1
  C  C349  1  0.22407000  0.27973000  0.26170000  1
  C  C350  1  0.26793000  0.12285000  0.25208000  1
  C  C351  1  0.26326000  0.04010000  0.23828000  1
  N  N352  1  0.68836000  0.56799000  0.60706000  1
  N  N353  1  0.87016000  0.36985000  0.29276000  1
  N  N354  1  0.87566000  0.81279000  0.30368000  1
  N  N355  1  0.01784000  0.45124000  0.24883000  1
  N  N356  1  0.09479000  0.13114000  0.79296000  1
  N  N357  1  0.53962000  0.12698000  0.18277000  1
  N  N358  1  0.92626000  0.26871000  0.11764000  1
  N  N359  1  0.63510000  0.25436000  0.39255000  1
  N  N360  1  0.69636000  0.11609000  0.28810000  1
  N  N361  1  0.80729000  0.95684000  0.38881000  1
  N  N362  1  0.63793000  0.08005000  0.70895000  1
  N  N363  1  0.61650000  0.51253000  0.69332000  1
  N  N364  1  0.48953000  0.19871000  0.74537000  1
  N  N365  1  0.41112000  0.33594000  0.20891000  1
  N  N366  1  0.96549000  0.94392000  0.81553000  1
  N  N367  1  0.58287000  0.15300000  0.88486000  1
  N  N368  1  0.86956000  0.86810000  0.60645000  1
  N  N369  1  0.80466000  0.82911000  0.70825000  1
  N  N370  1  0.31282000  0.42978000  0.39228000  1
  N  N371  1  0.13263000  0.63034000  0.70742000  1
  N  N372  1  0.12440000  0.18619000  0.69583000  1
  N  N373  1  0.98530000  0.54896000  0.75242000  1
  N  N374  1  0.90541000  0.86767000  0.20655000  1
  N  N375  1  0.46334000  0.87216000  0.81568000  1
  N  N376  1  0.07563000  0.72988000  0.88228000  1
  N  N377  1  0.36649000  0.74523000  0.60588000  1
  N  N378  1  0.30513000  0.88345000  0.71098000  1
  N  N379  1  0.19237000  0.04182000  0.61059000  1
  N  N380  1  0.36316000  0.91887000  0.29081000  1
  N  N381  1  0.38235000  0.48698000  0.30630000  1
  N  N382  1  0.51006000  0.79916000  0.25204000  1
  N  N383  1  0.58828000  0.66417000  0.79002000  1
  N  N384  1  0.03778000  0.05314000  0.18307000  1
  N  N385  1  0.41890000  0.84682000  0.11515000  1
  N  N386  1  0.13175000  0.13039000  0.39227000  1
  N  N387  1  0.19637000  0.16890000  0.28997000  1
  O  O388  1  0.50938000  0.27332000  0.30074000  1
  O  O389  1  0.50941000  0.39827000  0.36969000  1
  O  O390  1  0.49989000  0.13110000  0.33382000  1
  O  O391  1  0.44984000  0.16881000  0.43813000  1
  O  O392  1  0.80495000  0.99951000  0.28456000  1
  O  O393  1  0.68615000  0.90998000  0.23464000  1
  O  O394  1  0.71385000  0.24572000  0.26529000  1
  O  O395  1  0.82552000  0.19559000  0.20000000  1
  O  O396  1  0.99588000  0.97693000  0.69762000  1
  O  O397  1  0.99479000  0.03663000  0.63086000  1
  O  O398  1  0.00412000  0.80197000  0.66493000  1
  O  O399  1  0.04994000  0.73414000  0.55933000  1
  O  O400  1  0.69196000  0.71444000  0.70942000  1
  O  O401  1  0.80915000  0.67643000  0.76236000  1
  O  O402  1  0.79534000  0.98330000  0.73677000  1
  O  O403  1  0.68178000  0.99712000  0.80039000  1
  O  O404  1  0.49442000  0.72526000  0.69568000  1
  O  O405  1  0.49063000  0.59967000  0.62791000  1
  O  O406  1  0.50435000  0.86700000  0.66439000  1
  O  O407  1  0.55348000  0.82784000  0.55940000  1
  O  O408  1  0.19534000  0.00001000  0.71540000  1
  O  O409  1  0.31410000  0.08955000  0.76494000  1
  O  O410  1  0.29039000  0.75405000  0.73429000  1
  O  O411  1  0.18174000  0.80452000  0.80253000  1
  O  O412  1  0.00527000  0.02036000  0.30049000  1
  O  O413  1  0.00466000  0.96351000  0.36955000  1
  O  O414  1  0.99620000  0.19468000  0.33325000  1
  O  O415  1  0.95006000  0.26314000  0.43847000  1
  O  O416  1  0.30871000  0.28279000  0.28796000  1
  O  O417  1  0.19089000  0.32320000  0.23794000  1
  O  O418  1  0.20923000  0.01645000  0.26520000  1
  O  O419  1  0.31813000  0.00037000  0.19710000  1
