# generated using pymatgen
data_AlH5C8O5
_symmetry_space_group_name_H-M   'P 1'
_cell_length_a   10.28805000
_cell_length_b   16.14008649
_cell_length_c   16.14235606
_cell_angle_alpha   84.16881715
_cell_angle_beta   71.41638276
_cell_angle_gamma   71.41500335
_symmetry_Int_Tables_number   1
_chemical_formula_structural   AlH5C8O5
_chemical_formula_sum   'Al8 H40 C64 O40'
_cell_volume   2408.18768558
_cell_formula_units_Z   8
loop_
 _symmetry_equiv_pos_site_id
 _symmetry_equiv_pos_as_xyz
  1  'x, y, z'
loop_
 _atom_site_type_symbol
 _atom_site_label
 _atom_site_symmetry_multiplicity
 _atom_site_fract_x
 _atom_site_fract_y
 _atom_site_fract_z
 _atom_site_occupancy
  Al  Al1  1  0.67897000  0.32029000  0.31964000  1.0
  Al  Al2  1  0.31850000  0.68038000  0.67953000  1.0
  Al  Al3  1  0.99937500  0.31962000  0.17970000  1.0
  Al  Al4  1  0.49808000  0.82045500  0.68039500  1.0
  Al  Al5  1  0.49866000  0.18028500  0.32032500  1.0
  Al  Al6  1  0.99890000  0.67956500  0.81966500  1.0
  Al  Al7  1  0.67840500  0.81966500  0.82049500  1.0
  Al  Al8  1  0.31907000  0.17962000  0.18030000  1.0
  C  C1  1  0.98278500  0.51819500  0.37088500  1.0
  C  C2  1  0.85604000  0.49404000  0.39435000  1.0
  C  C3  1  0.84652500  0.42587500  0.34259500  1.0
  C  C4  1  0.73751500  0.53672000  0.46350000  1.0
  C  C5  1  0.99119500  0.58466000  0.41593000  1.0
  C  C6  1  0.87116000  0.62963500  0.48233500  1.0
  C  C7  1  0.74404000  0.60589000  0.50624000  1.0
  C  C8  1  0.61455500  0.65754000  0.57429000  1.0
  C  C9  1  0.13079500  0.36908500  0.51901500  1.0
  C  C10  1  0.25812000  0.39258000  0.49533000  1.0
  C  C11  1  0.38766500  0.34089500  0.42748500  1.0
  C  C12  1  0.26467000  0.46174000  0.53802000  1.0
  C  C13  1  0.01072000  0.41418500  0.58536500  1.0
  C  C14  1  0.01938500  0.48036000  0.63071000  1.0
  C  C15  1  0.14631500  0.50426500  0.60728500  1.0
  C  C16  1  0.15605000  0.57225500  0.65898500  1.0
  C  C17  1  0.13016500  0.01928000  0.86959000  1.0
  C  C18  1  0.25762500  0.99548500  0.89294500  1.0
  C  C19  1  0.38717000  0.92767000  0.84111000  1.0
  C  C20  1  0.26417000  0.03803500  0.96219500  1.0
  C  C21  1  0.01003000  0.08550500  0.91488500  1.0
  C  C22  1  0.01874500  0.13076500  0.98109500  1.0
  C  C23  1  0.14583000  0.10725000  0.00482000  1.0
  C  C24  1  0.15601000  0.15901500  0.07254500  1.0
  C  C25  1  0.98325000  0.87023000  0.01783000  1.0
  C  C26  1  0.85646500  0.89420500  0.99369500  1.0
  C  C27  1  0.84648500  0.84254000  0.92571000  1.0
  C  C28  1  0.73823500  0.96352500  0.03633500  1.0
  C  C29  1  0.99184000  0.91504000  0.08438000  1.0
  C  C30  1  0.87200000  0.98159000  0.12938000  1.0
  C  C31  1  0.74477000  0.00601500  0.10566500  1.0
  C  C32  1  0.61525500  0.07415000  0.15741000  1.0
  C  C33  1  0.85321500  0.01794000  0.62979000  1.0
  C  C34  1  0.75035500  0.99379000  0.60590000  1.0
  C  C35  1  0.68886500  0.92573500  0.65753500  1.0
  C  C36  1  0.70139000  0.03643500  0.53660500  1.0
  C  C37  1  0.90674500  0.08442500  0.58489500  1.0
  C  C38  1  0.85349500  0.12939000  0.51833000  1.0
  C  C39  1  0.75056500  0.10570000  0.49403000  1.0
  C  C40  1  0.68926000  0.15741500  0.42587500  1.0
  C  C41  1  0.49981500  0.63048500  0.01927500  1.0
  C  C42  1  0.65062000  0.60715500  0.99551500  1.0
  C  C43  1  0.72832500  0.65895000  0.92768000  1.0
  C  C44  1  0.72643500  0.53796500  0.03814500  1.0
  C  C45  1  0.42497000  0.58518000  0.08549000  1.0
  C  C46  1  0.49990500  0.51896000  0.13074000  1.0
  C  C47  1  0.65072500  0.49528500  0.10730500  1.0
  C  C48  1  0.72858500  0.42748000  0.15905000  1.0
  C  C65  1  0.14945000  0.86959000  0.48087000  1.0
  C  C66  1  0.25319500  0.89294000  0.50457000  1.0
  C  C67  1  0.31493000  0.84109000  0.57236000  1.0
  C  C68  1  0.30236500  0.96215000  0.46196000  1.0
  C  C69  1  0.09557500  0.91478000  0.41460000  1.0
  C  C70  1  0.14966500  0.98092500  0.36923500  1.0
  C  C71  1  0.25324500  0.00470000  0.39271000  1.0
  C  C72  1  0.31509500  0.07246500  0.34093500  1.0
  C  C73  1  0.50102500  0.48197000  0.87002000  1.0
  C  C74  1  0.35010500  0.50617500  0.89406500  1.0
  C  C75  1  0.27215500  0.57427500  0.84247500  1.0
  C  C76  1  0.27449000  0.46355000  0.96339000  1.0
  C  C77  1  0.57614000  0.41547500  0.91490500  1.0
  C  C78  1  0.50129500  0.37057000  0.98156000  1.0
  C  C79  1  0.35036000  0.39427000  0.00594000  1.0
  C  C80  1  0.27260500  0.34258500  0.07413500  1.0
  H  H1  1  0.13407500  0.78277500  0.77644500  1.0
  H  H2  1  0.41106500  0.72297500  0.78244500  1.0
  H  H4  1  0.69629000  0.22147500  0.21849500  1.0
  H  H5  1  0.91807000  0.21842500  0.27860500  1.0
  H  H6  1  0.91660500  0.77711500  0.71761500  1.0
  H  H7  1  0.69387500  0.71761500  0.72301500  1.0
  H  H8  1  0.41386500  0.28183500  0.22205500  1.0
  H  H12  1  0.13648000  0.27814500  0.28165500  1.0
  H  H17  1  0.07328500  0.48446000  0.31674000  1.0
  H  H18  1  0.87335000  0.68383000  0.51623000  1.0
  H  H19  1  0.63911500  0.51835000  0.48200000  1.0
  H  H20  1  0.09036000  0.60203500  0.39870500  1.0
  H  H21  1  0.12860000  0.31500000  0.48495000  1.0
  H  H22  1  0.92907500  0.51418500  0.68492500  1.0
  H  H23  1  0.36295500  0.48021500  0.51949500  1.0
  H  H24  1  0.91128000  0.39714500  0.60233500  1.0
  H  H25  1  0.12784500  0.98535500  0.81545500  1.0
  H  H26  1  0.92850500  0.18498500  0.01500500  1.0
  H  H27  1  0.36236000  0.01954500  0.98076500  1.0
  H  H28  1  0.91054000  0.10253500  0.89790500  1.0
  H  H29  1  0.07339000  0.81590500  0.98406500  1.0
  H  H30  1  0.87455500  0.01513500  0.18368500  1.0
  H  H31  1  0.64015000  0.98218500  0.01763500  1.0
  H  H32  1  0.09101500  0.89743000  0.10181000  1.0
  H  H33  1  0.88906000  0.98416500  0.68408500  1.0
  H  H34  1  0.88972500  0.18362000  0.48468000  1.0
  H  H35  1  0.62180000  0.01785500  0.51800500  1.0
  H  H36  1  0.98838500  0.10182000  0.60245000  1.0
  H  H37  1  0.44333500  0.68460000  0.98534000  1.0
  H  H38  1  0.44359000  0.48497000  0.18488000  1.0
  H  H39  1  0.84318000  0.51953500  0.01970500  1.0
  H  H40  1  0.30850000  0.60209500  0.10248500  1.0
  H  H49  1  0.11320500  0.81549000  0.51490000  1.0
  H  H50  1  0.11368000  0.01474500  0.31498500  1.0
  H  H51  1  0.38210500  0.98076000  0.48038000  1.0
  H  H52  1  0.01303000  0.89778500  0.39767500  1.0
  H  H53  1  0.55736500  0.51563500  0.81556500  1.0
  H  H54  1  0.55810500  0.31640500  0.01527500  1.0
  H  H55  1  0.15769000  0.48222500  0.98206500  1.0
  H  H56  1  0.69273500  0.39804500  0.89726500  1.0
  O  O1  1  0.86458000  0.26439500  0.24753500  1.0
  O  O2  1  0.74273500  0.39343500  0.37492500  1.0
  O  O3  1  0.94401500  0.40631500  0.26866500  1.0
  O  O4  1  0.51067500  0.62518000  0.60662000  1.0
  O  O5  1  0.61862000  0.73144500  0.59384500  1.0
  O  O6  1  0.61176500  0.25259500  0.26446500  1.0
  O  O7  1  0.49003000  0.37450000  0.39352000  1.0
  O  O8  1  0.71272000  0.23137500  0.40633500  1.0
  O  O9  1  0.65251500  0.40954500  0.23393500  1.0
  O  O10  1  0.38652000  0.26602000  0.40954000  1.0
  O  O11  1  0.25803000  0.60626000  0.62540000  1.0
  O  O12  1  0.06191500  0.59030500  0.73380500  1.0
  O  O13  1  0.61055500  0.76485000  0.75300000  1.0
  O  O14  1  0.48965000  0.89369500  0.87462500  1.0
  O  O15  1  0.38597500  0.90973000  0.76624000  1.0
  O  O16  1  0.25813000  0.12545500  0.10643500  1.0
  O  O17  1  0.06210500  0.23394000  0.09042000  1.0
  O  O18  1  0.86346000  0.74699000  0.76482000  1.0
  O  O19  1  0.74247500  0.87487500  0.89344500  1.0
  O  O20  1  0.65219500  0.73383500  0.90974500  1.0
  O  O21  1  0.71243500  0.90618000  0.73146000  1.0
  O  O22  1  0.94393000  0.76859000  0.90619000  1.0
  O  O23  1  0.51137000  0.10661500  0.12506500  1.0
  O  O24  1  0.61909000  0.09367000  0.23138000  1.0
  O  O25  1  0.61734000  0.89340500  0.62515500  1.0
  O  O26  1  0.61786000  0.12507500  0.39340500  1.0
  O  O28  1  0.37512500  0.75309000  0.73521000  1.0
  O  O29  1  0.38343000  0.87460000  0.60633000  1.0
  O  O30  1  0.86429500  0.62540500  0.89368500  1.0
  O  O31  1  0.86456500  0.39354000  0.12551000  1.0
  O  O33  1  0.12829000  0.73514000  0.74690000  1.0
  O  O34  1  0.13592500  0.60660000  0.87485000  1.0
  O  O38  1  0.12905000  0.24732000  0.23548000  1.0
  O  O39  1  0.13640500  0.37493500  0.10661500  1.0
  O  O43  1  0.37613000  0.23541500  0.25273500  1.0
  O  O44  1  0.38359500  0.10639000  0.37450000  1.0
  O  O45  1  0.29576000  0.76620000  0.59027000  1.0
  O  O47  1  0.29604500  0.09037500  0.26603500  1.0
  O  O48  1  0.35006500  0.59384500  0.76854500  1.0
  O  O50  1  0.35047500  0.26861000  0.09368000  1.0
