# generated using pymatgen
data_H23(C8N)4
_symmetry_space_group_name_H-M   'P 1'
_cell_length_a   8.04983333
_cell_length_b   31.13300000
_cell_length_c   71.21970000
_cell_angle_alpha   89.97760000
_cell_angle_beta   90.01630000
_cell_angle_gamma   90.10360000
_symmetry_Int_Tables_number   1
_chemical_formula_structural   H23(C8N)4
_chemical_formula_sum   'H184 C256 N32'
_cell_volume   17848.72669914
_cell_formula_units_Z   8
loop_
 _symmetry_equiv_pos_site_id
 _symmetry_equiv_pos_as_xyz
  1  'x, y, z'
loop_
 _atom_site_type_symbol
 _atom_site_label
 _atom_site_symmetry_multiplicity
 _atom_site_fract_x
 _atom_site_fract_y
 _atom_site_fract_z
 _atom_site_occupancy
  C  1  1  0.84686120  0.26875200  0.94264000  1
  C  2  1  0.75240920  0.23160450  0.94274750  1
  C  3  1  0.71594120  0.22055200  0.92417900  1
  C  5  1  0.86916320  0.28162400  0.92401250  1
  C  6  1  0.95610920  0.31929450  0.91821600  1
  C  7  1  0.97002320  0.33309900  0.89923900  1
  C  9  1  0.94679120  0.33566700  0.86787550  1
  C  10  1  0.03067400  0.37261750  0.87369900  1
  C  11  1  0.04753100  0.37066550  0.89296900  1
  C  12  1  0.91028120  0.32426150  0.84902250  1
  C  13  1  0.83493620  0.28498200  0.84335150  1
  C  15  1  0.70970120  0.22010600  0.84341050  1
  C  16  1  0.74433920  0.23132000  0.82480950  1
  C  17  1  0.81893120  0.27123500  0.82475600  1
  C  18  1  0.62868920  0.18158050  0.84912800  1
  C  19  1  0.59713520  0.17028450  0.86810400  1
  C  21  1  0.59298020  0.17152950  0.89958550  1
  C  22  1  0.50306120  0.13559250  0.89357700  1
  C  23  1  0.50763020  0.13449350  0.87420600  1
  C  24  1  0.62202320  0.18390100  0.91853550  1
  C  25  1  0.54822920  0.15775600  0.93277400  1
  C  26  1  0.61845920  0.11779300  0.93781450  1
  C  27  1  0.53337920  0.08961900  0.94997250  1
  C  28  1  0.37731300  0.10076350  0.95757050  1
  C  29  1  0.30834900  0.14106650  0.95268000  1
  C  30  1  0.39249900  0.16914550  0.94042150  1
  C  31  1  0.58341320  0.15141900  0.83489400  1
  C  32  1  0.69036920  0.11676900  0.83076450  1
  C  33  1  0.65825720  0.08966550  0.81537500  1
  C  34  1  0.51779720  0.09626300  0.80375400  1
  C  35  1  0.41071520  0.13079900  0.80799850  1
  C  36  1  0.44211920  0.15789750  0.82345250  1
  C  37  1  0.95469020  0.35394400  0.83463800  1
  C  38  1  0.83339420  0.38169400  0.82704000  1
  C  39  1  0.87286220  0.40900200  0.81193650  1
  C  40  1  0.03336200  0.40893050  0.80397250  1
  C  41  1  0.15536600  0.38155050  0.81181600  1
  C  42  1  0.11634500  0.35422650  0.82694250  1
  C  43  1  0.03768500  0.34484800  0.93218100  1
  C  44  1  0.96901820  0.38410650  0.93842250  1
  C  45  1  0.19775000  0.33333333  0.93858000  1
  C  46  1  0.28722200  0.36053800  0.95076250  1
  C  47  1  0.21960800  0.40010600  0.95689500  1
  C  48  1  0.05937800  0.41139500  0.95050550  1
  C  79  1  0.83980220  0.72699050  0.55315900  1
  C  80  1  0.74513120  0.76402100  0.55314200  1
  C  81  1  0.71138720  0.77526200  0.57174750  1
  C  83  1  0.86489120  0.71435100  0.57177000  1
  C  84  1  0.95332520  0.67691950  0.57749200  1
  C  85  1  0.96936320  0.66320800  0.59646350  1
  C  87  1  0.94839020  0.66053600  0.62785050  1
  C  88  1  0.03423200  0.62402450  0.62196500  1
  C  89  1  0.04960700  0.62604400  0.60268100  1
  C  90  1  0.91245620  0.67173700  0.64673500  1
  C  91  1  0.83573420  0.71070000  0.65249400  1
  C  93  1  0.71101520  0.77553950  0.65256850  1
  C  94  1  0.74451920  0.76398150  0.67115400  1
  C  95  1  0.81845420  0.72405250  0.67112600  1
  C  96  1  0.63156320  0.81426100  0.64691350  1
  C  97  1  0.59930120  0.82565400  0.62795600  1
  C  99  1  0.59220920  0.82442250  0.59646750  1
  C  100  1  0.50460920  0.86056350  0.60257300  1
  C  101  1  0.51094520  0.86164200  0.62194000  1
  C  102  1  0.61881920  0.81198650  0.57748100  1
  C  103  1  0.54455120  0.83824900  0.56331700  1
  C  104  1  0.61611320  0.87803050  0.55814150  1
  C  105  1  0.53123720  0.90629300  0.54602950  1
  C  106  1  0.37412400  0.89541550  0.53857700  1
  C  107  1  0.30375600  0.85530900  0.54362400  1
  C  108  1  0.38772300  0.82712400  0.55583050  1
  C  109  1  0.58940120  0.84462600  0.66117550  1
  C  110  1  0.69704120  0.87954150  0.66482900  1
  C  111  1  0.66684320  0.90737550  0.68000500  1
  C  112  1  0.52804520  0.90112900  0.69188700  1
  C  113  1  0.42108320  0.86611450  0.68828050  1
  C  114  1  0.45014720  0.83841850  0.67297700  1
  C  115  1  0.95840420  0.64209700  0.66106300  1
  C  116  1  0.83970920  0.61292600  0.66822750  1
  C  117  1  0.87992720  0.58578200  0.68335300  1
  C  118  1  0.03851600  0.58742550  0.69177500  1
  C  119  1  0.15799700  0.61626450  0.68437100  1
  C  120  1  0.11828000  0.64340050  0.66921300  1
  C  121  1  0.03446600  0.65155000  0.56345700  1
  C  122  1  0.96707420  0.61191250  0.55741500  1
  C  123  1  0.19350800  0.66353500  0.55686200  1
  C  124  1  0.28329800  0.63644800  0.54470750  1
  C  125  1  0.21704600  0.59649500  0.53878600  1
  C  126  1  0.05783300  0.58471200  0.54537200  1
  C  157  1  0.27308500  0.72709050  0.05356100  1
  C  158  1  0.36882100  0.76402650  0.05343750  1
  C  159  1  0.40353710  0.77542850  0.07200750  1
  C  161  1  0.24709900  0.71484150  0.07220750  1
  C  162  1  0.15676300  0.67771850  0.07804900  1
  C  163  1  0.13935700  0.66460300  0.09710150  1
  C  165  1  0.16162900  0.66228450  0.12849500  1
  C  166  1  0.07230400  0.62613000  0.12276850  1
  C  167  1  0.05596300  0.62797700  0.10349800  1
  C  168  1  0.20002900  0.67339550  0.14733250  1
  C  169  1  0.27984400  0.71207900  0.15298800  1
  C  171  1  0.40945610  0.77634700  0.15286850  1
  C  172  1  0.37618300  0.76511500  0.17150000  1
  C  173  1  0.29911300  0.72551300  0.17158800  1
  C  174  1  0.49181210  0.81461450  0.14708700  1
  C  175  1  0.52396910  0.82563150  0.12809300  1
  C  177  1  0.52809110  0.82422650  0.09660300  1
  C  178  1  0.61913510  0.85999800  0.10260550  1
  C  179  1  0.61470710  0.86118350  0.12196950  1
  C  180  1  0.49824710  0.81196650  0.07764050  1
  C  181  1  0.56713910  0.83909200  0.06341450  1
  C  182  1  0.49568210  0.87968250  0.05967900  1
  C  183  1  0.57807710  0.90960900  0.04813300  1
  C  184  1  0.73112210  0.89923800  0.03964700  1
  C  185  1  0.80098910  0.85834250  0.04296550  1
  C  186  1  0.72004310  0.82861550  0.05478650  1
  C  187  1  0.53710310  0.84490900  0.16126300  1
  C  188  1  0.42952910  0.87944200  0.16537150  1
  C  189  1  0.46140710  0.90671000  0.18070900  1
  C  190  1  0.60195710  0.90030050  0.19233750  1
  C  191  1  0.70959110  0.86586050  0.18812050  1
  C  192  1  0.67863710  0.83865750  0.17268700  1
  C  193  1  0.15498400  0.64377050  0.16171350  1
  C  194  1  0.27478300  0.61509800  0.16895150  1
  C  195  1  0.23515300  0.58773250  0.18402850  1
  C  196  1  0.07601800  0.58866800  0.19232600  1
  C  197  1  0.95545700  0.61700300  0.18485050  1
  C  198  1  0.99462500  0.64439900  0.16974900  1
  C  199  1  0.08011900  0.65115850  0.06404800  1
  C  200  1  0.14574100  0.61017800  0.05977000  1
  C  201  1  0.92655500  0.66303100  0.05589450  1
  C  202  1  0.83951000  0.63438050  0.04409600  1
  C  203  1  0.90349700  0.59306400  0.04026450  1
  C  204  1  0.05715100  0.58129250  0.04828050  1
  C  235  1  0.27830800  0.27007600  0.44272550  1
  C  236  1  0.37405000  0.23322300  0.44273350  1
  C  237  1  0.40680410  0.22181950  0.42412500  1
  C  239  1  0.25054600  0.28231900  0.42411250  1
  C  240  1  0.15943300  0.31933000  0.41837750  1
  C  241  1  0.14031700  0.33247600  0.39934750  1
  C  243  1  0.16045300  0.33503600  0.36793650  1
  C  244  1  0.07027900  0.37086900  0.37376700  1
  C  245  1  0.05529700  0.36886850  0.39304850  1
  C  246  1  0.19822900  0.32420350  0.34905850  1
  C  247  1  0.27829900  0.28572250  0.34328950  1
  C  249  1  0.40716410  0.22146950  0.34322550  1
  C  250  1  0.37408900  0.23300800  0.32462750  1
  C  251  1  0.29795800  0.27265700  0.32464850  1
  C  252  1  0.48843110  0.18304200  0.34890800  1
  C  253  1  0.52150910  0.17187750  0.36787200  1
  C  255  1  0.52830110  0.17309500  0.39937000  1
  C  256  1  0.61763510  0.13724400  0.39323700  1
  C  257  1  0.61150910  0.13617000  0.37387550  1
  C  258  1  0.50039510  0.18526050  0.41838000  1
  C  259  1  0.56968310  0.15797450  0.43252150  1
  C  260  1  0.49766510  0.11738400  0.43625850  1
  C  261  1  0.57994910  0.08735500  0.44773400  1
  C  262  1  0.73366910  0.09757850  0.45614950  1
  C  263  1  0.80411210  0.13848100  0.45283850  1
  C  264  1  0.72318410  0.16832000  0.44109100  1
  C  265  1  0.53054510  0.15259850  0.33467850  1
  C  266  1  0.42255710  0.11774550  0.33104950  1
  C  267  1  0.45250910  0.08982300  0.31590150  1
  C  268  1  0.59137910  0.09594100  0.30401950  1
  C  269  1  0.69877310  0.13088200  0.30760650  1
  C  270  1  0.66985910  0.15868800  0.32287550  1
  C  271  1  0.15183100  0.35385300  0.33475350  1
  C  272  1  0.26935300  0.38369300  0.32787400  1
  C  273  1  0.22906300  0.41094550  0.31279150  1
  C  274  1  0.07151500  0.40878600  0.30414400  1
  C  275  1  0.95316500  0.37926550  0.31126300  1
  C  276  1  0.99298700  0.35199750  0.32637150  1
  C  277  1  0.08340700  0.34570700  0.43245950  1
  C  278  1  0.14837500  0.38687100  0.43665300  1
  C  279  1  0.93021200  0.33361650  0.44067200  1
  C  280  1  0.84309500  0.36215800  0.45247500  1
  C  281  1  0.90626600  0.40368050  0.45617900  1
  C  282  1  0.05960500  0.41568000  0.44811800  1
  C  313  1  0.17030300  0.46784100  0.76261700  1
  C  314  1  0.08527400  0.50728800  0.76437850  1
  C  315  1  0.08494700  0.53822800  0.74982650  1
  C  316  1  0.17245100  0.52926350  0.73287100  1
  C  317  1  0.25882700  0.48963100  0.73075050  1
  C  319  1  0.25599500  0.45972350  0.74569600  1
  C  321  1  0.99387600  0.57938100  0.75276200  1
  C  325  1  0.35449400  0.47705200  0.71367950  1
  C  329  1  0.17468000  0.43766750  0.77703800  1
  C  331  1  0.17915000  0.55998950  0.71886750  1
  C  333  1  0.50991020  0.98433450  0.72758000  1
  C  334  1  0.59172320  0.02379600  0.73082250  1
  C  335  1  0.59693120  0.04324100  0.74876300  1
  C  336  1  0.51391520  0.02287800  0.76410200  1
  C  337  1  0.42518720  0.98377300  0.76097900  1
  C  339  1  0.42508820  0.96525800  0.74281150  1
  C  341  1  0.69419420  0.08381600  0.75099400  1
  C  345  1  0.33171900  0.96012300  0.77583800  1
  C  349  1  0.52156520  0.96506450  0.70993900  1
  C  351  1  0.54056120  0.03759700  0.78229000  1
  C  353  1  0.94009700  0.52935600  0.23361950  1
  C  354  1  0.02524900  0.48995800  0.23172050  1
  C  355  1  0.02574100  0.45876150  0.24616650  1
  C  356  1  0.93821300  0.46739800  0.26315150  1
  C  357  1  0.85184600  0.50698750  0.26541900  1
  C  359  1  0.85455200  0.53716450  0.25057750  1
  C  361  1  0.11709100  0.41769800  0.24309500  1
  C  365  1  0.75629900  0.51925150  0.28254300  1
  C  369  1  0.93553700  0.55979400  0.21930450  1
  C  371  1  0.93156800  0.43640250  0.27703800  1
  C  373  1  0.60861710  0.01257800  0.26839400  1
  C  374  1  0.52654310  0.97314000  0.26517650  1
  C  375  1  0.52131710  0.95362450  0.24725050  1
  C  376  1  0.60455510  0.97389350  0.23190400  1
  C  377  1  0.69339410  0.01299300  0.23499600  1
  C  379  1  0.69354110  0.03157300  0.25314950  1
  C  381  1  0.42382910  0.91308050  0.24504100  1
  C  385  1  0.78690710  0.03657300  0.22012050  1
  C  389  1  0.59713310  0.03191200  0.28602350  1
  C  391  1  0.57819110  0.95905450  0.21373250  1
  C  393  1  0.50251100  0.45937500  0.98796050  1
  C  394  1  0.65672000  0.45321600  0.99703400  1
  C  395  1  0.74281100  0.48694400  0.00619300  1
  C  396  1  0.67124600  0.52893600  0.00664850  1
  C  397  1  0.51404900  0.53573300  0.99776800  1
  C  399  1  0.43363400  0.50103500  0.98858100  1
  C  401  1  0.90777200  0.47703450  0.01474150  1
  C  405  1  0.42447800  0.57767900  0.99746100  1
  C  409  1  0.42609800  0.42481750  0.97875300  1
  C  411  1  0.75920600  0.56366400  0.01421750  1
  C  413  1  0.50154500  0.53728500  0.50797950  1
  C  414  1  0.65619500  0.54357000  0.49900850  1
  C  415  1  0.74308700  0.50986200  0.48999000  1
  C  416  1  0.67188500  0.46775550  0.48956500  1
  C  417  1  0.51425600  0.46083700  0.49834200  1
  C  419  1  0.43306100  0.49551750  0.50739700  1
  C  421  1  0.90846800  0.51992200  0.48155700  1
  C  425  1  0.42495200  0.41876900  0.49866750  1
  C  429  1  0.42426800  0.57184600  0.51703950  1
  C  431  1  0.76046900  0.43308000  0.48211200  1
  C  433  1  0.10519800  0.95790950  0.50744750  1
  C  434  1  0.95170010  0.95331350  0.49805150  1
  C  435  1  0.87013010  0.98828000  0.48932900  1
  C  436  1  0.94592210  0.02983450  0.48971750  1
  C  437  1  0.10221000  0.03510950  0.49897500  1
  C  439  1  0.17812800  0.99919750  0.50767400  1
  C  441  1  0.70555610  0.98010250  0.48031950  1
  C  445  1  0.19512600  0.07656400  0.50017400  1
  C  449  1  0.17721900  0.92224450  0.51617450  1
  C  451  1  0.86303210  0.06546050  0.48241050  1
  C  453  1  0.10730100  0.03850400  0.98864700  1
  C  454  1  0.95217110  0.04305350  0.99766950  1
  C  455  1  0.86913710  0.00807100  0.00624700  1
  C  456  1  0.94513310  0.96660850  0.00609650  1
  C  457  1  0.10292700  0.96137800  0.99719700  1
  C  459  1  0.18030900  0.99729550  0.98862750  1
  C  461  1  0.70299710  0.01613550  0.01486550  1
  C  465  1  0.19601700  0.92000100  0.99626550  1
  C  469  1  0.18098700  0.07415500  0.98007650  1
  C  471  1  0.86151110  0.93103950  0.01337550  1
  H  49  1  0.00822200  0.44015400  0.95434800  1
  H  50  1  0.85511420  0.39379400  0.93365950  1
  H  51  1  0.40507400  0.35188550  0.95450150  1
  H  52  1  0.25274300  0.30573450  0.93389950  1
  H  53  1  0.88914320  0.28397650  0.95442400  1
  H  54  1  0.71778320  0.21543700  0.95461300  1
  H  55  1  0.78290120  0.25220450  0.90011000  1
  H  56  1  0.75530120  0.25507950  0.86733800  1
  H  57  1  0.10555400  0.39352900  0.90090900  1
  H  58  1  0.07700600  0.39665250  0.86543500  1
  H  59  1  0.71483420  0.38168850  0.83223950  1
  H  60  1  0.78201320  0.42838200  0.80652950  1
  H  61  1  0.20574800  0.33408100  0.83210500  1
  H  62  1  0.27327500  0.38092450  0.80652300  1
  H  63  1  0.85791320  0.28681900  0.81291350  1
  H  64  1  0.71888720  0.21395950  0.81297800  1
  H  65  1  0.44420120  0.11327650  0.90173950  1
  H  66  1  0.45048020  0.11180850  0.86607900  1
  H  67  1  0.79639820  0.11215500  0.83844400  1
  H  68  1  0.74286620  0.06630400  0.81225100  1
  H  69  1  0.36519900  0.18346150  0.82583150  1
  H  70  1  0.31116000  0.13723250  0.79951350  1
  H  71  1  0.33630900  0.19726950  0.93655700  1
  H  72  1  0.19277700  0.14954850  0.95729650  1
  H  73  1  0.58466120  0.06030100  0.95289100  1
  H  74  1  0.72879320  0.10820000  0.93205300  1
  H  127  1  0.00773000  0.55566350  0.54170050  1
  H  128  1  0.85416320  0.60182250  0.56235150  1
  H  129  1  0.40054100  0.64546750  0.54084800  1
  H  130  1  0.24773600  0.69142250  0.56141100  1
  H  131  1  0.88069820  0.71172500  0.54133500  1
  H  132  1  0.70911920  0.78007750  0.54130650  1
  H  133  1  0.78244520  0.74399650  0.59576000  1
  H  134  1  0.75924920  0.74124800  0.62854000  1
  H  135  1  0.10911200  0.60356500  0.59470550  1
  H  136  1  0.08332400  0.60035550  0.63020650  1
  H  137  1  0.72230120  0.61181300  0.66271600  1
  H  138  1  0.79079420  0.56538450  0.68845700  1
  H  139  1  0.20559200  0.66465650  0.66439700  1
  H  140  1  0.27440600  0.61813350  0.69003000  1
  H  141  1  0.85752620  0.70839550  0.68293950  1
  H  142  1  0.71941220  0.78120100  0.68302500  1
  H  143  1  0.44587520  0.88297550  0.59447600  1
  H  144  1  0.45537920  0.88442200  0.63012400  1
  H  145  1  0.80159120  0.88403400  0.65688000  1
  H  146  1  0.75072320  0.93127750  0.68275950  1
  H  147  1  0.37265700  0.81274900  0.67091800  1
  H  148  1  0.32248500  0.86015300  0.69697400  1
  H  149  1  0.33067500  0.79912800  0.55978100  1
  H  150  1  0.18767100  0.84695900  0.53908200  1
  H  151  1  0.58377320  0.93544300  0.54298600  1
  H  152  1  0.72735620  0.88743500  0.56377700  1
  H  205  1  0.10410700  0.55117100  0.04611300  1
  H  206  1  0.25427200  0.60019900  0.06584900  1
  H  207  1  0.72557900  0.64306100  0.03899950  1
  H  208  1  0.87349100  0.69193050  0.05915900  1
  H  209  1  0.23164900  0.71171900  0.04177600  1
  H  210  1  0.40577510  0.77976850  0.04155250  1
  H  211  1  0.33072700  0.74477650  0.09611000  1
  H  212  1  0.35716300  0.74206000  0.12892750  1
  H  213  1  0.99385567  0.60566200  0.09566000  1
  H  214  1  0.02208700  0.60272300  0.13108900  1
  H  215  1  0.39234400  0.61441900  0.16349450  1
  H  216  1  0.32490100  0.56767500  0.18916550  1
  H  217  1  0.90656000  0.66519150  0.16485900  1
  H  218  1  0.83863400  0.61831700  0.19040250  1
  H  219  1  0.25945900  0.71011700  0.18344750  1
  H  220  1  0.40356710  0.78231500  0.18331950  1
  H  221  1  0.67909910  0.88212950  0.09445150  1
  H  222  1  0.67210910  0.88386450  0.13007800  1
  H  223  1  0.32333500  0.88389550  0.15770100  1
  H  224  1  0.37621900  0.92992600  0.18384050  1
  H  225  1  0.75577910  0.81311900  0.17035100  1
  H  226  1  0.80916710  0.85955200  0.19662000  1
  H  227  1  0.77718710  0.80005850  0.05774500  1
  H  228  1  0.91486910  0.85081050  0.03752250  1
  H  229  1  0.52758710  0.93948800  0.04635900  1
  H  230  1  0.38799100  0.88866650  0.06621900  1
  H  283  1  0.10595200  0.44594450  0.45018950  1
  H  284  1  0.25642900  0.39705050  0.43050400  1
  H  285  1  0.72932900  0.35330250  0.45758800  1
  H  286  1  0.87758000  0.30457300  0.43747850  1
  H  287  1  0.23821000  0.28544500  0.45455750  1
  H  288  1  0.41201510  0.21749050  0.45457400  1
  H  289  1  0.33128500  0.25238550  0.40011350  1
  H  290  1  0.35475700  0.25529200  0.36726800  1
  H  291  1  0.99286400  0.39093450  0.40095400  1
  H  292  1  0.01864600  0.39413200  0.36550350  1
  H  293  1  0.38598100  0.38524900  0.33357250  1
  H  294  1  0.31731700  0.43187800  0.30791050  1
  H  295  1  0.90659600  0.33025200  0.33097950  1
  H  296  1  0.83756000  0.37697900  0.30542350  1
  H  297  1  0.25808200  0.28817000  0.31283450  1
  H  298  1  0.40096010  0.21597250  0.31275550  1
  H  299  1  0.67745510  0.11497600  0.40130600  1
  H  300  1  0.66754310  0.11346650  0.36569100  1
  H  301  1  0.31811200  0.11330300  0.33902450  1
  H  302  1  0.36854200  0.06592350  0.31317900  1
  H  303  1  0.74760710  0.18430950  0.32492100  1
  H  304  1  0.79739510  0.13675000  0.29890500  1
  H  305  1  0.78088010  0.19684900  0.43812450  1
  H  306  1  0.91843610  0.14591750  0.45822000  1
  H  307  1  0.52895510  0.05748650  0.44949950  1
  H  308  1  0.38943700  0.10848300  0.42977300  1
  H  318  1  0.02414000  0.51390500  0.77664700  1
  H  320  1  0.31843400  0.43124100  0.74418000  1
  H  322  1  0.93416120  0.58127050  0.76650000  1
  H  323  1  0.89729420  0.58281450  0.74211000  1
  H  324  1  0.08001500  0.60637500  0.75162050  1
  H  326  1  0.35193500  0.50106550  0.70255200  1
  H  327  1  0.30347900  0.44732000  0.70792250  1
  H  328  1  0.48431300  0.47166200  0.71743850  1
  H  330  1  0.26753300  0.41666850  0.77734200  1
  H  332  1  0.27191000  0.58105100  0.71904250  1
  H  338  1  0.65490920  0.03795900  0.71996000  1
  H  340  1  0.36375900  0.93677950  0.74071950  1
  H  342  1  0.75440720  0.09418850  0.73802000  1
  H  343  1  0.79118720  0.07944300  0.76152450  1
  H  344  1  0.61185020  0.10967600  0.75546450  1
  H  346  1  0.32924100  0.97673200  0.78930450  1
  H  347  1  0.38777700  0.92862400  0.77803500  1
  H  348  1  0.20293500  0.95564900  0.77141250  1
  H  350  1  0.55423520  0.98323400  0.69902550  1
  H  352  1  0.60646520  0.01902000  0.79084800  1
  H  358  1  0.08638000  0.48356900  0.21942850  1
  H  360  1  0.79208300  0.56561150  0.25219850  1
  H  362  1  0.17691700  0.41608500  0.22935650  1
  H  363  1  0.21360700  0.41411050  0.25374400  1
  H  364  1  0.03110500  0.39064950  0.24413450  1
  H  366  1  0.75889700  0.49502950  0.29358250  1
  H  367  1  0.80738600  0.54887150  0.28840150  1
  H  368  1  0.62646500  0.52472200  0.27881400  1
  H  370  1  0.84313100  0.58092150  0.21913550  1
  H  372  1  0.83940200  0.41517700  0.27672400  1
  H  378  1  0.46326110  0.95903950  0.27604600  1
  H  380  1  0.75500510  0.06004000  0.25522200  1
  H  382  1  0.36346300  0.90278350  0.25801700  1
  H  383  1  0.32693200  0.91745250  0.23449900  1
  H  384  1  0.50604110  0.88717050  0.24059600  1
  H  386  1  0.78927110  0.01992950  0.20666250  1
  H  387  1  0.73096310  0.06808250  0.21790850  1
  H  388  1  0.91572110  0.04102750  0.22453850  1
  H  390  1  0.56373710  0.01383050  0.29693650  1
  H  392  1  0.51216710  0.97753200  0.20514550  1
  H  398  1  0.70938200  0.42327500  0.99671000  1
  H  400  1  0.32137700  0.50631400  0.98220100  1
  H  402  1  0.94888100  0.44420950  0.01203050  1
  H  403  1  0.90130100  0.48103400  0.02994550  1
  H  404  1  0.00228700  0.49861850  0.00909400  1
  H  406  1  0.48517700  0.60283200  0.00559500  1
  H  407  1  0.29991500  0.57357700  0.00325750  1
  H  408  1  0.41349800  0.58895500  0.98299200  1
  H  410  1  0.47133800  0.39552950  0.98093400  1
  H  412  1  0.78056300  0.58904450  0.00606150  1
  H  418  1  0.70862900  0.57358500  0.49931600  1
  H  420  1  0.32048900  0.49014800  0.51370000  1
  H  422  1  0.94919000  0.55283200  0.48424100  1
  H  423  1  0.90290300  0.51577100  0.46635550  1
  H  424  1  0.00279400  0.49852700  0.48731900  1
  H  426  1  0.48623000  0.39361550  0.49062550  1
  H  427  1  0.30066200  0.42263600  0.49277350  1
  H  428  1  0.41331500  0.40762600  0.51315050  1
  H  430  1  0.46892600  0.60119300  0.51475300  1
  H  432  1  0.78113300  0.40773700  0.49030150  1
  H  438  1  0.89628710  0.92365250  0.49779200  1
  H  440  1  0.28999200  0.00329850  0.51431550  1
  H  442  1  0.66081710  0.94731450  0.48241000  1
  H  443  1  0.71470010  0.98540450  0.46520700  1
  H  444  1  0.61240010  0.00173400  0.48614550  1
  H  446  1  0.13695000  0.10281150  0.49250150  1
  H  447  1  0.31974300  0.07249050  0.49440600  1
  H  448  1  0.20597700  0.08628050  0.51485700  1
  H  450  1  0.13258200  0.89326000  0.51312600  1
  H  452  1  0.83807510  0.08992950  0.49094300  1
  H  458  1  0.89671910  0.07266500  0.99774900  1
  H  460  1  0.29337900  0.99327700  0.98226100  1
  H  462  1  0.65845910  0.04883950  0.01259850  1
  H  463  1  0.70954910  0.01101550  0.03000600  1
  H  464  1  0.61098110  0.99431250  0.00887650  1
  H  466  1  0.13636500  0.89373300  0.00381150  1
  H  467  1  0.31950900  0.92421300  0.00233850  1
  H  468  1  0.20962500  0.91022850  0.98162150  1
  H  470  1  0.13839900  0.10320250  0.98330700  1
  H  472  1  0.83732510  0.90640450  0.00489250  1
  N  4  1  0.78888620  0.25152650  0.91357850  1
  N  8  1  0.91282520  0.31314250  0.88365200  1
  N  14  1  0.76733420  0.25327050  0.85393050  1
  N  20  1  0.64596320  0.19131900  0.88378400  1
  N  75  1  0.49271120  0.07498950  0.78773300  1
  N  76  1  0.05873900  0.43491700  0.78940550  1
  N  77  1  0.30298400  0.42877000  0.96730050  1
  N  78  1  0.29751300  0.07119500  0.96775700  1
  N  82  1  0.78579320  0.74444050  0.58227750  1
  N  86  1  0.91190720  0.68286000  0.61209600  1
  N  92  1  0.76841120  0.74252000  0.64198500  1
  N  98  1  0.64550120  0.80449650  0.61221800  1
  N  153  1  0.50573120  0.92429550  0.70742100  1
  N  154  1  0.06437600  0.56154850  0.70635500  1
  N  155  1  0.30118100  0.56783950  0.52849300  1
  N  156  1  0.29519700  0.92502950  0.52834350  1
  N  160  1  0.32760700  0.74494550  0.08262450  1
  N  164  1  0.19888600  0.68425400  0.11265700  1
  N  170  1  0.34877800  0.74352200  0.14237600  1
  N  176  1  0.47493710  0.80455600  0.11242600  1
  N  231  1  0.62661110  0.92167250  0.20834000  1
  N  232  1  0.05067100  0.56254400  0.20684100  1
  N  233  1  0.81647000  0.56334400  0.03108350  1
  N  234  1  0.81297710  0.92990450  0.03055950  1
  N  238  1  0.33000100  0.25227700  0.41360200  1
  N  242  1  0.19954300  0.31311100  0.38372600  1
  N  248  1  0.34702600  0.25414300  0.35381050  1
  N  254  1  0.47464310  0.19294150  0.38361400  1
  N  309  1  0.61362710  0.07267250  0.28851450  1
  N  310  1  0.04564000  0.43485100  0.28963100  1
  N  311  1  0.81884000  0.43334950  0.46529600  1
  N  312  1  0.81530810  0.06684050  0.46519450  1
