# generated using pymatgen
data_CuH11C11NO4
_symmetry_space_group_name_H-M   'P 1'
_cell_length_a   8.53322466
_cell_length_b   13.31527079
_cell_length_c   13.81752127
_cell_angle_alpha   61.35258268
_cell_angle_beta   89.48288761
_cell_angle_gamma   89.94516531
_symmetry_Int_Tables_number   1
_chemical_formula_structural   CuH11C11NO4
_chemical_formula_sum   'Cu4 H44 C44 N4 O16'
_cell_volume   1377.72448113
_cell_formula_units_Z   4
loop_
 _symmetry_equiv_pos_site_id
 _symmetry_equiv_pos_as_xyz
  1  'x, y, z'
loop_
 _atom_site_type_symbol
 _atom_site_label
 _atom_site_symmetry_multiplicity
 _atom_site_fract_x
 _atom_site_fract_y
 _atom_site_fract_z
 _atom_site_occupancy
  Cu  Cu1  1  0.05144672  0.00018905  0.41204272  1.0
  Cu  Cu2  1  0.94820574  0.99987454  0.58845547  1.0
  Cu  Cu3  1  0.44834752  0.41186268  0.58870327  1.0
  Cu  Cu4  1  0.55144284  0.58779735  0.41159236  1.0
  H  H1  1  0.10542970  0.57819336  0.64710123  1.0
  H  H2  1  0.73503510  0.25839860  0.40365550  1.0
  H  H3  1  0.48351587  0.86873660  0.06371034  1.0
  H  H4  1  0.60593171  0.77364827  0.64705521  1.0
  H  H5  1  0.40778675  0.84209247  0.73824185  1.0
  H  H6  1  0.36018540  0.65272910  0.72270195  1.0
  H  H7  1  0.68744975  0.21032794  0.77961993  1.0
  H  H8  1  0.99248873  0.58402381  0.37364240  1.0
  H  H9  1  0.01704157  0.93250790  0.93584432  1.0
  H  H10  1  0.98808990  0.37291301  0.48115422  1.0
  H  H11  1  0.40239983  0.15495842  0.06155146  1.0
  H  H12  1  0.01189763  0.62709456  0.51884178  1.0
  H  H13  1  0.90373976  0.78412779  0.06055958  1.0
  H  H14  1  0.72429644  0.63724129  0.19905433  1.0
  H  H15  1  0.31253522  0.78966713  0.22038215  1.0
  H  H16  1  0.22285024  0.16311709  0.20075554  1.0
  H  H17  1  0.09625384  0.21586802  0.93944154  1.0
  H  H18  1  0.51214946  0.85301518  0.51902215  1.0
  H  H19  1  0.89455413  0.42179667  0.35289880  1.0
  H  H20  1  0.59760005  0.84504688  0.93844452  1.0
  H  H21  1  0.76499923  0.66236709  0.59634717  1.0
  H  H22  1  0.98294979  0.06749279  0.06415410  1.0
  H  H23  1  0.00751196  0.41597193  0.62637320  1.0
  H  H24  1  0.13754057  0.81536146  0.35164891  1.0
  H  H25  1  0.27570155  0.36274191  0.80095560  1.0
  H  H26  1  0.39406546  0.22634781  0.35295557  1.0
  H  H27  1  0.18778413  0.00991010  0.77924163  1.0
  H  H28  1  0.86246463  0.18463475  0.64835997  1.0
  H  H29  1  0.86034094  0.62506894  0.72264311  1.0
  H  H30  1  0.09283111  0.58033392  0.26238802  1.0
  H  H31  1  0.50949857  0.95610617  0.62791808  1.0
  H  H32  1  0.48784766  0.14695758  0.48098027  1.0
  H  H33  1  0.36250341  0.16625684  0.64860976  1.0
  H  H34  1  0.13966707  0.37492932  0.27733623  1.0
  H  H35  1  0.59222167  0.15793504  0.26171568  1.0
  H  H36  1  0.49051164  0.04387737  0.37208760  1.0
  H  H37  1  0.77715250  0.83688850  0.79925041  1.0
  H  H38  1  0.51647782  0.13126305  0.93628792  1.0
  H  H39  1  0.90721200  0.41965966  0.73761333  1.0
  H  H40  1  0.81219559  0.99008721  0.22075997  1.0
  H  H41  1  0.63977885  0.34728868  0.27731498  1.0
  H  H42  1  0.63749683  0.83373461  0.35140404  1.0
  H  H43  1  0.23498599  0.33763224  0.40366073  1.0
  H  H44  1  0.26495196  0.74158590  0.59635389  1.0
  C  C1  1  0.37941747  0.70629048  0.63362701  1.0
  C  C2  1  0.24484315  0.08280763  0.19984144  1.0
  C  C3  1  0.03348256  0.00294344  0.95424859  1.0
  C  C4  1  0.15423248  0.19957608  0.87780035  1.0
  C  C5  1  0.34479143  0.07716424  0.12296953  1.0
  C  C6  1  0.70525620  0.12487177  0.78946201  1.0
  C  C7  1  0.42747907  0.62932648  0.58569038  1.0
  C  C8  1  0.07173217  0.21520999  0.41414688  1.0
  C  C9  1  0.29472794  0.87512854  0.21052504  1.0
  C  C10  1  0.62058914  0.29372494  0.36637064  1.0
  C  C11  1  0.76887669  0.46914274  0.59401469  1.0
  C  C12  1  0.72994119  0.06280718  0.40575465  1.0
  C  C13  1  0.92833526  0.78479452  0.58574811  1.0
  C  C14  1  0.53346224  0.04266407  0.95431252  1.0
  C  C15  1  0.12036999  0.33976553  0.36642950  1.0
  C  C16  1  0.20524334  0.08535414  0.78950164  1.0
  C  C17  1  0.23118602  0.53097227  0.40588517  1.0
  C  C18  1  0.57259079  0.37077831  0.41420291  1.0
  C  C19  1  0.75515840  0.91719824  0.80015633  1.0
  C  C20  1  0.92461961  0.46584415  0.64777182  1.0
  C  C21  1  0.69739785  0.82751014  0.28442559  1.0
  C  C22  1  0.80274169  0.11175191  0.71527117  1.0
  C  C23  1  0.87014959  0.90344345  0.12536642  1.0
  C  C24  1  0.46654568  0.95733503  0.04569308  1.0
  C  C25  1  0.27011962  0.93717523  0.59413975  1.0
  C  C26  1  0.96652140  0.99704992  0.04575836  1.0
  C  C27  1  0.12984020  0.09655382  0.87463250  1.0
  C  C28  1  0.84575708  0.80042299  0.12219560  1.0
  C  C29  1  0.07540090  0.53418669  0.35220807  1.0
  C  C30  1  0.19725578  0.88824662  0.28472725  1.0
  C  C31  1  0.50831367  0.19470325  0.39162869  1.0
  C  C32  1  0.57450919  0.11413200  0.35157111  1.0
  C  C33  1  0.36980083  0.97127867  0.12556602  1.0
  C  C34  1  0.87965785  0.66022328  0.63353162  1.0
  C  C35  1  0.74584102  0.71814774  0.19881646  1.0
  C  C36  1  0.00872874  0.41409903  0.39181892  1.0
  C  C37  1  0.49170364  0.80528008  0.60836565  1.0
  C  C38  1  0.30259685  0.17248967  0.71557945  1.0
  C  C39  1  0.42552803  0.88585554  0.64836805  1.0
  C  C40  1  0.99127835  0.58590030  0.60816912  1.0
  C  C41  1  0.63019153  0.02872437  0.87443065  1.0
  C  C42  1  0.25415719  0.28184222  0.80118491  1.0
  C  C43  1  0.65520399  0.92284241  0.87701909  1.0
  C  C44  1  0.79473518  0.91465085  0.21048988  1.0
  N  N1  1  0.17017352  0.99036622  0.27914698  1.0
  N  N2  1  0.32925944  0.26887093  0.72159787  1.0
  N  N3  1  0.82986452  0.00963130  0.72085738  1.0
  N  N4  1  0.67077661  0.73112382  0.27841047  1.0
  O  O1  1  0.90089992  0.83182040  0.64562661  1.0
  O  O2  1  0.83470224  0.04788783  0.34764068  1.0
  O  O3  1  0.24543174  0.45343595  0.50556268  1.0
  O  O4  1  0.59957579  0.47746988  0.35430481  1.0
  O  O5  1  0.09906777  0.16791842  0.35444679  1.0
  O  O6  1  0.40042415  0.52267960  0.64573033  1.0
  O  O7  1  0.01173133  0.16692180  0.51068470  1.0
  O  O8  1  0.48680345  0.67709029  0.48890599  1.0
  O  O9  1  0.98835096  0.83332524  0.48917528  1.0
  O  O10  1  0.25569727  0.95912509  0.49436716  1.0
  O  O11  1  0.66476769  0.39624293  0.65257904  1.0
  O  O12  1  0.75432937  0.54665701  0.49432540  1.0
  O  O13  1  0.74391982  0.04088631  0.50549615  1.0
  O  O14  1  0.16574643  0.95203967  0.65244868  1.0
  O  O15  1  0.51327188  0.32285794  0.51098331  1.0
  O  O16  1  0.33553027  0.60377879  0.34746032  1.0
