# generated using pymatgen
data_NiH12C18(NO)4
_symmetry_space_group_name_H-M   'P 1'
_cell_length_a   14.34448000
_cell_length_b   14.35310000
_cell_length_c   15.97357000
_cell_angle_alpha   90.66502000
_cell_angle_beta   90.67377000
_cell_angle_gamma   91.57437000
_symmetry_Int_Tables_number   1
_chemical_formula_structural   NiH12C18(NO)4
_chemical_formula_sum   'Ni6 H72 C108 N24 O24'
_cell_volume   3287.05954970
_cell_formula_units_Z   6
loop_
 _symmetry_equiv_pos_site_id
 _symmetry_equiv_pos_as_xyz
  1  'x, y, z'
loop_
 _atom_site_type_symbol
 _atom_site_label
 _atom_site_symmetry_multiplicity
 _atom_site_fract_x
 _atom_site_fract_y
 _atom_site_fract_z
 _atom_site_occupancy
  Ni  Ni1  1  0.82283000  0.51883000  0.61936000  1.0
  Ni  Ni2  1  0.48145000  0.17703000  0.88061000  1.0
  Ni  Ni3  1  0.17717000  0.48117000  0.38064000  1.0
  Ni  Ni4  1  0.51855000  0.82297000  0.11938000  1.0
  Ni  Ni5  1  0.87944000  0.12015000  0.75071000  1.0
  Ni  Ni6  1  0.12057000  0.87985000  0.24929000  1.0
  H  H1  1  0.96349000  0.63870000  0.71540000  1.0
  H  H2  1  0.00991000  0.27062000  0.86061000  1.0
  H  H3  1  0.72984000  0.93654000  0.93557000  1.0
  H  H4  1  0.71861000  0.25201000  0.82387000  1.0
  H  H5  1  0.83858000  0.78391000  0.72731000  1.0
  H  H6  1  0.67064000  0.64181000  0.91070000  1.0
  H  H7  1  0.38784000  0.68353000  0.01156000  1.0
  H  H8  1  0.39829000  0.97833000  0.01940000  1.0
  H  H9  1  0.27201000  0.91983000  0.89672000  1.0
  H  H10  1  0.97310000  0.34773000  0.68087000  1.0
  H  H11  1  0.05675000  0.33772000  0.00093000  1.0
  H  H12  1  0.13132000  0.40645000  0.76979000  1.0
  H  H13  1  0.85865000  0.53818000  0.91610000  1.0
  H  H14  1  0.76114000  0.40890000  0.92167000  1.0
  H  H15  1  0.02463000  0.70274000  0.83052000  1.0
  H  H16  1  0.35853000  0.62382000  0.86252000  1.0
  H  H17  1  0.25025000  0.51641000  0.78360000  1.0
  H  H18  1  0.13341000  0.80954000  0.90855000  1.0
  H  H19  1  0.36115000  0.03665000  0.78437000  1.0
  H  H20  1  0.72905000  0.98967000  0.64034000  1.0
  H  H21  1  0.06269000  0.27013000  0.56521000  1.0
  H  H22  1  0.74801000  0.28083000  0.67671000  1.0
  H  H23  1  0.21608000  0.16150000  0.77311000  1.0
  H  H24  1  0.35781000  0.32892000  0.58917000  1.0
  H  H25  1  0.31678000  0.61220000  0.48841000  1.0
  H  H26  1  0.02182000  0.60138000  0.48046000  1.0
  H  H27  1  0.08015000  0.72775000  0.60309000  1.0
  H  H28  1  0.65218000  0.02670000  0.81954000  1.0
  H  H29  1  0.66224000  0.94286000  0.49931000  1.0
  H  H30  1  0.59346000  0.86862000  0.73052000  1.0
  H  H31  1  0.46200000  0.14129000  0.58392000  1.0
  H  H32  1  0.59162000  0.23846000  0.57809000  1.0
  H  H33  1  0.29705000  0.97527000  0.66933000  1.0
  H  H34  1  0.37634000  0.64163000  0.63753000  1.0
  H  H35  1  0.48365000  0.74995000  0.71649000  1.0
  H  H36  1  0.19036000  0.86643000  0.59126000  1.0
  H  H37  1  0.03652000  0.36130000  0.28460000  1.0
  H  H38  1  0.99010000  0.72938000  0.13939000  1.0
  H  H39  1  0.27016000  0.06346000  0.06443000  1.0
  H  H40  1  0.28139000  0.74799000  0.17613000  1.0
  H  H41  1  0.16142000  0.21609000  0.27268000  1.0
  H  H42  1  0.32936000  0.35818000  0.08930000  1.0
  H  H43  1  0.61216000  0.31647000  0.98844000  1.0
  H  H44  1  0.60171000  0.02167000  0.98060000  1.0
  H  H45  1  0.72800000  0.08017000  0.10328000  1.0
  H  H46  1  0.02690000  0.65227000  0.31912000  1.0
  H  H47  1  0.94325000  0.66228000  0.99907000  1.0
  H  H48  1  0.86868000  0.59355000  0.23020000  1.0
  H  H49  1  0.14135000  0.46182000  0.08390000  1.0
  H  H50  1  0.23887000  0.59110000  0.07832000  1.0
  H  H51  1  0.97538000  0.29726000  0.16947000  1.0
  H  H52  1  0.64147000  0.37618000  0.13748000  1.0
  H  H53  1  0.74975000  0.48359000  0.21640000  1.0
  H  H54  1  0.86659000  0.19046000  0.09145000  1.0
  H  H55  1  0.63885000  0.96335000  0.21563000  1.0
  H  H56  1  0.27095000  0.01033000  0.35966000  1.0
  H  H57  1  0.93731000  0.72987000  0.43478000  1.0
  H  H58  1  0.25199000  0.71917000  0.32329000  1.0
  H  H59  1  0.78393000  0.83850000  0.22689000  1.0
  H  H60  1  0.64219000  0.67107000  0.41082000  1.0
  H  H61  1  0.68323000  0.38780000  0.51158000  1.0
  H  H62  1  0.97819000  0.39862000  0.51953000  1.0
  H  H63  1  0.91985000  0.27225000  0.39691000  1.0
  H  H64  1  0.34782000  0.97330000  0.18046000  1.0
  H  H65  1  0.33777000  0.05714000  0.50069000  1.0
  H  H66  1  0.40655000  0.13138000  0.26948000  1.0
  H  H67  1  0.53801000  0.85871000  0.41608000  1.0
  H  H68  1  0.40838000  0.76154000  0.42191000  1.0
  H  H69  1  0.70295000  0.02473000  0.33067000  1.0
  H  H70  1  0.62366000  0.35837000  0.36247000  1.0
  H  H71  1  0.51635000  0.25005000  0.28350000  1.0
  H  H72  1  0.80965000  0.13357000  0.40874000  1.0
  C  C1  1  0.98673000  0.56786000  0.71902000  1.0
  C  C2  1  0.83103000  0.95882000  0.79713000  1.0
  C  C3  1  0.62629000  0.79450000  0.00057000  1.0
  C  C4  1  0.93662000  0.28578000  0.86391000  1.0
  C  C5  1  0.13054000  0.60265000  0.80158000  1.0
  C  C6  1  0.73786000  0.87091000  0.90228000  1.0
  C  C7  1  0.79131000  0.86926000  0.82961000  1.0
  C  C8  1  0.78552000  0.27953000  0.84596000  1.0
  C  C9  1  0.25240000  0.72329000  0.88996000  1.0
  C  C10  1  0.69281000  0.78968000  0.93022000  1.0
  C  C11  1  0.80039000  0.78510000  0.78571000  1.0
  C  C12  1  0.75883000  0.70256000  0.81577000  1.0
  C  C13  1  0.70520000  0.70499000  0.88817000  1.0
  C  C14  1  0.37374000  0.75559000  0.99871000  1.0
  C  C15  1  0.37597000  0.90802000  0.00162000  1.0
  C  C16  1  0.31363000  0.88060000  0.93991000  1.0
  C  C17  1  0.95201000  0.43026000  0.95387000  1.0
  C  C18  1  0.76838000  0.61231000  0.76860000  1.0
  C  C19  1  0.99506000  0.41734000  0.70121000  1.0
  C  C20  1  0.03247000  0.40889000  0.99957000  1.0
  C  C21  1  0.07363000  0.44537000  0.74558000  1.0
  C  C22  1  0.91955000  0.52154000  0.95418000  1.0
  C  C23  1  0.80491000  0.35601000  0.89581000  1.0
  C  C24  1  0.09794000  0.68599000  0.83570000  1.0
  C  C25  1  0.28530000  0.64043000  0.85574000  1.0
  C  C26  1  0.22435000  0.58003000  0.81146000  1.0
  C  C27  1  0.15885000  0.74628000  0.87964000  1.0
  C  C28  1  0.43201000  0.01335000  0.78088000  1.0
  C  C29  1  0.04083000  0.16898000  0.70378000  1.0
  C  C30  1  0.20520000  0.37347000  0.49955000  1.0
  C  C31  1  0.71399000  0.06293000  0.63691000  1.0
  C  C32  1  0.39727000  0.86951000  0.69840000  1.0
  C  C33  1  0.12853000  0.26211000  0.59825000  1.0
  C  C34  1  0.13038000  0.20868000  0.67098000  1.0
  C  C35  1  0.72046000  0.21396000  0.65463000  1.0
  C  C36  1  0.27675000  0.74759000  0.60993000  1.0
  C  C37  1  0.20978000  0.30702000  0.57002000  1.0
  C  C38  1  0.21473000  0.19962000  0.71468000  1.0
  C  C39  1  0.29727000  0.24109000  0.68440000  1.0
  C  C40  1  0.29463000  0.29452000  0.61190000  1.0
  C  C41  1  0.24464000  0.62619000  0.50124000  1.0
  C  C42  1  0.09213000  0.62376000  0.49828000  1.0
  C  C43  1  0.11946000  0.68618000  0.55993000  1.0
  C  C44  1  0.56982000  0.04776000  0.54628000  1.0
  C  C45  1  0.38770000  0.23157000  0.73145000  1.0
  C  C46  1  0.58257000  0.00482000  0.79904000  1.0
  C  C47  1  0.59109000  0.96732000  0.50056000  1.0
  C  C48  1  0.55453000  0.92631000  0.75465000  1.0
  C  C49  1  0.47856000  0.08042000  0.54583000  1.0
  C  C50  1  0.64426000  0.19466000  0.60436000  1.0
  C  C51  1  0.31388000  0.90201000  0.66419000  1.0
  C  C52  1  0.35966000  0.71481000  0.64425000  1.0
  C  C53  1  0.41999000  0.77578000  0.68857000  1.0
  C  C54  1  0.25366000  0.84107000  0.62021000  1.0
  C  C55  1  0.01328000  0.43213000  0.28097000  1.0
  C  C56  1  0.16897000  0.04118000  0.20287000  1.0
  C  C57  1  0.37371000  0.20550000  0.99943000  1.0
  C  C58  1  0.06339000  0.71422000  0.13609000  1.0
  C  C59  1  0.86946000  0.39735000  0.19841000  1.0
  C  C60  1  0.26214000  0.12909000  0.09771000  1.0
  C  C61  1  0.20869000  0.13074000  0.17039000  1.0
  C  C62  1  0.21448000  0.72046000  0.15404000  1.0
  C  C63  1  0.74760000  0.27670000  0.11004000  1.0
  C  C64  1  0.30719000  0.21032000  0.06977000  1.0
  C  C65  1  0.19962000  0.21490000  0.21429000  1.0
  C  C66  1  0.24118000  0.29744000  0.18422000  1.0
  C  C67  1  0.29480000  0.29501000  0.11182000  1.0
  C  C68  1  0.62626000  0.24440000  0.00129000  1.0
  C  C69  1  0.62403000  0.09198000  0.99838000  1.0
  C  C70  1  0.68637000  0.11939000  0.06009000  1.0
  C  C71  1  0.04799000  0.56974000  0.04613000  1.0
  C  C72  1  0.23162000  0.38769000  0.23140000  1.0
  C  C73  1  0.00494000  0.58266000  0.29879000  1.0
  C  C74  1  0.96753000  0.59111000  0.00042000  1.0
  C  C75  1  0.92637000  0.55463000  0.25442000  1.0
  C  C76  1  0.08046000  0.47846000  0.04582000  1.0
  C  C77  1  0.19510000  0.64399000  0.10419000  1.0
  C  C78  1  0.90206000  0.31401000  0.16430000  1.0
  C  C79  1  0.71471000  0.35957000  0.14426000  1.0
  C  C80  1  0.77566000  0.41997000  0.18854000  1.0
  C  C81  1  0.84115000  0.25372000  0.12036000  1.0
  C  C82  1  0.56799000  0.98665000  0.21912000  1.0
  C  C83  1  0.95918000  0.83102000  0.29622000  1.0
  C  C84  1  0.79480000  0.62653000  0.50045000  1.0
  C  C85  1  0.28601000  0.93707000  0.36309000  1.0
  C  C86  1  0.60273000  0.13049000  0.30160000  1.0
  C  C87  1  0.87148000  0.73789000  0.40174000  1.0
  C  C88  1  0.86962000  0.79132000  0.32902000  1.0
  C  C89  1  0.27954000  0.78604000  0.34536000  1.0
  C  C90  1  0.72325000  0.25240000  0.39007000  1.0
  C  C91  1  0.79022000  0.69298000  0.42998000  1.0
  C  C92  1  0.78527000  0.80038000  0.28532000  1.0
  C  C93  1  0.70274000  0.75891000  0.31560000  1.0
  C  C94  1  0.70538000  0.70548000  0.38810000  1.0
  C  C95  1  0.75536000  0.37381000  0.49876000  1.0
  C  C96  1  0.90787000  0.37624000  0.50172000  1.0
  C  C97  1  0.88054000  0.31382000  0.44007000  1.0
  C  C98  1  0.43018000  0.95224000  0.45372000  1.0
  C  C99  1  0.61230000  0.76843000  0.26855000  1.0
  C  C100  1  0.41743000  0.99518000  0.20096000  1.0
  C  C101  1  0.40891000  0.03267000  0.49944000  1.0
  C  C102  1  0.44547000  0.07368000  0.24534000  1.0
  C  C103  1  0.52144000  0.91958000  0.45417000  1.0
  C  C104  1  0.35574000  0.80533000  0.39563000  1.0
  C  C105  1  0.68612000  0.09799000  0.33581000  1.0
  C  C106  1  0.64035000  0.28519000  0.35575000  1.0
  C  C107  1  0.58001000  0.22422000  0.31143000  1.0
  C  C108  1  0.74635000  0.15893000  0.37979000  1.0
  N  N1  1  0.86799000  0.23702000  0.82550000  1.0
  N  N2  1  0.90117000  0.35960000  0.90764000  1.0
  N  N3  1  0.41203000  0.82932000  0.03829000  1.0
  N  N4  1  0.31287000  0.78349000  0.93811000  1.0
  N  N5  1  0.94185000  0.49441000  0.68513000  1.0
  N  N6  1  0.06755000  0.54154000  0.75722000  1.0
  N  N7  1  0.76265000  0.13147000  0.67550000  1.0
  N  N8  1  0.64052000  0.09843000  0.59267000  1.0
  N  N9  1  0.17093000  0.58777000  0.46168000  1.0
  N  N10  1  0.21663000  0.68708000  0.56175000  1.0
  N  N11  1  0.50550000  0.05811000  0.81490000  1.0
  N  N12  1  0.45835000  0.93251000  0.74280000  1.0
  N  N13  1  0.13201000  0.76298000  0.17450000  1.0
  N  N14  1  0.09883000  0.64040000  0.09236000  1.0
  N  N15  1  0.58797000  0.17068000  0.96171000  1.0
  N  N16  1  0.68714000  0.21651000  0.06189000  1.0
  N  N17  1  0.05815000  0.50559000  0.31487000  1.0
  N  N18  1  0.93246000  0.45846000  0.24278000  1.0
  N  N19  1  0.23736000  0.86853000  0.32450000  1.0
  N  N20  1  0.35948000  0.90156000  0.40733000  1.0
  N  N21  1  0.82907000  0.41223000  0.53832000  1.0
  N  N22  1  0.78337000  0.31292000  0.43824000  1.0
  N  N23  1  0.49450000  0.94189000  0.18509000  1.0
  N  N24  1  0.54166000  0.06748000  0.25720000  1.0
  O  O1  1  0.81917000  0.03321000  0.84108000  1.0
  O  O2  1  0.87126000  0.96241000  0.72650000  1.0
  O  O3  1  0.61131000  0.87536000  0.03339000  1.0
  O  O4  1  0.58281000  0.72197000  0.02549000  1.0
  O  O5  1  0.75466000  0.53585000  0.80390000  1.0
  O  O6  1  0.79202000  0.62451000  0.69137000  1.0
  O  O7  1  0.96623000  0.18096000  0.66012000  1.0
  O  O8  1  0.03747000  0.12867000  0.77438000  1.0
  O  O9  1  0.12441000  0.38862000  0.46657000  1.0
  O  O10  1  0.27789000  0.41679000  0.47465000  1.0
  O  O11  1  0.46416000  0.24529000  0.69607000  1.0
  O  O12  1  0.37561000  0.20790000  0.80867000  1.0
  O  O13  1  0.18083000  0.96679000  0.15891000  1.0
  O  O14  1  0.12874000  0.03759000  0.27349000  1.0
  O  O15  1  0.38870000  0.12463000  0.96660000  1.0
  O  O16  1  0.41719000  0.27802000  0.97451000  1.0
  O  O17  1  0.24534000  0.46415000  0.19610000  1.0
  O  O18  1  0.20798000  0.37549000  0.30863000  1.0
  O  O19  1  0.03378000  0.81904000  0.33987000  1.0
  O  O20  1  0.96253000  0.87133000  0.22562000  1.0
  O  O21  1  0.87560000  0.61138000  0.53343000  1.0
  O  O22  1  0.72212000  0.58321000  0.52535000  1.0
  O  O23  1  0.53584000  0.75471000  0.30392000  1.0
  O  O24  1  0.62439000  0.79210000  0.19132000  1.0
