# generated using pymatgen
data_H11C15N4
_symmetry_space_group_name_H-M   'P 1'
_cell_length_a   9.94170000
_cell_length_b   32.99200000
_cell_length_c   41.19910000
_cell_angle_alpha   90.27480000
_cell_angle_beta   90.55170000
_cell_angle_gamma   90.43100000
_symmetry_Int_Tables_number   1
_chemical_formula_structural   H11C15N4
_chemical_formula_sum   'H110 C150 N40'
_cell_volume   13511.99441859
_cell_formula_units_Z   10
loop_
 _symmetry_equiv_pos_site_id
 _symmetry_equiv_pos_as_xyz
  1  'x, y, z'
loop_
 _atom_site_type_symbol
 _atom_site_label
 _atom_site_symmetry_multiplicity
 _atom_site_fract_x
 _atom_site_fract_y
 _atom_site_fract_z
 _atom_site_occupancy
  C  1  1  0.84986900  0.01155767  0.01755500  1
  C  2  1  0.87589200  0.98938900  0.98851633  1
  C  3  1  0.89277700  0.94674900  0.98751700  1
  C  4  1  0.89047400  0.92558500  0.01714600  1
  C  5  1  0.85877600  0.94534900  0.04657200  1
  C  6  1  0.83331000  0.98742500  0.04590133  1
  C  10  1  0.84986900  0.05527233  0.01831200  1
  C  11  1  0.83621300  0.07933067  0.98979767  1
  C  12  1  0.86264000  0.12147067  0.98935767  1
  C  13  1  0.89303900  0.14131000  0.01901700  1
  C  14  1  0.89105300  0.12024167  0.04866000  1
  C  15  1  0.87278600  0.07758067  0.04760767  1
  C  23  1  0.95132700  0.79534100  0.31891133  1
  C  24  1  0.92575800  0.79596800  0.28468533  1
  C  25  1  0.97167400  0.82816600  0.26481867  1
  C  26  1  0.04464800  0.86029500  0.27919667  1
  C  27  1  0.06268900  0.86254500  0.31304733  1
  C  28  1  0.01574700  0.83040600  0.33225500  1
  C  32  1  0.92292100  0.76139300  0.33946333  1
  C  33  1  0.92459200  0.72082400  0.32736700  1
  C  34  1  0.91315700  0.68686267  0.34803767  1
  C  35  1  0.91291300  0.69380433  0.38194667  1
  C  36  1  0.90601500  0.73294600  0.39513633  1
  C  37  1  0.90382900  0.76609600  0.37363833  1
  C  45  1  0.96080800  0.28398167  0.72162300  1
  C  46  1  0.93138100  0.28057033  0.75542267  1
  C  47  1  0.98582100  0.24922367  0.77486033  1
  C  48  1  0.07063700  0.22050833  0.76050700  1
  C  49  1  0.09269200  0.22057833  0.72685733  1
  C  50  1  0.03885600  0.25217167  0.70813967  1
  C  54  1  0.91585100  0.31684933  0.70165233  1
  C  55  1  0.88895000  0.35596067  0.71489667  1
  C  56  1  0.84672000  0.38884133  0.69547900  1
  C  57  1  0.83724800  0.38283700  0.66156500  1
  C  58  1  0.86878000  0.34569567  0.64697367  1
  C  59  1  0.90365400  0.31299800  0.66717133  1
  C  67  1  0.04157000  0.27325433  0.32713533  1
  C  68  1  0.01144700  0.26852767  0.29328500  1
  C  69  1  0.03592100  0.23145367  0.27672500  1
  C  70  1  0.09881900  0.19966200  0.29354200  1
  C  71  1  0.13816600  0.20416833  0.32604500  1
  C  72  1  0.10924500  0.24039700  0.34238367  1
  C  76  1  0.01076900  0.30854567  0.34603567  1
  C  77  1  0.00008133  0.34812633  0.33259233  1
  C  78  1  0.98711400  0.38322567  0.35230367  1
  C  79  1  0.97856400  0.37756800  0.38643833  1
  C  80  1  0.97639500  0.33902067  0.40083767  1
  C  81  1  0.99264900  0.30537533  0.38025867  1
  C  89  1  0.04667400  0.79254367  0.71030300  1
  C  90  1  0.01303600  0.79977800  0.74354600  1
  C  91  1  0.05776100  0.83516967  0.76036100  1
  C  92  1  0.14347200  0.86255967  0.74439700  1
  C  93  1  0.18579500  0.85514233  0.71262567  1
  C  94  1  0.13711700  0.82076900  0.69597100  1
  C  98  1  0.99343200  0.75955567  0.69121200  1
  C  99  1  0.95062200  0.72235533  0.70523700  1
  C  100  1  0.90349800  0.68923967  0.68617500  1
  C  101  1  0.88395000  0.69541433  0.65234167  1
  C  102  1  0.92672900  0.73115433  0.63712300  1
  C  103  1  0.98391200  0.76210867  0.65667933  1
  C  111  1  0.00122700  0.84009600  0.16125100  1
  C  112  1  0.87749300  0.84021067  0.17836700  1
  C  113  1  0.76873800  0.85998300  0.16278167  1
  C  115  1  0.90151400  0.87609400  0.11684467  1
  C  118  1  0.12283500  0.81846033  0.17270900  1
  C  119  1  0.26405900  0.83240400  0.16213300  1
  C  120  1  0.21645900  0.84130100  0.19663767  1
  C  126  1  0.86072500  0.82202667  0.20910633  1
  C  128  1  0.91774000  0.89207133  0.08557700  1
  C  130  1  0.00561400  0.23096133  0.87753400  1
  C  131  1  0.88252300  0.23015267  0.85955167  1
  C  132  1  0.77436800  0.20880867  0.87394233  1
  C  134  1  0.90649300  0.19237433  0.92034533  1
  C  137  1  0.12646600  0.25416733  0.86747067  1
  C  138  1  0.26769900  0.24205533  0.87959900  1
  C  139  1  0.22474900  0.23262167  0.84458667  1
  C  145  1  0.86558200  0.24890567  0.82898933  1
  C  147  1  0.92274500  0.17547733  0.95132100  1
  C  149  1  0.92744800  0.16516967  0.19232600  1
  C  150  1  0.93999700  0.20825067  0.19010300  1
  C  151  1  0.93586500  0.22426633  0.15817200  1
  C  153  1  0.91815300  0.15878700  0.13418733  1
  C  156  1  0.91028500  0.14227767  0.22312667  1
  C  157  1  0.88999600  0.09578133  0.22267733  1
  C  158  1  0.02431400  0.11404833  0.23413900  1
  C  164  1  0.95650400  0.23513433  0.21689400  1
  C  166  1  0.90701700  0.13152967  0.10800400  1
  C  168  1  0.96125700  0.90455600  0.84415067  1
  C  169  1  0.95195100  0.86136400  0.84533700  1
  C  170  1  0.92946900  0.84471633  0.87657200  1
  C  172  1  0.93237100  0.90959000  0.90191700  1
  C  175  1  0.96757500  0.92868000  0.81375333  1
  C  176  1  0.98285400  0.97530500  0.81510833  1
  C  177  1  0.10201700  0.94910500  0.80508400  1
  C  183  1  0.96309600  0.83499700  0.81814933  1
  C  185  1  0.92243800  0.93628500  0.92844567  1
  C  187  1  0.03503800  0.75865800  0.49472300  1
  C  188  1  0.90083600  0.75825700  0.48245067  1
  C  189  1  0.79756100  0.75506733  0.50573467  1
  C  191  1  0.95586500  0.75412433  0.54930267  1
  C  194  1  0.15452100  0.76551633  0.47417967  1
  C  195  1  0.28937300  0.74534100  0.48280467  1
  C  196  1  0.20464000  0.72907433  0.45432333  1
  C  202  1  0.87082800  0.76456400  0.44931133  1
  C  204  1  0.98701500  0.75466567  0.58260000  1
  C  206  1  0.88236000  0.36966233  0.54468700  1
  C  207  1  0.90119000  0.32971533  0.55697000  1
  C  208  1  0.93111200  0.29963367  0.53341300  1
  C  210  1  0.92725100  0.34725733  0.49047733  1
  C  213  1  0.85048800  0.40608400  0.56429233  1
  C  214  1  0.76099800  0.43976733  0.55015100  1
  C  215  1  0.70330300  0.41030900  0.57508367  1
  C  221  1  0.89633600  0.31853767  0.59012500  1
  C  223  1  0.93906100  0.35873533  0.45791200  1
  C  225  1  0.08815000  0.97931000  0.35592633  1
  C  226  1  0.19485100  0.95884400  0.34011233  1
  C  227  1  0.32642200  0.97420200  0.34523567  1
  C  229  1  0.24531300  0.02495133  0.38052267  1
  C  232  1  0.94443800  0.96739500  0.35296533  1
  C  233  1  0.83793400  0.99992367  0.34594967  1
  C  234  1  0.87805500  0.97027800  0.31911267  1
  C  240  1  0.17518400  0.92650900  0.31924033  1
  C  242  1  0.26835500  0.05574167  0.39933767  1
  C  244  1  0.12298600  0.10651733  0.68095633  1
  C  245  1  0.22989800  0.12695700  0.69761833  1
  C  246  1  0.36157200  0.11268233  0.69242567  1
  C  248  1  0.28018600  0.06306467  0.65543867  1
  C  251  1  0.97910200  0.11737433  0.68387067  1
  C  252  1  0.87348900  0.08387967  0.68968433  1
  C  253  1  0.91390800  0.11261733  0.71743067  1
  C  259  1  0.20992500  0.15805433  0.71946133  1
  C  261  1  0.30314200  0.03331867  0.63577300  1
  C  263  1  0.96467800  0.55590933  0.32371700  1
  C  264  1  0.86535100  0.57427400  0.34357433  1
  C  265  1  0.78225000  0.54725067  0.36111833  1
  C  267  1  0.90499600  0.49025933  0.34363033  1
  C  270  1  0.06373500  0.57933933  0.30478333  1
  C  271  1  0.10230300  0.56459667  0.27062767  1
  C  272  1  0.01017100  0.60123667  0.27442700  1
  C  278  1  0.85006500  0.61604433  0.35031167  1
  C  280  1  0.93437300  0.45084967  0.35332300  1
  C  282  1  0.87516300  0.51899567  0.71786700  1
  C  283  1  0.76697400  0.49887733  0.70137567  1
  C  284  1  0.67311100  0.52431500  0.68547233  1
  C  286  1  0.80082800  0.58314733  0.69786467  1
  C  289  1  0.98593400  0.49772633  0.73467967  1
  C  290  1  0.04005900  0.51442733  0.76727367  1
  C  291  1  0.95118200  0.47634900  0.76669900  1
  C  297  1  0.75400700  0.45671400  0.69573433  1
  C  299  1  0.82466500  0.62299933  0.68798133  1
  H  7  1  0.88993100  0.00460567  0.96746100  1
  H  8  1  0.80791700  0.00067167  0.06739700  1
  H  9  1  0.90407500  0.89486800  0.01700100  1
  H  16  1  0.81210600  0.06601833  0.96808067  1
  H  17  1  0.90681600  0.17208467  0.01931600  1
  H  18  1  0.88522300  0.06248667  0.06882000  1
  H  29  1  0.87333800  0.77280100  0.27378933  1
  H  30  1  0.03846700  0.83211700  0.35646400  1
  H  31  1  0.07226100  0.88455700  0.26526567  1
  H  38  1  0.93677700  0.71540000  0.30312767  1
  H  39  1  0.91640300  0.66979667  0.39757633  1
  H  40  1  0.89646900  0.79425300  0.38379867  1
  H  51  1  0.86847400  0.30073733  0.76629367  1
  H  52  1  0.06378400  0.25220367  0.68416433  1
  H  53  1  0.10272800  0.19636500  0.77398433  1
  H  60  1  0.90267100  0.36132433  0.73916433  1
  H  61  1  0.81879200  0.40701633  0.64681233  1
  H  62  1  0.91797500  0.28582433  0.65594700  1
  H  73  1  0.96084000  0.29066467  0.28108033  1
  H  74  1  0.14546300  0.24312700  0.36562667  1
  H  75  1  0.12149700  0.17331167  0.28169400  1
  H  82  1  0.01443500  0.35219567  0.30828267  1
  H  83  1  0.97293100  0.40242067  0.40113133  1
  H  84  1  0.98652100  0.27750567  0.39092333  1
  H  95  1  0.94602100  0.78121700  0.75498267  1
  H  96  1  0.17463100  0.81566967  0.67329900  1
  H  97  1  0.18008300  0.88757167  0.75641500  1
  H  104  1  0.96724000  0.71751767  0.72944800  1
  H  105  1  0.85187600  0.67183567  0.63791200  1
  H  106  1  0.00570700  0.78869233  0.64524767  1
  H  117  1  0.67766200  0.86236300  0.17392800  1
  H  121  1  0.11367100  0.78599200  0.17735100  1
  H  122  1  0.26318900  0.82304800  0.21561300  1
  H  123  1  0.19429300  0.87310067  0.20159100  1
  H  124  1  0.27194400  0.85907400  0.14666433  1
  H  125  1  0.34023800  0.80886900  0.16036100  1
  H  127  1  0.76676400  0.81396000  0.21683300  1
  H  129  1  0.99917500  0.88292000  0.07247700  1
  H  136  1  0.68399500  0.20580200  0.86208167  1
  H  140  1  0.11502000  0.28654667  0.86288100  1
  H  141  1  0.27174500  0.25152433  0.82614567  1
  H  142  1  0.20591600  0.20057933  0.83935467  1
  H  143  1  0.27666800  0.21542733  0.89507700  1
  H  144  1  0.34150700  0.26654067  0.88218533  1
  H  146  1  0.77105500  0.25549133  0.82058667  1
  H  148  1  0.00342100  0.18498433  0.96507567  1
  H  155  1  0.94407500  0.25479433  0.15440000  1
  H  159  1  0.85155900  0.15626033  0.24238100  1
  H  160  1  0.04204800  0.11081833  0.26015367  1
  H  161  1  0.10767600  0.10947133  0.21747767  1
  H  162  1  0.89617300  0.07913933  0.19979267  1
  H  163  1  0.82930200  0.08296633  0.24210633  1
  H  165  1  0.95005100  0.26579867  0.21373800  1
  H  167  1  0.89685800  0.10150533  0.11353300  1
  H  174  1  0.92188000  0.81404533  0.87962233  1
  H  178  1  0.90387800  0.91907800  0.79333733  1
  H  179  1  0.12650800  0.95157467  0.77942667  1
  H  180  1  0.18352800  0.94767167  0.82299300  1
  H  181  1  0.99725300  0.99050933  0.83848167  1
  H  182  1  0.93711300  0.99221900  0.79519700  1
  H  184  1  0.94009200  0.80485400  0.82025033  1
  H  186  1  0.92501800  0.96656400  0.92337333  1
  H  193  1  0.69872800  0.75409600  0.49865700  1
  H  197  1  0.16293800  0.79446400  0.46157533  1
  H  198  1  0.24403100  0.73586367  0.43029933  1
  H  199  1  0.15689700  0.69966800  0.45854900  1
  H  200  1  0.29242600  0.72564700  0.50401700  1
  H  201  1  0.38000400  0.76199700  0.47600267  1
  H  203  1  0.78397800  0.77928700  0.44323167  1
  H  205  1  0.08048500  0.76474733  0.58969033  1
  H  212  1  0.94575400  0.27014833  0.54004267  1
  H  216  1  0.92507500  0.41668433  0.58209067  1
  H  217  1  0.68553600  0.42399767  0.59878333  1
  H  218  1  0.62953300  0.38876733  0.56518300  1
  H  219  1  0.72107700  0.43580433  0.52555233  1
  H  220  1  0.78075900  0.47038400  0.55925333  1
  H  222  1  0.91792000  0.28937767  0.59658433  1
  H  224  1  0.92657200  0.38875533  0.45280867  1
  H  231  1  0.40746700  0.96122800  0.33426667  1
  H  235  1  0.90954200  0.94155200  0.36714900  1
  H  236  1  0.80292000  0.94705300  0.31314600  1
  H  237  1  0.93701900  0.98372200  0.29963567  1
  H  238  1  0.87336700  0.03102833  0.34266567  1
  H  239  1  0.73870300  0.99459600  0.35627833  1
  H  241  1  0.21130800  0.92821800  0.29687500  1
  H  243  1  0.28472200  0.07772833  0.41274767  1
  H  250  1  0.44270000  0.12566000  0.70400867  1
  H  254  1  0.94316500  0.14358167  0.67030800  1
  H  255  1  0.83852100  0.13510233  0.72382167  1
  H  256  1  0.97381000  0.09872467  0.73669000  1
  H  257  1  0.90966800  0.05287867  0.69221133  1
  H  258  1  0.77378900  0.08901567  0.67923867  1
  H  260  1  0.24184300  0.15472733  0.74221367  1
  H  262  1  0.31942600  0.01207867  0.62175300  1
  H  269  1  0.70811200  0.55748067  0.37607367  1
  H  273  1  0.14198300  0.59618667  0.31800267  1
  H  274  1  0.05668500  0.63047933  0.26902567  1
  H  275  1  0.90525200  0.59584633  0.26745600  1
  H  276  1  0.05285600  0.53716167  0.26138433  1
  H  277  1  0.20467000  0.57163533  0.26302567  1
  H  279  1  0.78559900  0.62304467  0.36877267  1
  H  281  1  0.03922700  0.44238033  0.35186133  1
  H  288  1  0.59273700  0.51258833  0.67278300  1
  H  292  1  0.05908700  0.48158300  0.71992500  1
  H  293  1  0.00370300  0.44803600  0.77150567  1
  H  294  1  0.84994200  0.48048733  0.77616967  1
  H  295  1  0.99235300  0.54146967  0.77712733  1
  H  296  1  0.14642200  0.50918067  0.77237567  1
  H  298  1  0.68358500  0.44790500  0.67871167  1
  H  300  1  0.93185300  0.62899167  0.68638500  1
  N  19  1  0.90608600  0.14264933  0.07638700  1
  N  20  1  0.86010000  0.14069800  0.96017867  1
  N  21  1  0.85534300  0.92638500  0.07586700  1
  N  22  1  0.91056600  0.92462267  0.95981733  1
  N  41  1  0.91026700  0.73593000  0.42799967  1
  N  42  1  0.90752900  0.64848767  0.33553467  1
  N  43  1  0.10559900  0.89574800  0.32832367  1
  N  44  1  0.94739400  0.83374200  0.23274600  1
  N  63  1  0.87080100  0.34539133  0.61407667  1
  N  64  1  0.82874300  0.42638900  0.70865767  1
  N  65  1  0.14027300  0.18885233  0.71089800  1
  N  66  1  0.95875800  0.24117933  0.80632233  1
  N  85  1  0.96145900  0.33239467  0.43324567  1
  N  86  1  0.98982100  0.42092667  0.33830600  1
  N  87  1  0.19859300  0.17605133  0.34032133  1
  N  88  1  0.00329000  0.22168233  0.24566800  1
  N  107  1  0.91502400  0.73291300  0.60422067  1
  N  108  1  0.89644400  0.65192533  0.70043733  1
  N  109  1  0.26592000  0.87919300  0.69919067  1
  N  110  1  0.02481600  0.84710433  0.79078200  1
  N  114  1  0.78447300  0.87830567  0.13349700  1
  N  116  1  0.00549300  0.85609333  0.13088700  1
  N  133  1  0.79017200  0.18959733  0.90288400  1
  N  135  1  0.00968700  0.21389833  0.90751767  1
  N  152  1  0.92704900  0.19971133  0.13154300  1
  N  154  1  0.91645700  0.14313767  0.16446900  1
  N  171  1  0.92227500  0.86859500  0.90357567  1
  N  173  1  0.94917000  0.92604300  0.87218333  1
  N  190  1  0.82732600  0.75170233  0.53790967  1
  N  192  1  0.05598100  0.75864333  0.52741800  1
  N  209  1  0.94277200  0.30884167  0.50141233  1
  N  211  1  0.89829500  0.37645267  0.51247800  1
  N  228  1  0.34811000  0.00645467  0.36517067  1
  N  230  1  0.11782100  0.01124267  0.37577867  1
  N  247  1  0.38316800  0.08150533  0.67160400  1
  N  249  1  0.15258000  0.07571333  0.66025267  1
  N  266  1  0.80587000  0.50707967  0.36118300  1
  N  268  1  0.98463400  0.51498833  0.32561400  1
  N  285  1  0.69364900  0.56475200  0.68362933  1
  N  287  1  0.89065800  0.55990067  0.71434833  1
