# generated using pymatgen
data_CdH7C13NO4
_symmetry_space_group_name_H-M   'P 1'
_cell_length_a   9.23800000
_cell_length_b   9.74300000
_cell_length_c   18.22500000
_cell_angle_alpha   90.00000000
_cell_angle_beta   90.00000000
_cell_angle_gamma   104.94000000
_symmetry_Int_Tables_number   1
_chemical_formula_structural   CdH7C13NO4
_chemical_formula_sum   'Cd4 H28 C52 N4 O16'
_cell_volume   1584.90626287
_cell_formula_units_Z   4
loop_
 _symmetry_equiv_pos_site_id
 _symmetry_equiv_pos_as_xyz
  1  'x, y, z'
loop_
 _atom_site_type_symbol
 _atom_site_label
 _atom_site_symmetry_multiplicity
 _atom_site_fract_x
 _atom_site_fract_y
 _atom_site_fract_z
 _atom_site_occupancy
  Cd  Cd1  1  0.13315000  0.43812000  0.93392000  1.0
  Cd  Cd2  1  0.86685000  0.06188000  0.43392000  1.0
  Cd  Cd3  1  0.86685000  0.56188000  0.06608000  1.0
  Cd  Cd4  1  0.13315000  0.93812000  0.56608000  1.0
  H  H1  1  0.63280000  0.85950000  0.66666667  1.0
  H  H2  1  0.97750000  0.20220000  0.68980000  1.0
  H  H3  1  0.74900000  0.02260000  0.86710000  1.0
  H  H4  1  0.21630000  0.60700000  0.78280000  1.0
  H  H5  1  0.39590000  0.78150000  0.72590000  1.0
  H  H6  1  0.66570000  0.77650000  0.89750000  1.0
  H  H7  1  0.47550000  0.60600000  0.95110000  1.0
  H  H8  1  0.36720000  0.64050000  0.16670000  1.0
  H  H9  1  0.02250000  0.29780000  0.18980000  1.0
  H  H10  1  0.25100000  0.47740000  0.36710000  1.0
  H  H11  1  0.78370000  0.89300000  0.28280000  1.0
  H  H12  1  0.60410000  0.71850000  0.22590000  1.0
  H  H13  1  0.33430000  0.72350000  0.39750000  1.0
  H  H14  1  0.52450000  0.89400000  0.45110000  1.0
  H  H15  1  0.36720000  0.14050000  0.33333333  1.0
  H  H16  1  0.02250000  0.79780000  0.31020000  1.0
  H  H17  1  0.25100000  0.97740000  0.13290000  1.0
  H  H18  1  0.78370000  0.39300000  0.21720000  1.0
  H  H19  1  0.60410000  0.21850000  0.27410000  1.0
  H  H20  1  0.33430000  0.22350000  0.10250000  1.0
  H  H21  1  0.52450000  0.39400000  0.04890000  1.0
  H  H22  1  0.63280000  0.35950000  0.83330000  1.0
  H  H23  1  0.97750000  0.70220000  0.81020000  1.0
  H  H24  1  0.74900000  0.52260000  0.63290000  1.0
  H  H25  1  0.21630000  0.10700000  0.71720000  1.0
  H  H26  1  0.39590000  0.28150000  0.77410000  1.0
  H  H27  1  0.66570000  0.27650000  0.60250000  1.0
  H  H28  1  0.47550000  0.10600000  0.54890000  1.0
  C  C1  1  0.67200000  0.91950000  0.77270000  1.0
  C  C2  1  0.69530000  0.92600000  0.69700000  1.0
  C  C3  1  0.81030000  0.03030000  0.66666667  1.0
  C  C4  1  0.90000000  0.13270000  0.71050000  1.0
  C  C5  1  0.87540000  0.13270000  0.78560000  1.0
  C  C6  1  0.76340000  0.02480000  0.81660000  1.0
  C  C7  1  0.30710000  0.64320000  0.80660000  1.0
  C  C8  1  0.41500000  0.74810000  0.77180000  1.0
  C  C9  1  0.55290000  0.80340000  0.80630000  1.0
  C  C10  1  0.57420000  0.74570000  0.87350000  1.0
  C  C11  1  0.45940000  0.64180000  0.90530000  1.0
  C  C12  1  0.83720000  0.03150000  0.58440000  1.0
  C  C13  1  0.97190000  0.24870000  0.83420000  1.0
  C  C14  1  0.32800000  0.58050000  0.27270000  1.0
  C  C15  1  0.30470000  0.57400000  0.19700000  1.0
  C  C16  1  0.18970000  0.46970000  0.16660000  1.0
  C  C17  1  0.10000000  0.36730000  0.21050000  1.0
  C  C18  1  0.12460000  0.36730000  0.28560000  1.0
  C  C19  1  0.23660000  0.47520000  0.31660000  1.0
  C  C20  1  0.69290000  0.85680000  0.30660000  1.0
  C  C21  1  0.58500000  0.75190000  0.27180000  1.0
  C  C22  1  0.44710000  0.69660000  0.30630000  1.0
  C  C23  1  0.42580000  0.75430000  0.37350000  1.0
  C  C24  1  0.54060000  0.85820000  0.40530000  1.0
  C  C25  1  0.16280000  0.46850000  0.08440000  1.0
  C  C26  1  0.02810000  0.25130000  0.33420000  1.0
  C  C27  1  0.32800000  0.08050000  0.22730000  1.0
  C  C28  1  0.30470000  0.07400000  0.30300000  1.0
  C  C29  1  0.18970000  0.96970000  0.33340000  1.0
  C  C30  1  0.10000000  0.86730000  0.28950000  1.0
  C  C31  1  0.12460000  0.86730000  0.21440000  1.0
  C  C32  1  0.23660000  0.97520000  0.18340000  1.0
  C  C33  1  0.69290000  0.35680000  0.19340000  1.0
  C  C34  1  0.58500000  0.25190000  0.22820000  1.0
  C  C35  1  0.44710000  0.19660000  0.19370000  1.0
  C  C36  1  0.42580000  0.25430000  0.12650000  1.0
  C  C37  1  0.54060000  0.35820000  0.09470000  1.0
  C  C38  1  0.16280000  0.96850000  0.41560000  1.0
  C  C39  1  0.02810000  0.75130000  0.16580000  1.0
  C  C40  1  0.67200000  0.41950000  0.72730000  1.0
  C  C41  1  0.69530000  0.42600000  0.80300000  1.0
  C  C42  1  0.81030000  0.53030000  0.83340000  1.0
  C  C43  1  0.90000000  0.63270000  0.78950000  1.0
  C  C44  1  0.87540000  0.63270000  0.71440000  1.0
  C  C45  1  0.76340000  0.52480000  0.68340000  1.0
  C  C46  1  0.30710000  0.14320000  0.69340000  1.0
  C  C47  1  0.41500000  0.24810000  0.72820000  1.0
  C  C48  1  0.55290000  0.30340000  0.69370000  1.0
  C  C49  1  0.57420000  0.24570000  0.62650000  1.0
  C  C50  1  0.45940000  0.14180000  0.59470000  1.0
  C  C51  1  0.83720000  0.53150000  0.91560000  1.0
  C  C52  1  0.97190000  0.74870000  0.66580000  1.0
  N  N1  1  0.32660000  0.59120000  0.87270000  1.0
  N  N2  1  0.67340000  0.90880000  0.37270000  1.0
  N  N3  1  0.67340000  0.40880000  0.12730000  1.0
  N  N4  1  0.32660000  0.09120000  0.62730000  1.0
  O  O1  1  0.96810000  0.09150000  0.56146000  1.0
  O  O2  1  0.73160000  0.97600000  0.54300000  1.0
  O  O3  1  0.07730000  0.33840000  0.80580000  1.0
  O  O4  1  0.93820000  0.24890000  0.90070000  1.0
  O  O5  1  0.03190000  0.40850000  0.06146000  1.0
  O  O6  1  0.26840000  0.52400000  0.04300000  1.0
  O  O7  1  0.92270000  0.16160000  0.30580000  1.0
  O  O8  1  0.06180000  0.25110000  0.40070000  1.0
  O  O9  1  0.03190000  0.90850000  0.43854000  1.0
  O  O10  1  0.26840000  0.02400000  0.45700000  1.0
  O  O11  1  0.92270000  0.66160000  0.19420000  1.0
  O  O12  1  0.06180000  0.75110000  0.09930000  1.0
  O  O13  1  0.96810000  0.59150000  0.93854000  1.0
  O  O14  1  0.73160000  0.47600000  0.95700000  1.0
  O  O15  1  0.07730000  0.83840000  0.69420000  1.0
  O  O16  1  0.93820000  0.74890000  0.59930000  1.0
