# generated using pymatgen
data_H5C8(NO)2
_symmetry_space_group_name_H-M   'P 1'
_cell_length_a   9.87973333
_cell_length_b   46.83935000
_cell_length_c   46.83940000
_cell_angle_alpha   120.00010594
_cell_angle_beta   90.00000000
_cell_angle_gamma   90.00000000
_symmetry_Int_Tables_number   1
_chemical_formula_structural   H5C8(NO)2
_chemical_formula_sum   'H90 C144 N36 O36'
_cell_volume   18771.43930583
_cell_formula_units_Z   18
loop_
 _symmetry_equiv_pos_site_id
 _symmetry_equiv_pos_as_xyz
  1  'x, y, z'
loop_
 _atom_site_type_symbol
 _atom_site_label
 _atom_site_symmetry_multiplicity
 _atom_site_fract_x
 _atom_site_fract_y
 _atom_site_fract_z
 _atom_site_occupancy
  C  1  1  0.97810000  0.90179400  0.45192600  1
  C  2  1  0.88007500  0.92060300  0.47652900  1
  C  3  1  0.88375000  0.95562500  0.49318500  1
  C  4  1  0.98096400  0.97328400  0.48593200  1
  C  5  1  0.07893600  0.95469300  0.46112600  1
  C  6  1  0.07596800  0.91968100  0.44501300  1
  C  43  1  0.99890300  0.81342400  0.38052000  1
  C  44  1  0.98672500  0.79623300  0.39796300  1
  C  45  1  0.97027500  0.81227900  0.43250500  1
  C  46  1  0.97079200  0.84724100  0.45005000  1
  C  47  1  0.97993000  0.86601700  0.43376600  1
  C  48  1  0.99263600  0.84829400  0.39874700  1
  C  51  1  0.01054200  0.79393900  0.34531400  1
  C  52  1  0.89891800  0.78962600  0.32449800  1
  C  56  1  0.95701700  0.79177100  0.44718400  1
  C  57  1  0.05588700  0.79113900  0.46881800  1
  C  98  1  0.97078100  0.70640100  0.25085800  1
  C  99  1  0.99701900  0.73740000  0.28022800  1
  C  100  1  0.11182100  0.74223000  0.30063800  1
  C  101  1  0.11826300  0.77098000  0.33216900  1
  C  102  1  0.89626600  0.76225200  0.29193300  1
  C  109  1  0.05844900  0.76440900  0.47504500  1
  C  110  1  0.97092200  0.73691900  0.45852100  1
  C  111  1  0.86832900  0.73799300  0.43764700  1
  C  112  1  0.86009000  0.76602400  0.43370400  1
  C  114  1  0.99718100  0.70755800  0.46016300  1
  C  166  1  0.99906500  0.55193000  0.17441000  1
  C  167  1  0.98680900  0.58656500  0.19158100  1
  C  168  1  0.97024600  0.60503800  0.17551600  1
  C  169  1  0.97075600  0.58760200  0.14055400  1
  C  170  1  0.97990600  0.55254300  0.12179800  1
  C  171  1  0.99270700  0.53526700  0.13954100  1
  C  175  1  0.99919600  0.60727300  0.43593300  1
  C  176  1  0.98699800  0.58982000  0.40129700  1
  C  177  1  0.97036700  0.55528100  0.38281400  1
  C  178  1  0.97084400  0.53774800  0.40024300  1
  C  179  1  0.97998100  0.55404200  0.43530200  1
  C  180  1  0.99275700  0.58905900  0.45258700  1
  C  184  1  0.00064300  0.16851900  0.61319100  1
  C  185  1  0.98623900  0.18557900  0.59565600  1
  C  186  1  0.96772300  0.16938900  0.56115400  1
  C  187  1  0.96836400  0.13442500  0.54371800  1
  C  188  1  0.98301400  0.11589900  0.56012200  1
  C  189  1  0.99632100  0.13363300  0.59508300  1
  C  193  1  0.00084600  0.42944400  0.81930100  1
  C  194  1  0.98647200  0.39484700  0.80223700  1
  C  195  1  0.96786800  0.37653500  0.81842100  1
  C  196  1  0.96845200  0.39405800  0.85338800  1
  C  197  1  0.98308100  0.42899100  0.87192000  1
  C  198  1  0.99641300  0.44621900  0.85418800  1
  C  202  1  0.00061400  0.37463400  0.55839900  1
  C  203  1  0.98610100  0.39216800  0.59299200  1
  C  204  1  0.96761400  0.42666900  0.61130100  1
  C  205  1  0.96833700  0.44410900  0.59377500  1
  C  206  1  0.98300000  0.42770300  0.55884400  1
  C  207  1  0.99630200  0.39274300  0.54162100  1
  C  211  1  0.97735200  0.00891100  0.50401700  1
  C  212  1  0.87136700  0.02782800  0.50083800  1
  C  213  1  0.87642700  0.06283600  0.51979700  1
  C  214  1  0.98335800  0.08024000  0.54190000  1
  C  215  1  0.08911700  0.06120400  0.54472600  1
  C  216  1  0.08407800  0.02622400  0.52616200  1
  C  225  1  0.97804300  0.53490800  0.08602100  1
  C  226  1  0.87998900  0.54068900  0.06720900  1
  C  227  1  0.88368400  0.52232200  0.03218700  1
  C  228  1  0.98088500  0.49740700  0.01453200  1
  C  229  1  0.07888400  0.49120300  0.03312600  1
  C  230  1  0.07593400  0.51011400  0.06814000  1
  C  232  1  0.97730100  0.47986800  0.97890600  1
  C  233  1  0.87133500  0.45777100  0.95998200  1
  C  234  1  0.87644600  0.44171800  0.92497600  1
  C  235  1  0.98338400  0.44642400  0.90757800  1
  C  236  1  0.08912200  0.46828900  0.92662100  1
  C  237  1  0.08403700  0.48470800  0.96160300  1
  C  253  1  0.97810900  0.53589100  0.45292700  1
  C  254  1  0.88005000  0.51129600  0.44714200  1
  C  255  1  0.88371500  0.49464200  0.46550900  1
  C  256  1  0.98095300  0.50188700  0.49041500  1
  C  257  1  0.07894500  0.52668700  0.49662400  1
  C  258  1  0.07598800  0.54279900  0.47772300  1
  C  260  1  0.97734000  0.48380300  0.50795700  1
  C  261  1  0.87136000  0.48698600  0.53005700  1
  C  262  1  0.87642100  0.46802600  0.54610400  1
  C  263  1  0.98335400  0.44592800  0.54141000  1
  C  264  1  0.08909900  0.44309600  0.51954400  1
  C  265  1  0.08405700  0.46165900  0.50312500  1
  C  281  1  0.95695600  0.64023000  0.19600500  1
  C  282  1  0.05584700  0.66248800  0.19664300  1
  C  283  1  0.05836700  0.69544500  0.22337800  1
  C  284  1  0.86817800  0.68444800  0.24977100  1
  C  285  1  0.85995900  0.65247700  0.22173700  1
  C  293  1  0.95710700  0.54057100  0.34762000  1
  C  294  1  0.05598700  0.51896500  0.32534600  1
  C  295  1  0.05866200  0.51282900  0.29242300  1
  C  296  1  0.97095400  0.52933000  0.28146900  1
  C  297  1  0.86830000  0.55016900  0.30342200  1
  C  298  1  0.86026300  0.55412100  0.33539900  1
  C  300  1  0.99709100  0.52771400  0.25047200  1
  C  301  1  0.11190200  0.54331000  0.24565300  1
  C  302  1  0.11836000  0.54609800  0.21690600  1
  C  303  1  0.01074300  0.53624200  0.19393000  1
  C  304  1  0.89911100  0.51972100  0.19820600  1
  C  305  1  0.89636100  0.51458400  0.22561200  1
  C  321  1  0.11201200  0.68715300  0.44459400  1
  C  322  1  0.11848100  0.65562700  0.44182300  1
  C  323  1  0.01076600  0.64248000  0.45164000  1
  C  324  1  0.89911800  0.66329000  0.46812800  1
  C  325  1  0.89642800  0.69585100  0.47330800  1
  C  333  1  0.95413100  0.34134900  0.79804400  1
  C  334  1  0.05366900  0.31916900  0.79730700  1
  C  335  1  0.05716800  0.28631200  0.77041500  1
  C  336  1  0.96956700  0.27534700  0.74294600  1
  C  337  1  0.86623500  0.29718800  0.74412800  1
  C  338  1  0.85753900  0.32911100  0.77222500  1
  C  340  1  0.99666600  0.24450800  0.71348200  1
  C  341  1  0.11108100  0.24010400  0.69308100  1
  C  342  1  0.11844900  0.21143900  0.66150200  1
  C  343  1  0.01209000  0.18810400  0.64839300  1
  C  344  1  0.90085100  0.19197700  0.66915300  1
  C  345  1  0.89720500  0.21935300  0.70170100  1
  C  361  1  0.95388800  0.44147100  0.64647900  1
  C  362  1  0.05349400  0.46290100  0.66865300  1
  C  363  1  0.05694000  0.46895500  0.70154500  1
  C  364  1  0.96951100  0.45242600  0.71251800  1
  C  365  1  0.86620300  0.43175300  0.69068900  1
  C  366  1  0.85726600  0.42795400  0.65877900  1
  C  368  1  0.99680600  0.45380100  0.74335000  1
  C  369  1  0.11126400  0.43781900  0.74774100  1
  C  370  1  0.11871400  0.43489800  0.77640000  1
  C  371  1  0.01229200  0.44505700  0.79971800  1
  C  372  1  0.90101300  0.46194500  0.79584900  1
  C  373  1  0.89737900  0.46718100  0.76851200  1
  C  389  1  0.95399900  0.18976200  0.54634100  1
  C  390  1  0.05361000  0.19051400  0.52492300  1
  C  391  1  0.05713100  0.21741000  0.51896300  1
  C  392  1  0.96947700  0.24487100  0.53545600  1
  C  393  1  0.86608300  0.24367700  0.55609100  1
  C  394  1  0.85735700  0.21557400  0.55990600  1
  C  396  1  0.99659400  0.27434200  0.53408900  1
  C  397  1  0.11098900  0.29474200  0.55009900  1
  C  398  1  0.11836900  0.32632400  0.55301800  1
  C  399  1  0.01204000  0.33943200  0.54278400  1
  C  400  1  0.90082000  0.31867200  0.52588400  1
  C  401  1  0.89715800  0.28612300  0.52071100  1
  H  7  1  0.14821300  0.90675100  0.42756400  1
  H  8  1  0.81200100  0.96848500  0.51080700  1
  H  9  1  0.76014900  0.98989500  0.46505900  1
  H  11  1  0.23914200  0.95623400  0.43427000  1
  H  49  1  0.96362500  0.85913700  0.47518500  1
  H  50  1  0.99804300  0.86090100  0.38615700  1
  H  97  1  0.98942700  0.77094100  0.38491100  1
  H  103  1  0.19642700  0.77322500  0.34756600  1
  H  104  1  0.81138500  0.75861700  0.27795800  1
  H  105  1  0.13429100  0.71072000  0.22417900  1
  H  107  1  0.28753500  0.72307000  0.30725200  1
  H  108  1  0.78866200  0.71213500  0.29620900  1
  H  113  1  0.78986100  0.76594300  0.41754400  1
  H  115  1  0.81152600  0.70982000  0.48363800  1
  H  116  1  0.13436300  0.76361900  0.48952800  1
  H  117  1  0.21034400  0.71559100  0.42911900  1
  H  119  1  0.71611700  0.71357500  0.40461800  1
  H  172  1  0.96351300  0.60082700  0.12864600  1
  H  173  1  0.99814400  0.51007200  0.12694800  1
  H  174  1  0.98953900  0.59882100  0.21687300  1
  H  181  1  0.96359500  0.51261500  0.38701200  1
  H  182  1  0.99813800  0.60165600  0.47778400  1
  H  183  1  0.98976100  0.60286200  0.38904800  1
  H  190  1  0.95779400  0.12230700  0.51862300  1
  H  191  1  0.00370500  0.12103400  0.60764700  1
  H  192  1  0.98831400  0.21087600  0.60862200  1
  H  199  1  0.95783500  0.38107800  0.86550200  1
  H  200  1  0.00377000  0.47138400  0.86679100  1
  H  201  1  0.98860900  0.38252000  0.77694100  1
  H  208  1  0.95777500  0.46920300  0.60675200  1
  H  209  1  0.00371100  0.38017800  0.51645700  1
  H  210  1  0.98813300  0.37920100  0.60532100  1
  H  217  1  0.79916800  0.07611700  0.51746100  1
  H  218  1  0.16171000  0.01314900  0.52868200  1
  H  220  1  0.69544000  0.02681700  0.47734400  1
  H  221  1  0.17739900  0.99296600  0.46069500  1
  H  231  1  0.14821800  0.50560900  0.08107200  1
  H  238  1  0.79920900  0.42609300  0.91168800  1
  H  239  1  0.16167000  0.50029800  0.97468100  1
  H  240  1  0.81189600  0.52707100  0.01932700  1
  H  242  1  0.75983400  0.45999300  0.99791500  1
  H  243  1  0.69519600  0.43534800  0.96098300  1
  H  245  1  0.23892900  0.46277500  0.03159600  1
  H  246  1  0.17714500  0.45245100  0.99486200  1
  H  259  1  0.14825900  0.56024100  0.48223400  1
  H  266  1  0.79916700  0.47036500  0.56172500  1
  H  267  1  0.16168100  0.45913500  0.48752700  1
  H  268  1  0.81194900  0.47702500  0.46075000  1
  H  270  1  0.76014700  0.52276600  0.52790200  1
  H  271  1  0.69544000  0.51048200  0.55254300  1
  H  273  1  0.23915000  0.55354300  0.52501900  1
  H  274  1  0.17739900  0.52712400  0.53533400  1
  H  286  1  0.78973500  0.63639200  0.22180700  1
  H  287  1  0.21016200  0.69831700  0.27219900  1
  H  289  1  0.71592500  0.67582800  0.27417300  1
  H  299  1  0.78994700  0.57023400  0.35149700  1
  H  306  1  0.19668200  0.55920900  0.21465400  1
  H  307  1  0.81166700  0.50416800  0.22922400  1
  H  308  1  0.13436700  0.49828900  0.27710900  1
  H  310  1  0.21012300  0.55881300  0.28958300  1
  H  311  1  0.28753300  0.56911300  0.26483500  1
  H  313  1  0.71563800  0.58310200  0.31203300  1
  H  314  1  0.78819700  0.56883600  0.27570800  1
  H  326  1  0.19667100  0.64023400  0.42868100  1
  H  328  1  0.28775500  0.68054600  0.41883200  1
  H  329  1  0.78887200  0.69155100  0.41889900  1
  H  339  1  0.78707100  0.34518400  0.77222000  1
  H  346  1  0.19636800  0.20946100  0.64614800  1
  H  347  1  0.81276100  0.22267200  0.71572200  1
  H  348  1  0.13339900  0.27108900  0.76957900  1
  H  350  1  0.20734900  0.28428400  0.72166900  1
  H  351  1  0.28520500  0.25988100  0.68657600  1
  H  353  1  0.71301200  0.30564900  0.71983600  1
  H  354  1  0.78633500  0.26942200  0.69773500  1
  H  367  1  0.78684000  0.41183800  0.64272900  1
  H  374  1  0.19648900  0.42147500  0.77835500  1
  H  375  1  0.81273100  0.47781500  0.76518800  1
  H  376  1  0.13344000  0.48326200  0.71671300  1
  H  378  1  0.20753200  0.42227100  0.70356900  1
  H  379  1  0.28546800  0.41157400  0.72796000  1
  H  381  1  0.71336600  0.39891100  0.68222300  1
  H  382  1  0.78693600  0.41303100  0.71842400  1
  H  395  1  0.78683900  0.21556800  0.57597100  1
  H  402  1  0.19627600  0.34167700  0.56640100  1
  H  403  1  0.81273100  0.27210100  0.50999900  1
  H  404  1  0.13340900  0.21825500  0.50459000  1
  H  406  1  0.20719700  0.26615900  0.56570200  1
  H  407  1  0.28505400  0.30125300  0.57640300  1
  H  409  1  0.71286800  0.26796600  0.58884900  1
  H  410  1  0.78628300  0.29007600  0.57474400  1
  N  10  1  0.17429300  0.96926900  0.45163400  1
  N  12  1  0.77538300  0.90422500  0.48336800  1
  N  53  1  0.78657100  0.81113300  0.33759200  1
  N  58  1  0.15671000  0.81591400  0.48185800  1
  N  106  1  0.21199600  0.71941300  0.29244200  1
  N  118  1  0.78237500  0.71244800  0.41941900  1
  N  219  1  0.76593900  0.01356900  0.47963200  1
  N  222  1  0.20190500  0.07745500  0.56512800  1
  N  241  1  0.76593800  0.45080000  0.97422900  1
  N  244  1  0.17429100  0.46714800  0.01855200  1
  N  247  1  0.77527100  0.56390100  0.08358300  1
  N  248  1  0.20193300  0.47244300  0.91037700  1
  N  269  1  0.76593700  0.50819400  0.53700600  1
  N  272  1  0.17433100  0.53617100  0.52068500  1
  N  275  1  0.77534100  0.50446400  0.42392800  1
  N  276  1  0.20188500  0.42269100  0.51539000  1
  N  288  1  0.78219300  0.69175900  0.27531000  1
  N  290  1  0.15671100  0.65075500  0.17187900  1
  N  309  1  0.21218700  0.55788200  0.26845200  1
  N  312  1  0.78227500  0.56841300  0.29614300  1
  N  315  1  0.15674000  0.50588900  0.33706100  1
  N  316  1  0.78688100  0.51124400  0.17665600  1
  N  327  1  0.21219300  0.69535000  0.42997600  1
  N  330  1  0.78676800  0.65019300  0.47653800  1
  N  349  1  0.21009100  0.26321900  0.70139700  1
  N  352  1  0.78019900  0.28985000  0.71859600  1
  N  355  1  0.15434200  0.33093400  0.82212200  1
  N  356  1  0.78982500  0.17003800  0.65604900  1
  N  377  1  0.21012300  0.42298200  0.72459600  1
  N  380  1  0.78023000  0.41356800  0.69805900  1
  N  383  1  0.15427600  0.47590500  0.65686500  1
  N  384  1  0.78990600  0.47071800  0.81775900  1
  N  405  1  0.20996000  0.28642900  0.56490700  1
  N  408  1  0.77997600  0.26919700  0.57427000  1
  N  411  1  0.15433100  0.16571100  0.51188900  1
  N  412  1  0.78982000  0.33177600  0.51704100  1
  O  13  1  0.77674700  0.91133700  0.51304700  1
  O  14  1  0.66072200  0.91108100  0.47681300  1
  O  54  1  0.68201800  0.79603200  0.33797700  1
  O  55  1  0.76221400  0.82526500  0.32135700  1
  O  59  1  0.27284900  0.80407400  0.47208600  1
  O  60  1  0.15549000  0.83119700  0.51282500  1
  O  223  1  0.30959900  0.07069700  0.54871900  1
  O  224  1  0.21616500  0.07005100  0.58730700  1
  O  249  1  0.30961100  0.46279500  0.91714300  1
  O  250  1  0.77659700  0.58646500  0.07646500  1
  O  251  1  0.21618500  0.50202700  0.91778400  1
  O  252  1  0.66062900  0.55048100  0.07672800  1
  O  277  1  0.30958300  0.43909800  0.52503600  1
  O  278  1  0.77666500  0.47478400  0.40136300  1
  O  279  1  0.21612900  0.40051300  0.48580700  1
  O  280  1  0.66069300  0.51102900  0.43734600  1
  O  291  1  0.27282700  0.65282300  0.18373100  1
  O  292  1  0.15554600  0.66644000  0.15659800  1
  O  317  1  0.68221000  0.52670400  0.19171100  1
  O  318  1  0.27289800  0.51567800  0.33503400  1
  O  319  1  0.76269800  0.48086900  0.16255100  1
  O  320  1  0.15553100  0.47492300  0.32132200  1
  O  331  1  0.68222900  0.64979400  0.46104200  1
  O  332  1  0.76237400  0.66643500  0.50690600  1
  O  357  1  0.68397200  0.18473100  0.65565300  1
  O  358  1  0.27042700  0.32916500  0.81036400  1
  O  359  1  0.76737400  0.15581700  0.67228600  1
  O  360  1  0.15386500  0.31505400  0.83720800  1
  O  385  1  0.68413400  0.45561100  0.80303200  1
  O  386  1  0.27030700  0.46590100  0.65865000  1
  O  387  1  0.76731500  0.50117100  0.83202100  1
  O  388  1  0.15391200  0.50687300  0.67270100  1
  O  413  1  0.68394200  0.33217000  0.53212000  1
  O  414  1  0.27037800  0.17747900  0.52190200  1
  O  415  1  0.76741600  0.31554200  0.48658200  1
  O  416  1  0.15395900  0.15062600  0.48092300  1
