# generated using pymatgen
data_ZnH22C28NO4
_symmetry_space_group_name_H-M   'P 1'
_cell_length_a   9.99324000
_cell_length_b   10.54668000
_cell_length_c   15.85862000
_cell_angle_alpha   87.55105000
_cell_angle_beta   89.84298000
_cell_angle_gamma   89.89884000
_symmetry_Int_Tables_number   1
_chemical_formula_structural   ZnH22C28NO4
_chemical_formula_sum   'Zn2 H44 C56 N2 O8'
_cell_volume   1669.89217865
_cell_formula_units_Z   2
loop_
 _symmetry_equiv_pos_site_id
 _symmetry_equiv_pos_as_xyz
  1  'x, y, z'
loop_
 _atom_site_type_symbol
 _atom_site_label
 _atom_site_symmetry_multiplicity
 _atom_site_fract_x
 _atom_site_fract_y
 _atom_site_fract_z
 _atom_site_occupancy
  Zn  Zn0  1  0.65312000  0.50000000  0.50000000  1
  Zn  Zn1  1  0.34688000  0.50000000  0.50000000  1
  H  H2  1  0.50228000  0.10791000  0.63634000  1
  H  H3  1  0.49460000  0.89207000  0.36416000  1
  H  H4  1  0.50276000  0.87470000  0.63663000  1
  H  H5  1  0.49592000  0.12523000  0.36381000  1
  H  H6  1  0.13239000  0.82440000  0.50575000  1
  H  H7  1  0.19988000  0.00995000  0.41568000  1
  H  H8  1  0.24598000  0.98667000  0.26373000  1
  H  H9  1  0.22259000  0.77759000  0.20120000  1
  H  H10  1  0.14996000  0.59033000  0.28983000  1
  H  H11  1  0.84084000  0.41260000  0.70867000  1
  H  H12  1  0.76214000  0.22699000  0.79684000  1
  H  H13  1  0.74497000  0.01630000  0.73590000  1
  H  H14  1  0.80200000  0.98985000  0.58583000  1
  H  H15  1  0.87580000  0.17388000  0.49607000  1
  H  H16  1  0.13184000  0.16905000  0.50976000  1
  H  H17  1  0.20919000  0.99743000  0.60873000  1
  H  H18  1  0.26475000  0.04404000  0.75645000  1
  H  H19  1  0.23832000  0.26224000  0.80588000  1
  H  H20  1  0.15292000  0.43356000  0.70869000  1
  H  H21  1  0.83081000  0.57790000  0.29442000  1
  H  H22  1  0.73473000  0.75483000  0.20635000  1
  H  H23  1  0.72399000  0.97096000  0.26043000  1
  H  H24  1  0.79756000  0.00879000  0.40619000  1
  H  H25  1  0.88005000  0.83062000  0.49817000  1
  H  H26  1  0.72251000  0.65646000  0.81785000  1
  H  H27  1  0.81281000  0.68793000  0.91280000  1
  H  H28  1  0.89419000  0.60770000  0.82843000  1
  H  H29  1  0.84058000  0.44716000  0.93766000  1
  H  H30  1  0.74009000  0.42331000  0.85053000  1
  H  H31  1  0.16890000  0.35111000  0.05802000  1
  H  H32  1  0.26142000  0.34309000  0.15587000  1
  H  H33  1  0.09687000  0.41343000  0.15213000  1
  H  H34  1  0.27030000  0.57955000  0.15439000  1
  H  H35  1  0.17844000  0.59400000  0.06162000  1
  H  H36  1  0.79490000  0.67958000  0.07639000  1
  H  H37  1  0.91543000  0.59532000  0.14230000  1
  H  H38  1  0.92353000  0.58348000  0.03075000  1
  H  H39  1  0.74372000  0.45319000  0.16007000  1
  H  H40  1  0.81363000  0.38883000  0.07079000  1
  H  H41  1  0.21641000  0.73383000  0.93689000  1
  H  H42  1  0.30690000  0.71306000  0.83950000  1
  H  H43  1  0.12938000  0.68421000  0.84445000  1
  H  H44  1  0.25167000  0.48017000  0.84918000  1
  H  H45  1  0.16215000  0.49830000  0.94206000  1
  C  C46  1  0.49950000  0.87167000  0.50029000  1
  C  C47  1  0.49998000  0.12830000  0.50014000  1
  C  C48  1  0.50005000  0.26072000  0.50024000  1
  C  C49  1  0.49987000  0.73927000  0.50004000  1
  C  C50  1  0.49983000  0.49986000  0.66021000  1
  C  C51  1  0.50039000  0.50036000  0.33969000  1
  C  C52  1  0.62945000  0.49445000  0.04315000  1
  C  C53  1  0.38047000  0.52152000  0.95575000  1
  C  C54  1  0.62753000  0.49922000  0.95401000  1
  C  C55  1  0.38216000  0.51991000  0.04449000  1
  C  C56  1  0.50617000  0.50544000  0.08677000  1
  C  C57  1  0.50298000  0.51075000  0.91220000  1
  C  C58  1  0.50535000  0.50276000  0.17642000  1
  C  C59  1  0.50058000  0.50716000  0.82285000  1
  C  C60  1  0.49961000  0.50340000  0.74825000  1
  C  C61  1  0.50238000  0.50132000  0.25131000  1
  C  C62  1  0.07168000  0.59030000  0.45386000  1
  C  C63  1  0.92831000  0.40993000  0.54631000  1
  C  C64  1  0.07178000  0.41080000  0.54706000  1
  C  C65  1  0.92819000  0.59019000  0.45382000  1
  C  C66  1  0.50117000  0.06015000  0.57718000  1
  C  C67  1  0.49700000  0.93984000  0.42329000  1
  C  C68  1  0.50130000  0.92981000  0.57735000  1
  C  C69  1  0.49754000  0.07015000  0.42310000  1
  C  C70  1  0.14154000  0.69267000  0.40491000  1
  C  C71  1  0.15511000  0.81228000  0.43976000  1
  C  C72  1  0.19153000  0.91787000  0.38878000  1
  C  C73  1  0.21733000  0.90474000  0.30306000  1
  C  C74  1  0.20527000  0.78612000  0.26801000  1
  C  C75  1  0.16617000  0.68039000  0.31846000  1
  C  C76  1  0.85824000  0.30758000  0.59509000  1
  C  C77  1  0.82758000  0.32168000  0.68060000  1
  C  C78  1  0.78514000  0.21694000  0.73086000  1
  C  C79  1  0.77635000  0.09744000  0.69671000  1
  C  C80  1  0.80837000  0.08251000  0.61200000  1
  C  C81  1  0.84811000  0.18713000  0.56114000  1
  C  C82  1  0.14230000  0.31477000  0.60117000  1
  C  C83  1  0.15739000  0.19067000  0.57381000  1
  C  C84  1  0.19991000  0.09323000  0.62992000  1
  C  C85  1  0.23070000  0.11944000  0.71324000  1
  C  C86  1  0.21637000  0.24272000  0.74096000  1
  C  C87  1  0.17004000  0.33974000  0.68556000  1
  C  C88  1  0.85731000  0.69068000  0.40376000  1
  C  C89  1  0.81943000  0.67068000  0.32030000  1
  C  C90  1  0.76807000  0.77099000  0.26965000  1
  C  C91  1  0.76165000  0.89303000  0.30023000  1
  C  C92  1  0.80261000  0.91429000  0.38252000  1
  C  C93  1  0.84799000  0.81322000  0.43461000  1
  C  C94  1  0.75582000  0.48938000  0.90183000  1
  C  C95  1  0.79848000  0.61838000  0.86311000  1
  C  C96  1  0.25243000  0.53171000  0.09485000  1
  C  C97  1  0.19136000  0.40166000  0.11627000  1
  C  C98  1  0.76090000  0.47462000  0.09193000  1
  C  C99  1  0.85338000  0.59038000  0.08455000  1
  C  C100  1  0.24959000  0.53667000  0.90646000  1
  C  C101  1  0.22432000  0.67563000  0.88038000  1
  N  N102  1  0.85720000  0.50000000  0.50000000  1
  N  N103  1  0.14280000  0.50000000  0.50000000  1
  O  O104  1  0.61462000  0.31677000  0.50001000  1
  O  O105  1  0.38538000  0.68323000  0.49999000  1
  O  O106  1  0.61462000  0.68323000  0.49999000  1
  O  O107  1  0.38538000  0.31677000  0.50001000  1
  O  O108  1  0.61463000  0.49998000  0.62198000  1
  O  O109  1  0.38537000  0.50002000  0.37802000  1
  O  O110  1  0.61463000  0.50002000  0.37802000  1
  O  O111  1  0.38537000  0.49998000  0.62198000  1
