# generated using pymatgen
data_Cu2H25C31N5O12
_symmetry_space_group_name_H-M   'P 1'
_cell_length_a   9.60343000
_cell_length_b   10.74556000
_cell_length_c   10.82034000
_cell_angle_alpha   88.41150000
_cell_angle_beta   89.84345000
_cell_angle_gamma   89.79619000
_symmetry_Int_Tables_number   1
_chemical_formula_structural   Cu2H25C31N5O12
_chemical_formula_sum   'Cu2 H25 C31 N5 O12'
_cell_volume   1116.15664524
_cell_formula_units_Z   1
loop_
 _symmetry_equiv_pos_site_id
 _symmetry_equiv_pos_as_xyz
  1  'x, y, z'
loop_
 _atom_site_type_symbol
 _atom_site_label
 _atom_site_symmetry_multiplicity
 _atom_site_fract_x
 _atom_site_fract_y
 _atom_site_fract_z
 _atom_site_occupancy
  Cu  Cu0  1  0.35934000  0.50001000  0.49999000  1
  Cu  Cu1  1  0.64066000  0.49999000  0.50001000  1
  H  H2  1  0.46137000  0.90587000  0.30763000  1
  H  H3  1  0.65955000  0.10705000  0.36321000  1
  H  H4  1  0.48490000  0.11580000  0.30295000  1
  H  H5  1  0.27431000  0.89455000  0.46426000  1
  H  H6  1  0.27749000  0.10481000  0.45648000  1
  H  H7  1  0.56287000  0.88709000  0.69849000  1
  H  H8  1  0.70593000  0.89036000  0.59276000  1
  H  H9  1  0.70542000  0.10220000  0.59193000  1
  H  H10  1  0.56267000  0.10028000  0.69935000  1
  H  H11  1  0.31593000  0.89248000  0.62553000  1
  H  H12  1  0.31075000  0.10369000  0.61996000  1
  H  H13  1  0.34020000  0.69910000  0.22359000  1
  H  H14  1  0.19017000  0.84388000  0.87626000  1
  H  H15  1  0.33247000  0.69884000  0.76729000  1
  H  H16  1  0.66239000  0.37910000  0.88544000  1
  H  H17  1  0.87088000  0.63948000  0.36100000  1
  H  H18  1  0.74683000  0.32737000  0.67057000  1
  H  H19  1  0.87219000  0.19305000  0.80526000  1
  H  H20  1  0.12791000  0.19360000  0.80603000  1
  H  H21  1  0.25343000  0.32848000  0.67206000  1
  H  H22  1  0.12896000  0.63918000  0.36103000  1
  H  H23  1  0.76228000  0.90545000  0.38436000  1
  H  H24  1  0.80019000  0.83295000  0.18188000  1
  H  H25  1  0.70788000  0.97938000  0.16575000  1
  H  H26  1  0.61556000  0.83283000  0.15403000  1
  C  C27  1  0.50043000  0.50482000  0.26237000  1
  C  C28  1  0.49965000  0.73973000  0.50277000  1
  C  C29  1  0.49978000  0.50664000  0.73671000  1
  C  C30  1  0.49994000  0.25982000  0.50303000  1
  C  C31  1  0.54399000  0.93149000  0.37453000  1
  C  C32  1  0.55069000  0.07514000  0.37847000  1
  C  C33  1  0.35083000  0.92763000  0.53281000  1
  C  C34  1  0.59776000  0.92449000  0.60657000  1
  C  C35  1  0.49933000  0.87761000  0.50395000  1
  C  C36  1  0.49933000  0.12143000  0.50488000  1
  C  C37  1  0.35024000  0.07044000  0.52988000  1
  C  C38  1  0.59730000  0.06816000  0.60725000  1
  C  C39  1  0.33536000  0.69180000  0.12446000  1
  C  C40  1  0.25191000  0.77836000  0.05873000  1
  C  C41  1  0.25153000  0.77700000  0.92957000  1
  C  C42  1  0.33244000  0.69140000  0.86700000  1
  C  C43  1  0.41430000  0.60204000  0.93197000  1
  C  C44  1  0.41557000  0.60136000  0.06274000  1
  C  C45  1  0.50251000  0.51420000  0.12761000  1
  C  C46  1  0.59721000  0.43928000  0.06207000  1
  C  C47  1  0.59394000  0.44128000  0.93456000  1
  C  C48  1  0.50032000  0.51697000  0.86976000  1
  C  C49  1  0.85635000  0.33576000  0.66312000  1
  C  C50  1  0.92840000  0.25582000  0.74314000  1
  C  C51  1  0.07176000  0.25616000  0.74359000  1
  C  C52  1  0.14386000  0.33639000  0.66394000  1
  C  C53  1  0.07482000  0.41957000  0.58049000  1
  C  C54  1  0.92532000  0.41942000  0.58025000  1
  C  C55  1  0.92604000  0.57663000  0.42366000  1
  C  C56  1  0.07389000  0.57652000  0.42367000  1
  C  C57  1  0.70083000  0.88177000  0.20187000  1
  N  N58  1  0.85209000  0.49880000  0.50121000  1
  N  N59  1  0.14796000  0.49875000  0.50129000  1
  N  N60  1  0.69584000  0.35798000  0.12289000  1
  N  N61  1  0.16954000  0.86866000  0.12277000  1
  N  N62  1  0.67659000  0.87966000  0.33397000  1
  O  O63  1  0.38119000  0.50001000  0.31964000  1
  O  O64  1  0.61876000  0.50000000  0.31966000  1
  O  O65  1  0.38121000  0.68232000  0.49997000  1
  O  O66  1  0.61879000  0.68230000  0.49999000  1
  O  O67  1  0.38124000  0.50000000  0.68034000  1
  O  O68  1  0.61881000  0.49999000  0.68036000  1
  O  O69  1  0.38121000  0.31770000  0.50001000  1
  O  O70  1  0.61879000  0.31768000  0.50003000  1
  O  O71  1  0.82168000  0.34793000  0.07924000  1
  O  O72  1  0.65411000  0.27867000  0.20749000  1
  O  O73  1  0.16605000  0.86847000  0.24298000  1
  O  O74  1  0.09532000  0.95087000  0.06139000  1
