# generated using pymatgen
data_H11C20N4O5
_symmetry_space_group_name_H-M   'P 1'
_cell_length_a   28.57860000
_cell_length_b   38.83870000
_cell_length_c   38.83870000
_cell_angle_alpha   90.00000000
_cell_angle_beta   90.00000000
_cell_angle_gamma   90.00000000
_symmetry_Int_Tables_number   1
_chemical_formula_structural   H11C20N4O5
_chemical_formula_sum   'H176 C320 N64 O80'
_cell_volume   43109.23535112
_cell_formula_units_Z   16
loop_
 _symmetry_equiv_pos_site_id
 _symmetry_equiv_pos_as_xyz
  1  'x, y, z'
loop_
 _atom_site_type_symbol
 _atom_site_label
 _atom_site_symmetry_multiplicity
 _atom_site_fract_x
 _atom_site_fract_y
 _atom_site_fract_z
 _atom_site_occupancy
  H  7  1  0.01121900  0.96844000  0.28090200  1
  H  8  1  0.13144400  0.93005800  0.32891900  1
  H  15  1  0.86260100  0.05705600  0.32723800  1
  H  16  1  0.95329100  0.98848400  0.37685600  1
  H  19  1  0.06454200  0.01787300  0.39735800  1
  H  20  1  0.98700500  0.02433900  0.25525500  1
  H  22  1  0.83933500  0.02326100  0.37547300  1
  H  24  1  0.88223400  0.05904900  0.26188500  1
  H  26  1  0.11020200  0.91085300  0.27544400  1
  H  28  1  0.14069800  0.94011300  0.39026000  1
  H  35  1  0.51118700  0.03004100  0.71755100  1
  H  36  1  0.63134700  0.06852400  0.66953000  1
  H  43  1  0.36257900  0.94148800  0.67114700  1
  H  44  1  0.45343800  0.01001100  0.62160600  1
  H  47  1  0.56487100  0.98032000  0.60137900  1
  H  48  1  0.48698000  0.97413500  0.74319100  1
  H  50  1  0.33942400  0.97531500  0.62285700  1
  H  52  1  0.38220600  0.93943300  0.73653500  1
  H  54  1  0.61015300  0.08765700  0.72304300  1
  H  56  1  0.64057100  0.05846400  0.60817900  1
  H  63  1  0.26119300  0.71755900  0.96844800  1
  H  64  1  0.38138000  0.66956100  0.92999400  1
  H  71  1  0.11259100  0.67118500  0.05702700  1
  H  72  1  0.20342100  0.62158000  0.98853600  1
  H  75  1  0.31493100  0.60136600  0.01811800  1
  H  76  1  0.23695800  0.74321900  0.02433900  1
  H  78  1  0.08942600  0.62288300  0.02323900  1
  H  80  1  0.13218600  0.73655600  0.05906200  1
  H  82  1  0.36015100  0.72304600  0.91083300  1
  H  84  1  0.39062800  0.60821500  0.94004300  1
  H  91  1  0.76119300  0.28092300  0.03008700  1
  H  92  1  0.88139800  0.32894500  0.06850800  1
  H  99  1  0.61263400  0.32729900  0.94142300  1
  H  100  1  0.70337000  0.37691200  0.00997700  1
  H  103  1  0.81472600  0.39727300  0.98056700  1
  H  104  1  0.73698900  0.25527500  0.97418400  1
  H  106  1  0.58942800  0.37558100  0.97514000  1
  H  108  1  0.63220400  0.26193200  0.93945900  1
  H  110  1  0.86020700  0.27543600  0.08765300  1
  H  112  1  0.89068800  0.39028300  0.05840700  1
  H  119  1  0.84270800  0.16980200  0.06336700  1
  H  124  1  0.82743500  0.24946200  0.13637900  1
  H  129  1  0.91838700  0.07102400  0.19638800  1
  H  130  1  0.90864200  0.16058100  0.25730400  1
  H  132  1  0.87685600  0.05499300  0.12082800  1
  H  134  1  0.83837600  0.10155600  0.07234500  1
  H  145  1  0.34268500  0.82868000  0.93513300  1
  H  150  1  0.32742200  0.74904300  0.86209500  1
  H  155  1  0.41843600  0.92750200  0.80216500  1
  H  156  1  0.40866600  0.83797800  0.74120600  1
  H  158  1  0.37687000  0.94349600  0.87773900  1
  H  160  1  0.33833300  0.89692100  0.92616500  1
  H  171  1  0.09269100  0.93512000  0.16980900  1
  H  176  1  0.07745600  0.86211100  0.24947500  1
  H  181  1  0.16836700  0.80209800  0.07101700  1
  H  182  1  0.15865000  0.74118200  0.16057300  1
  H  184  1  0.12687000  0.87773200  0.05501400  1
  H  186  1  0.08833600  0.92613200  0.10157100  1
  H  197  1  0.59267100  0.06336500  0.82866700  1
  H  202  1  0.57741500  0.13640100  0.74903000  1
  H  207  1  0.66839900  0.19634800  0.92748900  1
  H  208  1  0.65864400  0.25730200  0.83796000  1
  H  210  1  0.62684400  0.12083700  0.94349300  1
  H  212  1  0.58836700  0.07233900  0.89692400  1
  H  223  1  0.61966700  0.95198700  0.51033800  1
  H  228  1  0.69430300  0.00733400  0.58594800  1
  H  233  1  0.80215300  0.97806400  0.40429000  1
  H  234  1  0.86650600  0.03419900  0.48409400  1
  H  236  1  0.72491000  0.92648700  0.40659100  1
  H  238  1  0.62231200  0.95572300  0.44349000  1
  H  249  1  0.11737600  0.04294700  0.48948000  1
  H  254  1  0.19510200  0.99251600  0.41212200  1
  H  259  1  0.30197700  0.02026800  0.59431400  1
  H  260  1  0.36730000  0.96541200  0.51403000  1
  H  262  1  0.22237400  0.07003000  0.59299800  1
  H  264  1  0.14304100  0.07599100  0.54371200  1
  H  275  1  0.86755200  0.48938500  0.95515700  1
  H  280  1  0.94503700  0.41228900  0.00617000  1
  H  285  1  0.05216000  0.59431100  0.97814200  1
  H  286  1  0.11702400  0.51411000  0.03341100  1
  H  288  1  0.97364200  0.59294100  0.92814500  1
  H  290  1  0.89140200  0.54249700  0.92288200  1
  H  301  1  0.36942400  0.51016100  0.04626100  1
  H  306  1  0.44447300  0.58589200  0.99140200  1
  H  311  1  0.55218600  0.40421200  0.02032400  1
  H  312  1  0.61667900  0.48427900  0.96464200  1
  H  314  1  0.47598600  0.40620000  0.07142700  1
  H  316  1  0.37067600  0.44563700  0.04325000  1
  H  327  1  0.08120140  0.99418800  0.69286200  1
  H  328  1  0.20142600  0.95580600  0.74087900  1
  H  335  1  0.93258300  0.08280350  0.73919800  1
  H  336  1  0.02327340  0.01423150  0.78881600  1
  H  339  1  0.13452400  0.04362050  0.80931800  1
  H  340  1  0.05698740  0.05008650  0.66721500  1
  H  342  1  0.90931700  0.04900850  0.78743300  1
  H  344  1  0.95221600  0.08479650  0.67384500  1
  H  346  1  0.18018400  0.93660100  0.68740400  1
  H  348  1  0.21068000  0.96586100  0.80222000  1
  H  355  1  0.58116900  0.05578850  0.12951100  1
  H  356  1  0.70132900  0.09427150  0.08149020  1
  H  363  1  0.43256100  0.96723600  0.08310720  1
  H  364  1  0.52342000  0.03575850  0.03356620  1
  H  367  1  0.63485300  0.00606751  0.01333920  1
  H  368  1  0.55696200  0.99988300  0.15515100  1
  H  370  1  0.40940600  0.00106251  0.03481720  1
  H  372  1  0.45218800  0.96518100  0.14849500  1
  H  374  1  0.68013500  0.11340500  0.13500300  1
  H  376  1  0.71055300  0.08421150  0.02013920  1
  H  383  1  0.33117500  0.74330700  0.38040800  1
  H  384  1  0.45136200  0.69530900  0.34195400  1
  H  391  1  0.18257300  0.69693300  0.46898700  1
  H  392  1  0.27340300  0.64732800  0.40049600  1
  H  395  1  0.38491300  0.62711400  0.43007800  1
  H  396  1  0.30694000  0.76896700  0.43629900  1
  H  398  1  0.15940800  0.64863100  0.43519900  1
  H  400  1  0.20216800  0.76230400  0.47102200  1
  H  402  1  0.43013300  0.74879400  0.32279300  1
  H  404  1  0.46061000  0.63396300  0.35200300  1
  H  411  1  0.83117500  0.30667100  0.44204700  1
  H  412  1  0.95138000  0.35469300  0.48046800  1
  H  419  1  0.68261600  0.35304700  0.35338300  1
  H  420  1  0.77335200  0.40266000  0.42193700  1
  H  423  1  0.88470800  0.42302100  0.39252700  1
  H  424  1  0.80697100  0.28102300  0.38614400  1
  H  426  1  0.65941000  0.40132900  0.38710000  1
  H  428  1  0.70218600  0.28768000  0.35141900  1
  H  430  1  0.93018900  0.30118400  0.49961300  1
  H  432  1  0.96067000  0.41603100  0.47036700  1
  H  439  1  0.91269000  0.19555000  0.47532700  1
  H  444  1  0.89741700  0.27521000  0.54833900  1
  H  449  1  0.98836900  0.09677150  0.60834800  1
  H  450  1  0.97862400  0.18632900  0.66926400  1
  H  452  1  0.94683800  0.08074050  0.53278800  1
  H  454  1  0.90835800  0.12730400  0.48430500  1
  H  465  1  0.41266700  0.85442800  0.34709300  1
  H  470  1  0.39740400  0.77479100  0.27405500  1
  H  475  1  0.48841800  0.95325000  0.21412500  1
  H  476  1  0.47864800  0.86372600  0.15316600  1
  H  478  1  0.44685200  0.96924400  0.28969900  1
  H  480  1  0.40831500  0.92266900  0.33812500  1
  H  491  1  0.16267300  0.96086800  0.58176900  1
  H  496  1  0.14743800  0.88785900  0.66143500  1
  H  501  1  0.23834900  0.82784600  0.48297700  1
  H  502  1  0.22863200  0.76693000  0.57253300  1
  H  504  1  0.19685200  0.90348000  0.46697400  1
  H  506  1  0.15831800  0.95188000  0.51353100  1
  H  517  1  0.66265300  0.08911250  0.24062700  1
  H  522  1  0.64739700  0.16214900  0.16099000  1
  H  527  1  0.73838100  0.22209600  0.33944900  1
  H  528  1  0.72862600  0.28305000  0.24992000  1
  H  530  1  0.69682600  0.14658500  0.35545300  1
  H  532  1  0.65834900  0.09808650  0.30888400  1
  H  543  1  0.68964900  0.97773500  0.92229800  1
  H  548  1  0.76428500  0.03308150  0.99790800  1
  H  553  1  0.87213500  0.00381151  0.81625000  1
  H  554  1  0.93648800  0.05994650  0.89605400  1
  H  556  1  0.79489200  0.95223500  0.81855100  1
  H  558  1  0.69229400  0.98147100  0.85545000  1
  H  569  1  0.18735800  0.06869450  0.90144000  1
  H  574  1  0.26508400  0.01826350  0.82408200  1
  H  579  1  0.37195900  0.04601550  0.00627424  1
  H  580  1  0.43728200  0.99116000  0.92599000  1
  H  582  1  0.29235600  0.09577750  0.00495824  1
  H  584  1  0.21302300  0.10173900  0.95567200  1
  H  595  1  0.93753400  0.51513300  0.36711700  1
  H  600  1  0.01501940  0.43803700  0.41813000  1
  H  605  1  0.12214200  0.62005900  0.39010200  1
  H  606  1  0.18700600  0.53985800  0.44537100  1
  H  608  1  0.04362440  0.61868900  0.34010500  1
  H  610  1  0.96138400  0.56824500  0.33484200  1
  H  621  1  0.43940600  0.53590900  0.45822100  1
  H  626  1  0.51445500  0.61164000  0.40336200  1
  H  631  1  0.62216800  0.42996000  0.43228400  1
  H  632  1  0.68666100  0.51002700  0.37660200  1
  H  634  1  0.54596800  0.43194800  0.48338700  1
  H  636  1  0.44065800  0.47138500  0.45521000  1
  C  1  1  0.02212000  0.98807800  0.33082200  1
  C  2  1  0.03417700  0.96893200  0.30098300  1
  C  3  1  0.07532500  0.94884600  0.29876100  1
  C  4  1  0.10270600  0.94581600  0.32892700  1
  C  5  1  0.08986800  0.96199800  0.35989300  1
  C  6  1  0.05074000  0.98423100  0.36055000  1
  C  9  1  0.98054200  0.00887300  0.33057200  1
  C  10  1  0.96921900  0.03056000  0.30222100  1
  C  11  1  0.92579800  0.04813900  0.30095500  1
  C  12  1  0.89414200  0.04458300  0.32849700  1
  C  13  1  0.90503100  0.02458400  0.35778400  1
  C  14  1  0.94757000  0.00600800  0.35767600  1
  C  29  1  0.52217800  0.01035700  0.66765300  1
  C  30  1  0.53418000  0.02952900  0.69749200  1
  C  31  1  0.57523200  0.04972500  0.69967500  1
  C  32  1  0.60261900  0.05275700  0.66951400  1
  C  33  1  0.58985800  0.03649500  0.63857400  1
  C  34  1  0.55081800  0.01418400  0.63793000  1
  C  37  1  0.48058000  0.98958600  0.66789000  1
  C  38  1  0.46921500  0.96789400  0.69622700  1
  C  39  1  0.42576600  0.95034200  0.69747400  1
  C  40  1  0.39413400  0.95394400  0.66991600  1
  C  41  1  0.40507600  0.97394700  0.64063600  1
  C  42  1  0.44762900  0.99250400  0.64078800  1
  C  57  1  0.27216000  0.66764800  0.98811100  1
  C  58  1  0.28416200  0.69748400  0.96893400  1
  C  59  1  0.32528900  0.69971600  0.94882600  1
  C  60  1  0.35266600  0.66955000  0.94577200  1
  C  61  1  0.33987800  0.63859200  0.96199300  1
  C  62  1  0.30082100  0.63793200  0.98428800  1
  C  65  1  0.23058600  0.66788700  0.00891000  1
  C  66  1  0.21921100  0.69624500  0.03057400  1
  C  67  1  0.17577600  0.69749900  0.04813900  1
  C  68  1  0.14414500  0.66993700  0.04457100  1
  C  69  1  0.15509000  0.64064100  0.02459600  1
  C  70  1  0.19764900  0.64076500  0.00604400  1
  C  85  1  0.77212700  0.33083500  0.01043000  1
  C  86  1  0.78417100  0.30099100  0.02957500  1
  C  87  1  0.82525100  0.29880700  0.04974400  1
  C  88  1  0.85264200  0.32896500  0.05276800  1
  C  89  1  0.83985300  0.35991400  0.03653500  1
  C  90  1  0.80075700  0.36056000  0.01427100  1
  C  93  1  0.73054700  0.33059000  0.98963800  1
  C  94  1  0.71921400  0.30223900  0.96795100  1
  C  95  1  0.67578900  0.30098000  0.95036800  1
  C  96  1  0.64416800  0.32854600  0.95390600  1
  C  97  1  0.65509200  0.35784600  0.97388000  1
  C  98  1  0.69759900  0.35771000  0.99248800  1
  C  113  1  0.83354400  0.21366900  0.09486400  1
  C  114  1  0.83609500  0.22489300  0.12944000  1
  C  116  1  0.86324100  0.17027200  0.14848800  1
  C  117  1  0.85936800  0.15639600  0.11480900  1
  C  118  1  0.84426200  0.17870700  0.08813800  1
  C  120  1  0.88048500  0.15019000  0.17579800  1
  C  121  1  0.90482100  0.14773000  0.23449900  1
  C  122  1  0.91614400  0.11256200  0.23146000  1
  C  123  1  0.90949900  0.09640900  0.19915400  1
  C  126  1  0.89259900  0.11515400  0.17042200  1
  C  127  1  0.88796200  0.10083900  0.13698600  1
  C  128  1  0.87195000  0.12152700  0.10927400  1
  C  135  1  0.93381500  0.09439600  0.26017100  1
  C  136  1  0.82171700  0.23747400  0.06832700  1
  C  139  1  0.33349600  0.78482700  0.90362100  1
  C  140  1  0.33607300  0.77361100  0.86904400  1
  C  142  1  0.36324100  0.82823700  0.85001400  1
  C  143  1  0.35934600  0.84210200  0.88369700  1
  C  144  1  0.34418300  0.81979500  0.91035400  1
  C  146  1  0.38051200  0.84832800  0.82272000  1
  C  147  1  0.40489800  0.85080800  0.76402600  1
  C  148  1  0.41620700  0.88597900  0.76707700  1
  C  149  1  0.40956600  0.90211200  0.79939000  1
  C  152  1  0.39263700  0.88336000  0.82811100  1
  C  153  1  0.38799300  0.89765800  0.86154900  1
  C  154  1  0.37195700  0.87696400  0.88925100  1
  C  161  1  0.43390500  0.90417200  0.73838600  1
  C  162  1  0.32164200  0.76100800  0.93014600  1
  C  165  1  0.08352100  0.90362100  0.21367300  1
  C  166  1  0.08607800  0.86904400  0.22489800  1
  C  168  1  0.11325400  0.85000200  0.17028000  1
  C  169  1  0.10936800  0.88367900  0.15640400  1
  C  170  1  0.09422200  0.91034300  0.17870700  1
  C  172  1  0.13050900  0.82269400  0.15019700  1
  C  173  1  0.15484700  0.76399200  0.14772900  1
  C  174  1  0.16613700  0.76702500  0.11255400  1
  C  175  1  0.15951000  0.79933800  0.09641000  1
  C  178  1  0.14260900  0.82807000  0.11515800  1
  C  179  1  0.13797200  0.86150600  0.10084700  1
  C  180  1  0.12194800  0.88921500  0.12153500  1
  C  187  1  0.18379700  0.73830900  0.09438500  1
  C  188  1  0.07167500  0.93015100  0.23748100  1
  C  191  1  0.58351100  0.09487500  0.78480900  1
  C  192  1  0.58607500  0.12945400  0.77359600  1
  C  194  1  0.61326000  0.14848100  0.82821900  1
  C  195  1  0.60937600  0.11479900  0.84208400  1
  C  196  1  0.59421400  0.08814100  0.81977400  1
  C  198  1  0.63052500  0.17578200  0.84830700  1
  C  199  1  0.65486500  0.23448300  0.85079200  1
  C  200  1  0.66617400  0.23143600  0.88596300  1
  C  201  1  0.65956400  0.19911500  0.90209400  1
  C  204  1  0.64263900  0.17039300  0.88334200  1
  C  205  1  0.63799900  0.13695400  0.89764500  1
  C  206  1  0.62196900  0.10925300  0.87694900  1
  C  213  1  0.68383000  0.26014000  0.90414900  1
  C  214  1  0.57161700  0.06835600  0.76099500  1
  C  217  1  0.65037900  0.97917400  0.55167100  1
  C  218  1  0.69031800  0.99811700  0.56145700  1
  C  220  1  0.72472100  0.99101500  0.50578100  1
  C  221  1  0.68518500  0.97194700  0.49430300  1
  C  222  1  0.64807300  0.96630000  0.51776400  1
  C  224  1  0.76323600  0.99631700  0.48364100  1
  C  225  1  0.83955500  0.01998900  0.47422200  1
  C  226  1  0.84057400  0.00794700  0.43990600  1
  C  227  1  0.80171900  0.98846600  0.42849200  1
  C  230  1  0.76245200  0.98262400  0.44975200  1
  C  231  1  0.72310500  0.96369200  0.43826600  1
  C  232  1  0.68438300  0.95876200  0.46030800  1
  C  239  1  0.87871400  0.01492700  0.41730700  1
  C  240  1  0.61806400  0.97129000  0.57409900  1
  C  243  1  0.14975200  0.01830200  0.44726000  1
  C  244  1  0.19065100  0.00083400  0.43689600  1
  C  246  1  0.22482800  0.00748100  0.49270100  1
  C  247  1  0.18419600  0.02484900  0.50479700  1
  C  248  1  0.14654400  0.02973200  0.48164000  1
  C  250  1  0.26359800  0.00261100  0.51469500  1
  C  251  1  0.34020600  0.97941600  0.52397900  1
  C  252  1  0.34093800  0.99105900  0.55844500  1
  C  253  1  0.30186000  0.01023600  0.56995400  1
  C  256  1  0.26243600  0.01578700  0.54877900  1
  C  257  1  0.22219700  0.03334000  0.56076700  1
  C  258  1  0.18295600  0.03734100  0.53904200  1
  C  265  1  0.37894100  0.98387300  0.58111600  1
  C  266  1  0.11749900  0.02647500  0.42491100  1
  C  269  1  0.89982800  0.44729000  0.98006200  1
  C  270  1  0.94060000  0.43702500  0.99774300  1
  C  272  1  0.97483900  0.49277300  0.99085800  1
  C  273  1  0.93431500  0.50481500  0.97330900  1
  C  274  1  0.89669300  0.48161400  0.96844000  1
  C  276  1  0.01358600  0.51475700  0.99581200  1
  C  277  1  0.09001600  0.52405100  0.01931300  1
  C  278  1  0.09088700  0.55847300  0.00755700  1
  C  279  1  0.05194300  0.56997200  0.98822200  1
  C  282  1  0.01254400  0.54880200  0.98254700  1
  C  283  1  0.97241700  0.56075400  0.96482800  1
  C  284  1  0.93316800  0.53904700  0.96072900  1
  C  291  1  0.12890600  0.58111300  0.01477000  1
  C  292  1  0.86764300  0.42487200  0.97193400  1
  C  295  1  0.40034900  0.55153900  0.01930600  1
  C  296  1  0.44037200  0.56135900  0.00048200  1
  C  298  1  0.47459700  0.50561400  0.00744100  1
  C  299  1  0.43493800  0.49404800  0.02632600  1
  C  300  1  0.39788200  0.51756300  0.03200100  1
  C  302  1  0.51318200  0.48354500  0.00218400  1
  C  303  1  0.58966900  0.47432000  0.97872600  1
  C  304  1  0.59068000  0.43996000  0.99064700  1
  C  305  1  0.55176300  0.42844800  0.01000200  1
  C  308  1  0.51237300  0.44961000  0.01573800  1
  C  309  1  0.47288600  0.43800300  0.03443900  1
  C  310  1  0.43405900  0.45995600  0.03933800  1
  C  317  1  0.62882400  0.41738000  0.98361600  1
  C  318  1  0.36806200  0.57399900  0.02715600  1
  C  321  1  0.09210240  0.01382550  0.74278200  1
  C  322  1  0.10415900  0.99468000  0.71294300  1
  C  323  1  0.14530700  0.97459400  0.71072100  1
  C  324  1  0.17268800  0.97156400  0.74088700  1
  C  325  1  0.15985000  0.98774600  0.77185300  1
  C  326  1  0.12072200  0.00997851  0.77251000  1
  C  329  1  0.05052440  0.03462050  0.74253200  1
  C  330  1  0.03920140  0.05630750  0.71418100  1
  C  331  1  0.99578000  0.07388650  0.71291500  1
  C  332  1  0.96412400  0.07033050  0.74045700  1
  C  333  1  0.97501300  0.05033150  0.76974400  1
  C  334  1  0.01755240  0.03175550  0.76963600  1
  C  349  1  0.59216000  0.03610450  0.07961320  1
  C  350  1  0.60416200  0.05527650  0.10945200  1
  C  351  1  0.64521400  0.07547250  0.11163500  1
  C  352  1  0.67260100  0.07850450  0.08147420  1
  C  353  1  0.65984000  0.06224250  0.05053420  1
  C  354  1  0.62080000  0.03993150  0.04989020  1
  C  357  1  0.55056200  0.01533350  0.07985020  1
  C  358  1  0.53919700  0.99364200  0.10818700  1
  C  359  1  0.49574800  0.97609000  0.10943400  1
  C  360  1  0.46411600  0.97969200  0.08187620  1
  C  361  1  0.47505800  0.99969500  0.05259620  1
  C  362  1  0.51761100  0.01825150  0.05274820  1
  C  377  1  0.34214200  0.69339600  0.40007100  1
  C  378  1  0.35414400  0.72323200  0.38089400  1
  C  379  1  0.39527100  0.72546400  0.36078600  1
  C  380  1  0.42264800  0.69529800  0.35773200  1
  C  381  1  0.40986000  0.66434000  0.37395300  1
  C  382  1  0.37080300  0.66368000  0.39624800  1
  C  385  1  0.30056800  0.69363500  0.42087000  1
  C  386  1  0.28919300  0.72199300  0.44253400  1
  C  387  1  0.24575800  0.72324700  0.46009900  1
  C  388  1  0.21412700  0.69568500  0.45653100  1
  C  389  1  0.22507200  0.66638900  0.43655600  1
  C  390  1  0.26763100  0.66651300  0.41800400  1
  C  405  1  0.84210900  0.35658300  0.42239000  1
  C  406  1  0.85415300  0.32673900  0.44153500  1
  C  407  1  0.89523300  0.32455500  0.46170400  1
  C  408  1  0.92262400  0.35471300  0.46472800  1
  C  409  1  0.90983500  0.38566200  0.44849500  1
  C  410  1  0.87073900  0.38630800  0.42623100  1
  C  413  1  0.80052900  0.35633800  0.40159800  1
  C  414  1  0.78919600  0.32798700  0.37991100  1
  C  415  1  0.74577100  0.32672800  0.36232800  1
  C  416  1  0.71415000  0.35429400  0.36586600  1
  C  417  1  0.72507400  0.38359400  0.38584000  1
  C  418  1  0.76758100  0.38345800  0.40444800  1
  C  433  1  0.90352600  0.23941700  0.50682400  1
  C  434  1  0.90607700  0.25064100  0.54140000  1
  C  436  1  0.93322300  0.19602000  0.56044800  1
  C  437  1  0.92935000  0.18214400  0.52676900  1
  C  438  1  0.91424400  0.20445500  0.50009800  1
  C  440  1  0.95046700  0.17593800  0.58775800  1
  C  441  1  0.97480300  0.17347800  0.64645900  1
  C  442  1  0.98612600  0.13831000  0.64342000  1
  C  443  1  0.97948100  0.12215700  0.61111400  1
  C  446  1  0.96258100  0.14090200  0.58238200  1
  C  447  1  0.95794400  0.12658700  0.54894600  1
  C  448  1  0.94193200  0.14727500  0.52123400  1
  C  455  1  0.00379743  0.12014400  0.67213100  1
  C  456  1  0.89169900  0.26322200  0.48028700  1
  C  459  1  0.40347800  0.81057500  0.31558100  1
  C  460  1  0.40605500  0.79935900  0.28100400  1
  C  462  1  0.43322300  0.85398500  0.26197400  1
  C  463  1  0.42932800  0.86785000  0.29565700  1
  C  464  1  0.41416500  0.84554300  0.32231400  1
  C  466  1  0.45049400  0.87407600  0.23468000  1
  C  467  1  0.47488000  0.87655600  0.17598600  1
  C  468  1  0.48618900  0.91172700  0.17903700  1
  C  469  1  0.47954800  0.92786000  0.21135000  1
  C  472  1  0.46261900  0.90910800  0.24007100  1
  C  473  1  0.45797500  0.92340600  0.27350900  1
  C  474  1  0.44193900  0.90271200  0.30121100  1
  C  481  1  0.50388700  0.92992000  0.15034600  1
  C  482  1  0.39162400  0.78675600  0.34210600  1
  C  485  1  0.15350300  0.92936900  0.62563300  1
  C  486  1  0.15606000  0.89479200  0.63685800  1
  C  488  1  0.18323600  0.87575000  0.58224000  1
  C  489  1  0.17935000  0.90942700  0.56836400  1
  C  490  1  0.16420400  0.93609100  0.59066700  1
  C  492  1  0.20049100  0.84844200  0.56215700  1
  C  493  1  0.22482900  0.78974000  0.55968900  1
  C  494  1  0.23611900  0.79277300  0.52451400  1
  C  495  1  0.22949200  0.82508600  0.50837000  1
  C  498  1  0.21259100  0.85381800  0.52711800  1
  C  499  1  0.20795400  0.88725400  0.51280700  1
  C  500  1  0.19193000  0.91496300  0.53349500  1
  C  507  1  0.25377900  0.76405700  0.50634500  1
  C  508  1  0.14165700  0.95589900  0.64944100  1
  C  511  1  0.65349300  0.12062300  0.19676900  1
  C  512  1  0.65605700  0.15520200  0.18555600  1
  C  514  1  0.68324200  0.17422900  0.24017900  1
  C  515  1  0.67935800  0.14054700  0.25404400  1
  C  516  1  0.66419600  0.11388900  0.23173400  1
  C  518  1  0.70050700  0.20153000  0.26026700  1
  C  519  1  0.72484700  0.26023100  0.26275200  1
  C  520  1  0.73615600  0.25718400  0.29792300  1
  C  521  1  0.72954600  0.22486300  0.31405400  1
  C  524  1  0.71262100  0.19614100  0.29530200  1
  C  525  1  0.70798100  0.16270200  0.30960500  1
  C  526  1  0.69195100  0.13500100  0.28890900  1
  C  533  1  0.75381200  0.28588800  0.31610900  1
  C  534  1  0.64159900  0.09410350  0.17295500  1
  C  537  1  0.72036100  0.00492151  0.96363100  1
  C  538  1  0.76030000  0.02386450  0.97341700  1
  C  540  1  0.79470300  0.01676250  0.91774100  1
  C  541  1  0.75516700  0.99769500  0.90626300  1
  C  542  1  0.71805500  0.99204800  0.92972400  1
  C  544  1  0.83321800  0.02206450  0.89560100  1
  C  545  1  0.90953700  0.04573650  0.88618200  1
  C  546  1  0.91055600  0.03369450  0.85186600  1
  C  547  1  0.87170100  0.01421350  0.84045200  1
  C  550  1  0.83243400  0.00837151  0.86171200  1
  C  551  1  0.79308700  0.98944000  0.85022600  1
  C  552  1  0.75436500  0.98451000  0.87226800  1
  C  559  1  0.94869600  0.04067450  0.82926700  1
  C  560  1  0.68804600  0.99703800  0.98605900  1
  C  563  1  0.21973400  0.04404950  0.85922000  1
  C  564  1  0.26063300  0.02658150  0.84885600  1
  C  566  1  0.29481000  0.03322850  0.90466100  1
  C  567  1  0.25417800  0.05059650  0.91675700  1
  C  568  1  0.21652600  0.05547950  0.89360000  1
  C  570  1  0.33358000  0.02835850  0.92665500  1
  C  571  1  0.41018800  0.00516351  0.93593900  1
  C  572  1  0.41092000  0.01680650  0.97040500  1
  C  573  1  0.37184200  0.03598350  0.98191400  1
  C  576  1  0.33241800  0.04153450  0.96073900  1
  C  577  1  0.29217900  0.05908750  0.97272700  1
  C  578  1  0.25293800  0.06308850  0.95100200  1
  C  585  1  0.44892300  0.00962051  0.99307600  1
  C  586  1  0.18748100  0.05222250  0.83687100  1
  C  589  1  0.96981000  0.47303800  0.39202200  1
  C  590  1  0.01058240  0.46277300  0.40970300  1
  C  592  1  0.04482140  0.51852100  0.40281800  1
  C  593  1  0.00429743  0.53056300  0.38526900  1
  C  594  1  0.96667500  0.50736200  0.38040000  1
  C  596  1  0.08356840  0.54050500  0.40777200  1
  C  597  1  0.15999800  0.54979900  0.43127300  1
  C  598  1  0.16086900  0.58422100  0.41951700  1
  C  599  1  0.12192500  0.59572000  0.40018200  1
  C  602  1  0.08252640  0.57455000  0.39450700  1
  C  603  1  0.04239940  0.58650200  0.37678800  1
  C  604  1  0.00315043  0.56479500  0.37268900  1
  C  611  1  0.19888800  0.60686100  0.42673000  1
  C  612  1  0.93762500  0.45062000  0.38389400  1
  C  615  1  0.47033100  0.57728700  0.43126600  1
  C  616  1  0.51035400  0.58710700  0.41244200  1
  C  618  1  0.54457900  0.53136200  0.41940100  1
  C  619  1  0.50492000  0.51979600  0.43828600  1
  C  620  1  0.46786400  0.54331100  0.44396100  1
  C  622  1  0.58316400  0.50929300  0.41414400  1
  C  623  1  0.65965100  0.50006800  0.39068600  1
  C  624  1  0.66066200  0.46570800  0.40260700  1
  C  625  1  0.62174500  0.45419600  0.42196200  1
  C  628  1  0.58235500  0.47535800  0.42769800  1
  C  629  1  0.54286800  0.46375100  0.44639900  1
  C  630  1  0.50404100  0.48570400  0.45129800  1
  C  637  1  0.69880600  0.44312800  0.39557600  1
  C  638  1  0.43804400  0.59974700  0.43911600  1
  N  21  1  0.87170900  0.02047400  0.38296800  1
  N  23  1  0.91201200  0.06576000  0.27224400  1
  N  25  1  0.08706600  0.92873700  0.27076600  1
  N  27  1  0.11390900  0.95553800  0.38909600  1
  N  49  1  0.37181300  0.97811300  0.61541400  1
  N  51  1  0.41196600  0.93268700  0.72616700  1
  N  53  1  0.58699600  0.06978400  0.72770600  1
  N  55  1  0.61386500  0.04295900  0.60935800  1
  N  77  1  0.12181500  0.61542100  0.02046100  1
  N  79  1  0.16197400  0.72620800  0.06576700  1
  N  81  1  0.33701700  0.72771900  0.92871900  1
  N  83  1  0.36389800  0.60938400  0.95552500  1
  N  105  1  0.62180500  0.38305800  0.97796400  1
  N  107  1  0.66200600  0.27225900  0.93275400  1
  N  109  1  0.83704700  0.27077300  0.06978300  1
  N  111  1  0.86392000  0.38911400  0.04296300  1
  N  115  1  0.85115200  0.20347700  0.15441300  1
  N  125  1  0.88714700  0.16487500  0.20716700  1
  N  141  1  0.35114800  0.79503300  0.84408000  1
  N  151  1  0.38718500  0.83365700  0.79134400  1
  N  167  1  0.10116300  0.84407700  0.20348600  1
  N  177  1  0.13717700  0.79132600  0.16487800  1
  N  193  1  0.60115700  0.15441700  0.79501800  1
  N  203  1  0.63718400  0.20715900  0.83363700  1
  N  219  1  0.72548100  0.00324000  0.53858300  1
  N  229  1  0.80158300  0.01411500  0.49437700  1
  N  245  1  0.22611900  0.99611300  0.45959800  1
  N  255  1  0.30226500  0.98529900  0.50379600  1
  N  271  1  0.97604900  0.45973900  0.00241900  1
  N  281  1  0.05210100  0.50387800  0.01332000  1
  N  297  1  0.47550700  0.53847000  0.99537700  1
  N  307  1  0.55162300  0.49440600  0.98457100  1
  N  341  1  0.94169100  0.04622150  0.79492800  1
  N  343  1  0.98199400  0.09150750  0.68420400  1
  N  345  1  0.15704800  0.95448500  0.68272600  1
  N  347  1  0.18389100  0.98128600  0.80105600  1
  N  369  1  0.44179500  0.00386051  0.02737420  1
  N  371  1  0.48194800  0.95843500  0.13812700  1
  N  373  1  0.65697800  0.09553150  0.13966600  1
  N  375  1  0.68384700  0.06870650  0.02131820  1
  N  397  1  0.19179700  0.64116900  0.43242100  1
  N  399  1  0.23195600  0.75195600  0.47772700  1
  N  401  1  0.40699900  0.75346700  0.34067900  1
  N  403  1  0.43388000  0.63513200  0.36748500  1
  N  425  1  0.69178700  0.40880600  0.38992400  1
  N  427  1  0.73198800  0.29800700  0.34471400  1
  N  429  1  0.90702900  0.29652100  0.48174300  1
  N  431  1  0.93390200  0.41486200  0.45492300  1
  N  435  1  0.92113400  0.22922500  0.56637300  1
  N  445  1  0.95712900  0.19062300  0.61912700  1
  N  461  1  0.42113000  0.82078100  0.25604000  1
  N  471  1  0.45716700  0.85940500  0.20330400  1
  N  487  1  0.17114500  0.86982500  0.61544600  1
  N  497  1  0.20715900  0.81707400  0.57683800  1
  N  513  1  0.67113900  0.18016500  0.20697800  1
  N  523  1  0.70716600  0.23290700  0.24559700  1
  N  539  1  0.79546300  0.02898750  0.95054300  1
  N  549  1  0.87156500  0.03986250  0.90633700  1
  N  565  1  0.29610100  0.02186050  0.87155800  1
  N  575  1  0.37224700  0.01104650  0.91575600  1
  N  591  1  0.04603140  0.48548700  0.41437900  1
  N  601  1  0.12208300  0.52962600  0.42528000  1
  N  617  1  0.54548900  0.56421800  0.40733700  1
  N  627  1  0.62160500  0.52015400  0.39653100  1
  O  17  1  0.03992900  0.00048700  0.39094200  1
  O  18  1  0.00049700  0.03504000  0.27597700  1
  O  45  1  0.54021600  0.99777400  0.60757100  1
  O  46  1  0.50047300  0.96341200  0.72248200  1
  O  73  1  0.29024100  0.60756800  0.00069700  1
  O  74  1  0.25046600  0.72250500  0.03504600  1
  O  101  1  0.79003600  0.39091900  0.99792100  1
  O  102  1  0.75048200  0.27599200  0.96347600  1
  O  131  1  0.90298400  0.06798800  0.13097000  1
  O  133  1  0.87113900  0.10772900  0.07702100  1
  O  137  1  0.96900600  0.10906400  0.27836600  1
  O  138  1  0.79861200  0.22529900  0.04044400  1
  O  157  1  0.40300100  0.93050900  0.86759200  1
  O  159  1  0.37110300  0.89075500  0.92150800  1
  O  163  1  0.46900500  0.88943400  0.72015400  1
  O  164  1  0.29866500  0.77320500  0.95807900  1
  O  183  1  0.15297100  0.86752800  0.06798900  1
  O  185  1  0.12110600  0.92146900  0.10773600  1
  O  189  1  0.21900600  0.72012600  0.10904600  1
  O  190  1  0.04869600  0.95808200  0.22527800  1
  O  209  1  0.65301400  0.13090900  0.93049300  1
  O  211  1  0.62113000  0.07699700  0.89074200  1
  O  215  1  0.71899300  0.27835300  0.88946700  1
  O  216  1  0.54858900  0.04044500  0.77319200  1
  O  235  1  0.72106100  0.95161700  0.40531400  1
  O  237  1  0.64783500  0.93952300  0.44855500  1
  O  241  1  0.92187900  0.01893600  0.43116000  1
  O  242  1  0.58863000  0.96190800  0.59659500  1
  O  261  1  0.21976800  0.04479300  0.59392000  1
  O  263  1  0.14372100  0.05220100  0.55234800  1
  O  267  1  0.42210300  0.97966100  0.56732300  1
  O  268  1  0.08831300  0.03619500  0.40239500  1
  O  287  1  0.97009000  0.59388900  0.95331900  1
  O  289  1  0.89393500  0.55257700  0.94602400  1
  O  293  1  0.17206000  0.56729700  0.01895600  1
  O  294  1  0.83857600  0.40224300  0.96227900  1
  O  313  1  0.47086700  0.40502100  0.04641800  1
  O  315  1  0.39771800  0.44800900  0.05872100  1
  O  319  1  0.67198200  0.43123400  0.97956600  1
  O  320  1  0.33872800  0.59658200  0.03650600  1
  O  337  1  0.10991100  0.02623450  0.80290200  1
  O  338  1  0.07047940  0.06078750  0.68793700  1
  O  365  1  0.61019800  0.02352150  0.01953120  1
  O  366  1  0.57045500  0.98916000  0.13444200  1
  O  393  1  0.36022300  0.63331600  0.41265700  1
  O  394  1  0.32044800  0.74825300  0.44700600  1
  O  421  1  0.86001800  0.41666700  0.40988100  1
  O  422  1  0.82046400  0.30174000  0.37543600  1
  O  451  1  0.97296600  0.09373550  0.54293000  1
  O  453  1  0.94112100  0.13347700  0.48898100  1
  O  457  1  0.03898840  0.13481200  0.69032600  1
  O  458  1  0.86859400  0.25104700  0.45240400  1
  O  477  1  0.47298300  0.95625700  0.27955200  1
  O  479  1  0.44108500  0.91650300  0.33346800  1
  O  483  1  0.53898700  0.91518200  0.13211400  1
  O  484  1  0.36864700  0.79895300  0.37003900  1
  O  503  1  0.22295300  0.89327600  0.47994900  1
  O  505  1  0.19108800  0.94721700  0.51969600  1
  O  509  1  0.28898800  0.74587400  0.52100600  1
  O  510  1  0.11867800  0.98383000  0.63723800  1
  O  529  1  0.72299600  0.15665700  0.34245300  1
  O  531  1  0.69111200  0.10274500  0.30270200  1
  O  535  1  0.78897500  0.30410100  0.30142700  1
  O  536  1  0.61857100  0.06619250  0.18515200  1
  O  555  1  0.79104300  0.97736500  0.81727400  1
  O  557  1  0.71781700  0.96527100  0.86051500  1
  O  561  1  0.99186100  0.04468350  0.84312000  1
  O  562  1  0.65861200  0.98765600  0.00855524  1
  O  581  1  0.28975000  0.07054050  0.00588024  1
  O  583  1  0.21370300  0.07794850  0.96430800  1
  O  587  1  0.49208500  0.00540851  0.97928300  1
  O  588  1  0.15829500  0.06194250  0.81435500  1
  O  607  1  0.04007240  0.61963700  0.36527900  1
  O  609  1  0.96391700  0.57832500  0.35798400  1
  O  613  1  0.24204200  0.59304500  0.43091600  1
  O  614  1  0.90855800  0.42799100  0.37423900  1
  O  633  1  0.54084900  0.43076900  0.45837800  1
  O  635  1  0.46770000  0.47375700  0.47068100  1
  O  639  1  0.74196400  0.45698200  0.39152600  1
  O  640  1  0.40871000  0.62233000  0.44846600  1
