# generated using pymatgen
data_CdH9C12BrN3O4
_symmetry_space_group_name_H-M   'P 1'
_cell_length_a   7.94814000
_cell_length_b   14.35179000
_cell_length_c   16.81434000
_cell_angle_alpha   104.29722000
_cell_angle_beta   90.00000000
_cell_angle_gamma   90.00000000
_symmetry_Int_Tables_number   1
_chemical_formula_structural   CdH9C12BrN3O4
_chemical_formula_sum   'Cd4 H36 C48 Br4 N12 O16'
_cell_volume   1858.60714558
_cell_formula_units_Z   4
loop_
 _symmetry_equiv_pos_site_id
 _symmetry_equiv_pos_as_xyz
  1  'x, y, z'
loop_
 _atom_site_type_symbol
 _atom_site_label
 _atom_site_symmetry_multiplicity
 _atom_site_fract_x
 _atom_site_fract_y
 _atom_site_fract_z
 _atom_site_occupancy
  Cd  Cd1  1  0.69236000  0.86188000  0.83893000  1.0
  Cd  Cd2  1  0.19235000  0.63812000  0.66107000  1.0
  Cd  Cd3  1  0.30765000  0.13812000  0.16107000  1.0
  Cd  Cd4  1  0.80765000  0.36188000  0.33893000  1.0
  H  H1  1  0.85997000  0.11223000  0.07953000  1.0
  H  H2  1  0.07981000  0.32461000  0.91021000  1.0
  H  H3  1  0.94749000  0.16556000  0.84315000  1.0
  H  H4  1  0.43148000  0.66216000  0.82727000  1.0
  H  H5  1  0.62936000  0.85362000  0.03735000  1.0
  H  H6  1  0.25414000  0.55989000  0.90244000  1.0
  H  H7  1  0.25128000  0.59397000  0.01116000  1.0
  H  H8  1  0.37310000  0.42761000  0.95043000  1.0
  H  H9  1  0.53786000  0.48066000  0.90748000  1.0
  H  H10  1  0.35997000  0.38776000  0.42047000  1.0
  H  H11  1  0.57981000  0.17538000  0.58979000  1.0
  H  H12  1  0.44749000  0.33443000  0.65685000  1.0
  H  H13  1  0.93148000  0.83783000  0.67273000  1.0
  H  H14  1  0.12936000  0.64638000  0.46265000  1.0
  H  H15  1  0.75414000  0.94010000  0.59756000  1.0
  H  H16  1  0.75129000  0.90602000  0.48884000  1.0
  H  H17  1  0.87311000  0.07238000  0.54957000  1.0
  H  H18  1  0.03786000  0.01934000  0.59251000  1.0
  H  H19  1  0.14003000  0.88776000  0.92047000  1.0
  H  H20  1  0.92020000  0.67539000  0.08979000  1.0
  H  H21  1  0.05251000  0.83444000  0.15685000  1.0
  H  H22  1  0.56852000  0.33784000  0.17273000  1.0
  H  H23  1  0.37064000  0.14638000  0.96265000  1.0
  H  H24  1  0.74586000  0.44010000  0.09756000  1.0
  H  H25  1  0.74872000  0.40602000  0.98884000  1.0
  H  H26  1  0.62690000  0.57238000  0.04957000  1.0
  H  H27  1  0.46214000  0.51934000  0.09251000  1.0
  H  H28  1  0.64003000  0.61223000  0.57953000  1.0
  H  H29  1  0.42020000  0.82461000  0.41021000  1.0
  H  H30  1  0.55251000  0.66556000  0.34315000  1.0
  H  H31  1  0.06852000  0.16216000  0.32727000  1.0
  H  H32  1  0.87064000  0.35362000  0.53735000  1.0
  H  H33  1  0.24586000  0.05989000  0.40244000  1.0
  H  H34  1  0.24872000  0.09397000  0.51116000  1.0
  H  H35  1  0.12690000  0.92762000  0.45043000  1.0
  H  H36  1  0.96214000  0.98066000  0.40749000  1.0
  C  C1  1  0.89417000  0.13027000  0.95770000  1.0
  C  C2  1  0.90803000  0.15942000  0.04311000  1.0
  C  C3  1  0.97948000  0.24823000  0.08165000  1.0
  C  C4  1  0.03829000  0.30667000  0.03231000  1.0
  C  C5  1  0.03013000  0.27806000  0.94673000  1.0
  C  C6  1  0.95692000  0.18967000  0.90960000  1.0
  C  C7  1  0.81506000  0.03531000  0.91878000  1.0
  C  C8  1  0.98177000  0.27843000  0.17391000  1.0
  C  C9  1  0.46821000  0.69596000  0.88966000  1.0
  C  C10  1  0.56494000  0.79266000  0.99836000  1.0
  C  C11  1  0.33386000  0.57659000  0.95737000  1.0
  C  C12  1  0.45079000  0.49272000  0.95981000  1.0
  C  C13  1  0.39417000  0.36973000  0.54230000  1.0
  C  C14  1  0.40803000  0.34058000  0.45689000  1.0
  C  C15  1  0.47948000  0.25177000  0.41835000  1.0
  C  C16  1  0.53829000  0.19333000  0.46769000  1.0
  C  C17  1  0.53013000  0.22193000  0.55327000  1.0
  C  C18  1  0.45692000  0.31033000  0.59039000  1.0
  C  C19  1  0.31505000  0.46469000  0.58122000  1.0
  C  C20  1  0.48177000  0.22157000  0.32609000  1.0
  C  C21  1  0.96821000  0.80403000  0.61034000  1.0
  C  C22  1  0.06494000  0.70733000  0.50164000  1.0
  C  C23  1  0.83386000  0.92340000  0.54263000  1.0
  C  C24  1  0.95080000  0.00727000  0.54019000  1.0
  C  C25  1  0.10583000  0.86973000  0.04230000  1.0
  C  C26  1  0.09198000  0.84057000  0.95689000  1.0
  C  C27  1  0.02052000  0.75177000  0.91834000  1.0
  C  C28  1  0.96171000  0.69332000  0.96769000  1.0
  C  C29  1  0.96987000  0.72193000  0.05327000  1.0
  C  C30  1  0.04308000  0.81033000  0.09039000  1.0
  C  C31  1  0.18495000  0.96469000  0.08122000  1.0
  C  C32  1  0.01823000  0.72156000  0.82609000  1.0
  C  C33  1  0.53179000  0.30403000  0.11034000  1.0
  C  C34  1  0.43507000  0.20733000  0.00164000  1.0
  C  C35  1  0.66614000  0.42340000  0.04263000  1.0
  C  C36  1  0.54921000  0.50727000  0.04019000  1.0
  C  C37  1  0.60584000  0.63027000  0.45770000  1.0
  C  C38  1  0.59198000  0.65942000  0.54311000  1.0
  C  C39  1  0.52053000  0.74823000  0.58165000  1.0
  C  C40  1  0.46171000  0.80667000  0.53231000  1.0
  C  C41  1  0.46987000  0.77806000  0.44673000  1.0
  C  C42  1  0.54309000  0.68967000  0.40961000  1.0
  C  C43  1  0.68495000  0.53531000  0.41878000  1.0
  C  C44  1  0.51823000  0.77843000  0.67391000  1.0
  C  C45  1  0.03179000  0.19597000  0.38966000  1.0
  C  C46  1  0.93507000  0.29266000  0.49836000  1.0
  C  C47  1  0.16614000  0.07660000  0.45737000  1.0
  C  C48  1  0.04921000  0.99272000  0.45981000  1.0
  Br  Br1  1  0.13016000  0.43118000  0.08466000  1.0
  Br  Br2  1  0.63016000  0.06881000  0.41534000  1.0
  Br  Br3  1  0.86985000  0.56881000  0.91534000  1.0
  Br  Br4  1  0.36984000  0.93118000  0.58466000  1.0
  N  N1  1  0.55694000  0.77733000  0.91463000  1.0
  N  N2  1  0.48594000  0.72557000  0.02610000  1.0
  N  N3  1  0.42449000  0.66494000  0.95590000  1.0
  N  N4  1  0.05694000  0.72266000  0.58537000  1.0
  N  N5  1  0.98594000  0.77443000  0.47390000  1.0
  N  N6  1  0.92449000  0.83505000  0.54410000  1.0
  N  N7  1  0.44306000  0.22267000  0.08537000  1.0
  N  N8  1  0.51407000  0.27443000  0.97390000  1.0
  N  N9  1  0.57551000  0.33505000  0.04410000  1.0
  N  N10  1  0.94306000  0.27733000  0.41463000  1.0
  N  N11  1  0.01406000  0.22557000  0.52610000  1.0
  N  N12  1  0.07551000  0.16494000  0.45590000  1.0
  O  O1  1  0.74963000  0.98611000  0.96428000  1.0
  O  O2  1  0.81788000  0.00651000  0.84019000  1.0
  O  O3  1  0.08092000  0.23720000  0.21373000  1.0
  O  O4  1  0.87526000  0.34288000  0.20629000  1.0
  O  O5  1  0.24963000  0.51388000  0.53571000  1.0
  O  O6  1  0.31788000  0.49348000  0.65981000  1.0
  O  O7  1  0.58093000  0.26280000  0.28627000  1.0
  O  O8  1  0.37526000  0.15711000  0.29371000  1.0
  O  O9  1  0.25038000  0.01388000  0.03571000  1.0
  O  O10  1  0.18212000  0.99349000  0.15981000  1.0
  O  O11  1  0.91908000  0.76280000  0.78627000  1.0
  O  O12  1  0.12474000  0.65711000  0.79371000  1.0
  O  O13  1  0.75038000  0.48611000  0.46429000  1.0
  O  O14  1  0.68212000  0.50651000  0.34019000  1.0
  O  O15  1  0.41908000  0.73720000  0.71373000  1.0
  O  O16  1  0.62474000  0.84288000  0.70629000  1.0
