# generated using pymatgen
data_NiH9C15S2(NO2)2
_symmetry_space_group_name_H-M   'P 1'
_cell_length_a   10.53740000
_cell_length_b   10.55826000
_cell_length_c   19.65626000
_cell_angle_alpha   88.47963000
_cell_angle_beta   88.57968000
_cell_angle_gamma   79.84794000
_symmetry_Int_Tables_number   1
_chemical_formula_structural   NiH9C15S2(NO2)2
_chemical_formula_sum   'Ni4 H36 C60 S8 N8 O16'
_cell_volume   2151.44238425
_cell_formula_units_Z   4
loop_
 _symmetry_equiv_pos_site_id
 _symmetry_equiv_pos_as_xyz
  1  'x, y, z'
loop_
 _atom_site_type_symbol
 _atom_site_label
 _atom_site_symmetry_multiplicity
 _atom_site_fract_x
 _atom_site_fract_y
 _atom_site_fract_z
 _atom_site_occupancy
  Ni  Ni1  1  0.25953000  0.17247000  0.80023000  1.0
  Ni  Ni2  1  0.82743000  0.74107000  0.69885000  1.0
  Ni  Ni3  1  0.74047000  0.82752000  0.19979000  1.0
  Ni  Ni4  1  0.17257000  0.25893000  0.30114000  1.0
  H  H1  1  0.09442000  0.98041000  0.82219000  1.0
  H  H2  1  0.86538000  0.96942000  0.84959000  1.0
  H  H3  1  0.78642000  0.38641000  0.83314000  1.0
  H  H4  1  0.01892000  0.37878000  0.80759000  1.0
  H  H5  1  0.67735000  0.15447000  0.99900000  1.0
  H  H6  1  0.69318000  0.70407000  0.07402000  1.0
  H  H7  1  0.71416000  0.08023000  0.11960000  1.0
  H  H8  1  0.65210000  0.76239000  0.95105000  1.0
  H  H9  1  0.01843000  0.90693000  0.67758000  1.0
  H  H10  1  0.02927000  0.13580000  0.65079000  1.0
  H  H11  1  0.61139000  0.21393000  0.66610000  1.0
  H  H12  1  0.61943000  0.98144000  0.69106000  1.0
  H  H13  1  0.84492000  0.32262000  0.50183000  1.0
  H  H14  1  0.29639000  0.30638000  0.42768000  1.0
  H  H15  1  0.91969000  0.28472000  0.38154000  1.0
  H  H16  1  0.23751000  0.34798000  0.55043000  1.0
  H  H17  1  0.90557000  0.01960000  0.17783000  1.0
  H  H18  1  0.13460000  0.03059000  0.15042000  1.0
  H  H19  1  0.21358000  0.61361000  0.16686000  1.0
  H  H20  1  0.98108000  0.62122000  0.19241000  1.0
  H  H21  1  0.32267000  0.84553000  0.00101000  1.0
  H  H22  1  0.30683000  0.29595000  0.92600000  1.0
  H  H23  1  0.28582000  0.91979000  0.88041000  1.0
  H  H24  1  0.34791000  0.23762000  0.04896000  1.0
  H  H25  1  0.98157000  0.09307000  0.32242000  1.0
  H  H26  1  0.97073000  0.86421000  0.34921000  1.0
  H  H27  1  0.38861000  0.78608000  0.33389000  1.0
  H  H28  1  0.38057000  0.01856000  0.30894000  1.0
  H  H29  1  0.15508000  0.67738000  0.49816000  1.0
  H  H30  1  0.70361000  0.69363000  0.57232000  1.0
  H  H31  1  0.08031000  0.71529000  0.61845000  1.0
  H  H32  1  0.76249000  0.65203000  0.44956000  1.0
  H  H33  1  0.52541000  0.47332000  0.74828000  1.0
  H  H34  1  0.16288000  0.83786000  0.75001000  1.0
  H  H35  1  0.47460000  0.52662000  0.25171000  1.0
  H  H36  1  0.83716000  0.16211000  0.25000000  1.0
  C  C1  1  0.02323000  0.06773000  0.82651000  1.0
  C  C2  1  0.89515000  0.06230000  0.84164000  1.0
  C  C3  1  0.80606000  0.17730000  0.84453000  1.0
  C  C4  1  0.85074000  0.29358000  0.83223000  1.0
  C  C5  1  0.65983000  0.96452000  0.96541000  1.0
  C  C6  1  0.47172000  0.68005000  0.74726000  1.0
  C  C7  1  0.36749000  0.78417000  0.74956000  1.0
  C  C8  1  0.38324000  0.92203000  0.75611000  1.0
  C  C9  1  0.98145000  0.29047000  0.81823000  1.0
  C  C10  1  0.67985000  0.05399000  0.01355000  1.0
  C  C11  1  0.68778000  0.80248000  0.05490000  1.0
  C  C12  1  0.70092000  0.01275000  0.08064000  1.0
  C  C13  1  0.66495000  0.83572000  0.98699000  1.0
  C  C14  1  0.60848000  0.70203000  0.73818000  1.0
  C  C15  1  0.93089000  0.97790000  0.67304000  1.0
  C  C16  1  0.93622000  0.10592000  0.65835000  1.0
  C  C17  1  0.82094000  0.19476000  0.65537000  1.0
  C  C18  1  0.70447000  0.14982000  0.66710000  1.0
  C  C19  1  0.03501000  0.34051000  0.53571000  1.0
  C  C20  1  0.31835000  0.52871000  0.75151000  1.0
  C  C21  1  0.21461000  0.63369000  0.75019000  1.0
  C  C22  1  0.07529000  0.62078000  0.74468000  1.0
  C  C23  1  0.70776000  0.01916000  0.68063000  1.0
  C  C24  1  0.94565000  0.31999000  0.48746000  1.0
  C  C25  1  0.19770000  0.31168000  0.44655000  1.0
  C  C26  1  0.98727000  0.29830000  0.42050000  1.0
  C  C27  1  0.16418000  0.33499000  0.51436000  1.0
  C  C28  1  0.29658000  0.39210000  0.76082000  1.0
  C  C29  1  0.97676000  0.93227000  0.17350000  1.0
  C  C30  1  0.10484000  0.93771000  0.15837000  1.0
  C  C31  1  0.19392000  0.82271000  0.15548000  1.0
  C  C32  1  0.14925000  0.70643000  0.16777000  1.0
  C  C33  1  0.34018000  0.03549000  0.03460000  1.0
  C  C34  1  0.52830000  0.31989000  0.25273000  1.0
  C  C35  1  0.63254000  0.21576000  0.25046000  1.0
  C  C36  1  0.61679000  0.07788000  0.24397000  1.0
  C  C37  1  0.01855000  0.70953000  0.18177000  1.0
  C  C38  1  0.32016000  0.94602000  0.98646000  1.0
  C  C39  1  0.31222000  0.19753000  0.94512000  1.0
  C  C40  1  0.29907000  0.98726000  0.91937000  1.0
  C  C41  1  0.33506000  0.16429000  0.01302000  1.0
  C  C42  1  0.39154000  0.29795000  0.26180000  1.0
  C  C43  1  0.06911000  0.02211000  0.32696000  1.0
  C  C44  1  0.06378000  0.89409000  0.34165000  1.0
  C  C45  1  0.17906000  0.80525000  0.34462000  1.0
  C  C46  1  0.29553000  0.85019000  0.33290000  1.0
  C  C47  1  0.96500000  0.65949000  0.46429000  1.0
  C  C48  1  0.68166000  0.47126000  0.24848000  1.0
  C  C49  1  0.78540000  0.36629000  0.24979000  1.0
  C  C50  1  0.92472000  0.37921000  0.25530000  1.0
  C  C51  1  0.29224000  0.98085000  0.31937000  1.0
  C  C52  1  0.05435000  0.68001000  0.51254000  1.0
  C  C53  1  0.80230000  0.68832000  0.55345000  1.0
  C  C54  1  0.01273000  0.70171000  0.57949000  1.0
  C  C55  1  0.83583000  0.66501000  0.48563000  1.0
  C  C56  1  0.70342000  0.60787000  0.23917000  1.0
  C  C57  1  0.44521000  0.55396000  0.74898000  1.0
  C  C58  1  0.24265000  0.75774000  0.74992000  1.0
  C  C59  1  0.55481000  0.44599000  0.25100000  1.0
  C  C60  1  0.75737000  0.24222000  0.25009000  1.0
  S  S1  1  0.63871000  0.18481000  0.86300000  1.0
  S  S2  1  0.62111000  0.99703000  0.87901000  1.0
  S  S3  1  0.81336000  0.36205000  0.63746000  1.0
  S  S4  1  0.00160000  0.37981000  0.62196000  1.0
  S  S5  1  0.36127000  0.81520000  0.13700000  1.0
  S  S6  1  0.37889000  0.00298000  0.12101000  1.0
  S  S7  1  0.18664000  0.63796000  0.36253000  1.0
  S  S8  1  0.99840000  0.62020000  0.37803000  1.0
  N  N1  1  0.06711000  0.17933000  0.81482000  1.0
  N  N2  1  0.70472000  0.88936000  0.10176000  1.0
  N  N3  1  0.81914000  0.93372000  0.68416000  1.0
  N  N4  1  0.11091000  0.29443000  0.39950000  1.0
  N  N5  1  0.93288000  0.82067000  0.18519000  1.0
  N  N6  1  0.29527000  0.11066000  0.89826000  1.0
  N  N7  1  0.18086000  0.06628000  0.31584000  1.0
  N  N8  1  0.88909000  0.70557000  0.60049000  1.0
  O  O1  1  0.49253000  0.95064000  0.76088000  1.0
  O  O2  1  0.27473000  0.00255000  0.76018000  1.0
  O  O3  1  0.64379000  0.72550000  0.67643000  1.0
  O  O4  1  0.68729000  0.69298000  0.78623000  1.0
  O  O5  1  0.04361000  0.51289000  0.74052000  1.0
  O  O6  1  0.99584000  0.73011000  0.74077000  1.0
  O  O7  1  0.27336000  0.35673000  0.82257000  1.0
  O  O8  1  0.30622000  0.31278000  0.71311000  1.0
  O  O9  1  0.50748000  0.04935000  0.23911000  1.0
  O  O10  1  0.72526000  0.99727000  0.24001000  1.0
  O  O11  1  0.35621000  0.27450000  0.32356000  1.0
  O  O12  1  0.31273000  0.30701000  0.21375000  1.0
  O  O13  1  0.95639000  0.48710000  0.25948000  1.0
  O  O14  1  0.00418000  0.26988000  0.25922000  1.0
  O  O15  1  0.72665000  0.64325000  0.17743000  1.0
  O  O16  1  0.69377000  0.68719000  0.28689000  1.0
