# generated using pymatgen
data_V4H19C46N2Cl3O20
_symmetry_space_group_name_H-M   'P 1'
_cell_length_a   6.94305000
_cell_length_b   13.63898000
_cell_length_c   20.47140000
_cell_angle_alpha   102.16882000
_cell_angle_beta   90.34008000
_cell_angle_gamma   90.87100000
_symmetry_Int_Tables_number   1
_chemical_formula_structural   V4H19C46N2Cl3O20
_chemical_formula_sum   'V4 H19 C46 N2 Cl3 O20'
_cell_volume   1894.70231618
_cell_formula_units_Z   1
loop_
 _symmetry_equiv_pos_site_id
 _symmetry_equiv_pos_as_xyz
  1  'x, y, z'
loop_
 _atom_site_type_symbol
 _atom_site_label
 _atom_site_symmetry_multiplicity
 _atom_site_fract_x
 _atom_site_fract_y
 _atom_site_fract_z
 _atom_site_occupancy
  V  V0  1  0.06468000  0.51180000  0.50222000  1
  V  V1  1  0.56401000  0.48820000  0.49778000  1
  V  V2  1  0.64817000  0.98820000  0.99778000  1
  V  V3  1  0.14881000  0.01193000  0.00218000  1
  H  H4  1  0.85405000  0.98144000  0.68766000  1
  H  H5  1  0.84653000  0.02990000  0.58257000  1
  H  H6  1  0.85637000  0.38945000  0.69318000  1
  H  H7  1  0.86914000  0.32957000  0.97880000  1
  H  H8  1  0.85752000  0.42535000  0.79533000  1
  H  H9  1  0.14048000  0.31703000  0.31079000  1
  H  H10  1  0.70249000  0.28403000  0.30006000  1
  H  H11  1  0.72288000  0.21019000  0.19599000  1
  H  H12  1  0.07384000  0.77794000  0.81356000  1
  H  H13  1  0.49347000  0.83190000  0.78907000  1
  H  H14  1  0.07572000  0.71677000  0.68900000  1
  H  H15  1  0.41481000  0.83590000  0.47904000  1
  H  H16  1  0.45506000  0.00998000  0.30341000  1
  H  H17  1  0.44957000  0.96315000  0.41128000  1
  H  H18  1  0.31148000  0.60782000  0.30447000  1
  H  H19  1  0.30070000  0.66770000  0.01789000  1
  H  H20  1  0.29112000  0.57019000  0.20096000  1
  H  H21  1  0.26488000  0.53451000  0.08115000  1
  H  H22  1  0.42958000  0.96816000  0.18322000  1
  C  C23  1  0.34967000  0.61276000  0.61447000  1
  C  C24  1  0.34690000  0.63748000  0.43483000  1
  C  C25  1  0.83897000  0.38378000  0.38670000  1
  C  C26  1  0.84266000  0.36177000  0.56426000  1
  C  C27  1  0.84871000  0.10816000  0.60799000  1
  C  C28  1  0.84932000  0.28281000  0.60232000  1
  C  C29  1  0.86556000  0.31023000  0.92457000  1
  C  C30  1  0.86317000  0.38612000  0.88900000  1
  C  C31  1  0.85946000  0.36249000  0.81945000  1
  C  C32  1  0.85840000  0.26148000  0.78332000  1
  C  C33  1  0.86029000  0.18263000  0.81999000  1
  C  C34  1  0.85556000  0.23691000  0.71178000  1
  C  C35  1  0.85332000  0.13484000  0.67810000  1
  C  C36  1  0.85537000  0.05930000  0.71410000  1
  C  C37  1  0.85915000  0.08094000  0.78347000  1
  C  C38  1  0.85448000  0.31018000  0.67206000  1
  C  C39  1  0.84593000  0.18158000  0.57005000  1
  C  C40  1  0.86391000  0.20962000  0.89140000  1
  C  C41  1  0.00488000  0.28710000  0.28754000  1
  C  C42  1  0.84046000  0.31413000  0.32059000  1
  C  C43  1  0.01932000  0.21581000  0.22162000  1
  C  C44  1  0.86544000  0.18409000  0.18066000  1
  C  C45  1  0.20895000  0.77582000  0.78689000  1
  C  C46  1  0.36181000  0.82861000  0.81675000  1
  C  C47  1  0.21135000  0.71931000  0.71606000  1
  C  C48  1  0.36387000  0.66892000  0.68488000  1
  C  C49  1  0.41896000  0.88604000  0.38652000  1
  C  C50  1  0.35921000  0.71422000  0.39465000  1
  C  C51  1  0.31544000  0.68629000  0.07185000  1
  C  C52  1  0.29453000  0.61082000  0.10755000  1
  C  C53  1  0.30994000  0.63277000  0.17705000  1
  C  C54  1  0.34774000  0.73201000  0.21297000  1
  C  C55  1  0.37120000  0.80895000  0.17585000  1
  C  C56  1  0.36255000  0.75753000  0.28433000  1
  C  C57  1  0.40183000  0.85893000  0.31662000  1
  C  C58  1  0.42488000  0.93263000  0.27907000  1
  C  C59  1  0.40991000  0.90822000  0.20990000  1
  C  C60  1  0.34063000  0.68609000  0.32504000  1
  C  C61  1  0.39874000  0.81399000  0.42523000  1
  C  C62  1  0.35393000  0.78507000  0.10517000  1
  C  C63  1  0.36616000  0.86254000  0.06523000  1
  C  C64  1  0.36378000  0.88638000  0.88613000  1
  C  C65  1  0.87019000  0.13628000  0.93398000  1
  C  C66  1  0.87415000  0.11518000  0.11392000  1
  C  C67  1  0.54023000  0.65750000  0.72075000  1
  C  C68  1  0.86537000  0.48949000  0.92426000  1
  N  N69  1  0.68111000  0.64789000  0.74911000  1
  N  N70  1  0.86719000  0.57246000  0.95256000  1
  Cl  Cl71  1  0.83813000  0.14464000  0.48224000  1
  Cl  Cl72  1  0.25645000  0.17624000  0.20045000  1
  Cl  Cl73  1  0.86195000  0.97313000  0.81826000  1
  O  O74  1  0.50686000  0.59939000  0.44924000  1
  O  O75  1  0.18022000  0.59460000  0.58678000  1
  O  O76  1  0.00450000  0.40061000  0.55076000  1
  O  O77  1  0.17749000  0.61129000  0.45197000  1
  O  O78  1  0.00175000  0.41742000  0.41499000  1
  O  O79  1  0.50961000  0.58258000  0.58501000  1
  O  O80  1  0.33742000  0.43637000  0.48802000  1
  O  O81  1  0.67171000  0.40540000  0.41322000  1
  O  O82  1  0.67444000  0.38871000  0.54803000  1
  O  O83  1  0.84114000  0.56363000  0.51198000  1
  O  O84  1  0.20323000  0.91731000  0.91502000  1
  O  O85  1  0.53550000  0.88869000  0.04804000  1
  O  O86  1  0.71108000  0.08261000  0.08500000  1
  O  O87  1  0.53263000  0.90537000  0.91323000  1
  O  O88  1  0.70819000  0.09941000  0.94923000  1
  O  O89  1  0.20612000  0.90051000  0.05079000  1
  O  O90  1  0.37536000  0.06357000  0.01199000  1
  O  O91  1  0.03824000  0.11139000  0.95194000  1
  O  O92  1  0.04112000  0.09471000  0.08675000  1
  O  O93  1  0.87175000  0.93643000  0.98801000  1
