# generated using pymatgen
data_H28C43(NO)4
_symmetry_space_group_name_H-M   'P 1'
_cell_length_a   20.57062500
_cell_length_b   20.57065000
_cell_length_c   34.94140000
_cell_angle_alpha   90.00000000
_cell_angle_beta   90.00000000
_cell_angle_gamma   120.00012061
_symmetry_Int_Tables_number   1
_chemical_formula_structural   H28C43(NO)4
_chemical_formula_sum   'H84 C129 N12 O12'
_cell_volume   12804.59680567
_cell_formula_units_Z   3
loop_
 _symmetry_equiv_pos_site_id
 _symmetry_equiv_pos_as_xyz
  1  'x, y, z'
loop_
 _atom_site_type_symbol
 _atom_site_label
 _atom_site_symmetry_multiplicity
 _atom_site_fract_x
 _atom_site_fract_y
 _atom_site_fract_z
 _atom_site_occupancy
  C  1  1  0.68088450  0.64891050  0.97006300  1
  C  2  1  0.63959150  0.68743450  0.97028800  1
  C  3  1  0.56222950  0.61098150  0.02602000  1
  C  4  1  0.59325850  0.56297450  0.02334100  1
  C  5  1  0.56364750  0.50053750  0.04897000  1
  C  6  1  0.50829900  0.48774000  0.07693400  1
  C  7  1  0.48462350  0.54079250  0.08060000  1
  C  8  1  0.50948650  0.60032150  0.05474500  1
  C  9  1  0.65291650  0.74273650  0.94259500  1
  C  10  1  0.70783450  0.76180750  0.91451100  1
  C  11  1  0.75433400  0.72983800  0.91490800  1
  C  12  1  0.73970200  0.67321200  0.94244100  1
  C  13  1  0.72537050  0.60068250  0.02333500  1
  C  14  1  0.75638800  0.55266400  0.02601700  1
  C  15  1  0.67903600  0.47622000  0.97028200  1
  C  16  1  0.63772200  0.51472200  0.97006700  1
  C  17  1  0.66572500  0.42093300  0.94258300  1
  C  18  1  0.61079400  0.40184600  0.91450500  1
  C  19  1  0.56427050  0.43378850  0.91491300  1
  C  20  1  0.57891950  0.49043150  0.94243800  1
  C  21  1  0.75499400  0.66312600  0.04896100  1
  C  22  1  0.81033400  0.67591200  0.07692800  1
  C  23  1  0.83399200  0.62284600  0.08060000  1
  C  24  1  0.80912850  0.56332050  0.05474500  1
  C  37  1  0.65931050  0.58182150  0.99657300  1
  C  38  1  0.73665800  0.49023800  0.99923800  1
  C  41  1  0.58196700  0.67341600  0.99924100  1
  C  48  1  0.20483050  0.56025150  0.30339600  1
  C  49  1  0.28464550  0.60154250  0.30362500  1
  C  50  1  0.28554900  0.67888200  0.35936400  1
  C  51  1  0.20651450  0.64787950  0.35666800  1
  C  52  1  0.17369450  0.67748150  0.38230500  1
  C  53  1  0.21624400  0.73281900  0.41027500  1
  C  54  1  0.29296050  0.75645550  0.41396100  1
  C  55  1  0.32762750  0.73161350  0.38809500  1
  C  56  1  0.32662500  0.58822500  0.27593000  1
  C  57  1  0.29078100  0.53331200  0.24784300  1
  C  58  1  0.21231000  0.48680800  0.24824100  1
  C  59  1  0.17031750  0.50143750  0.27577300  1
  C  60  1  0.11211500  0.51576100  0.35666500  1
  C  61  1  0.03308250  0.48476550  0.35936100  1
  C  62  1  0.03398500  0.56210500  0.30362200  1
  C  63  1  0.11380050  0.60340950  0.30340200  1
  C  64  1  0.99200550  0.57539950  0.27591900  1
  C  65  1  0.02784450  0.63031850  0.24783400  1
  C  66  1  0.10631600  0.67684000  0.24823800  1
  C  67  1  0.14830850  0.66221150  0.27577300  1
  C  68  1  0.14493350  0.48615850  0.38230500  1
  C  69  1  0.10238500  0.43082300  0.41027200  1
  C  70  1  0.02566700  0.40718400  0.41395500  1
  C  71  1  0.99100100  0.43203000  0.38809200  1
  C  84  1  0.15931250  0.58182350  0.32990600  1
  C  85  1  0.99038150  0.50447950  0.33257600  1
  C  88  1  0.32825100  0.65915800  0.33258200  1
  C  95  1  0.59222200  0.03630500  0.63673100  1
  C  96  1  0.55369400  0.95649000  0.63696000  1
  C  97  1  0.63013850  0.95558250  0.69269400  1
  C  98  1  0.67815500  0.03461900  0.69001200  1
  C  99  1  0.74059500  0.06744200  0.71563800  1
  C  100  1  0.75339350  0.02488950  0.74360000  1
  C  101  1  0.70033300  0.94816400  0.74727400  1
  C  102  1  0.64079950  0.91350150  0.72142000  1
  C  103  1  0.49842150  0.91451550  0.60925400  1
  C  104  1  0.47935600  0.95036000  0.58116700  1
  C  105  1  0.51130500  0.02882700  0.58157100  1
  C  106  1  0.56791400  0.07082000  0.60911100  1
  C  107  1  0.64044900  0.12901900  0.69000600  1
  C  108  1  0.68846800  0.20805600  0.69268800  1
  C  109  1  0.76492050  0.20714650  0.63695800  1
  C  110  1  0.72641000  0.12733200  0.63673700  1
  C  111  1  0.82020400  0.24912500  0.60925700  1
  C  112  1  0.83927050  0.21328150  0.58117000  1
  C  113  1  0.80732600  0.13481500  0.58157600  1
  C  114  1  0.75070500  0.09282100  0.60911100  1
  C  115  1  0.57800350  0.09620050  0.71562800  1
  C  116  1  0.56521900  0.13874800  0.74359900  1
  C  117  1  0.61826500  0.21547900  0.74726100  1
  C  118  1  0.67779800  0.25014000  0.72140900  1
  C  131  1  0.65930850  0.08181950  0.66324400  1
  C  132  1  0.75089800  0.25075500  0.66590900  1
  C  135  1  0.56771650  0.91288150  0.66590900  1
  C  142  1  0.48487800  0.30647800  0.80566700  1
  C  143  1  0.48290000  0.24446800  0.78686600  1
  C  144  1  0.47964200  0.18451000  0.80844500  1
  C  145  1  0.47556000  0.18797200  0.84882500  1
  C  146  1  0.47436400  0.24843200  0.86738100  1
  C  147  1  0.48199800  0.31052200  0.84607400  1
  C  154  1  0.47273550  0.36754150  0.86239300  1
  C  156  1  0.46738400  0.11737600  0.79176800  1
  C  158  1  0.05838350  0.75622950  0.13899200  1
  C  159  1  0.99835200  0.75821400  0.12019500  1
  C  160  1  0.94165800  0.76147600  0.14178200  1
  C  161  1  0.94921200  0.76555500  0.18216100  1
  C  162  1  0.01086800  0.76674700  0.20071000  1
  C  163  1  0.06531800  0.75911000  0.17939700  1
  C  170  1  0.13159850  0.76835850  0.19571300  1
  C  172  1  0.88677200  0.77372600  0.12511200  1
  C  174  1  0.93464300  0.18274800  0.47233600  1
  C  175  1  0.99665050  0.24277850  0.45353600  1
  C  176  1  0.05661700  0.29947400  0.47511500  1
  C  177  1  0.05315800  0.29192700  0.51549400  1
  C  178  1  0.99270000  0.23026900  0.53405100  1
  C  179  1  0.93060700  0.17581700  0.51274400  1
  C  186  1  0.87359350  0.10953450  0.52906300  1
  C  188  1  0.12374950  0.35434650  0.45843900  1
  C  190  1  0.83373000  0.85714900  0.80566600  1
  C  191  1  0.83571400  0.91915800  0.78686200  1
  C  192  1  0.83898350  0.97912650  0.80843900  1
  C  193  1  0.84306900  0.97566800  0.84882000  1
  C  194  1  0.84426200  0.91521000  0.86737800  1
  C  195  1  0.83662000  0.85311300  0.84607200  1
  C  202  1  0.84588200  0.79609800  0.86239400  1
  C  204  1  0.85124350  0.04625650  0.79175900  1
  C  206  1  0.26022950  0.40740150  0.13900100  1
  C  207  1  0.32025800  0.40541900  0.12019800  1
  C  208  1  0.37695950  0.40215950  0.14178000  1
  C  209  1  0.36941300  0.39808000  0.18215900  1
  C  210  1  0.30776100  0.39688600  0.20071300  1
  C  211  1  0.25330250  0.40452050  0.17940500  1
  C  218  1  0.18702500  0.39526300  0.19572700  1
  C  220  1  0.43183500  0.38990300  0.12510300  1
  C  222  1  0.38398800  0.98089400  0.47233000  1
  C  223  1  0.32197750  0.92086550  0.45353300  1
  C  224  1  0.26201100  0.86417100  0.47511200  1
  C  225  1  0.26547300  0.87172500  0.51549100  1
  C  226  1  0.32593300  0.93338100  0.53404500  1
  C  227  1  0.38802950  0.98782950  0.51273800  1
  C  234  1  0.44505000  0.05410900  0.52905700  1
  C  236  1  0.19487900  0.80929900  0.45843600  1
  H  25  1  0.87044800  0.62733400  0.10158400  1
  H  26  1  0.82968500  0.52726700  0.05725500  1
  H  27  1  0.69694750  0.39470350  0.94225400  1
  H  28  1  0.60504900  0.36379900  0.89419000  1
  H  29  1  0.54713600  0.51597400  0.94179200  1
  H  30  1  0.73489400  0.69962000  0.04757600  1
  H  31  1  0.58372400  0.46402600  0.04757000  1
  H  32  1  0.44815650  0.53629650  0.10158100  1
  H  33  1  0.48892400  0.63637000  0.05725500  1
  H  34  1  0.77146250  0.64764650  0.94178400  1
  H  35  1  0.62170100  0.76897300  0.94226700  1
  H  36  1  0.71358350  0.79986050  0.89419700  1
  H  39  1  0.78827500  0.50192400  0.98437700  1
  H  40  1  0.71677900  0.43853700  0.01580900  1
  H  42  1  0.53035450  0.66173650  0.98438100  1
  H  43  1  0.60184900  0.72511300  0.01581700  1
  H  72  1  0.99368450  0.37068750  0.43492200  1
  H  73  1  0.93438950  0.41146850  0.39059900  1
  H  74  1  0.93455450  0.54417750  0.27558900  1
  H  75  1  0.99554450  0.63605450  0.22751700  1
  H  76  1  0.20563800  0.69397600  0.27511400  1
  H  77  1  0.20151950  0.50621950  0.38090300  1
  H  78  1  0.11710850  0.65742050  0.38090300  1
  H  79  1  0.32493900  0.79295100  0.43492800  1
  H  80  1  0.38423850  0.75217150  0.39060500  1
  H  81  1  0.11298950  0.46967750  0.27511400  1
  H  82  1  0.38407800  0.61944100  0.27560400  1
  H  83  1  0.32308400  0.52756700  0.22752900  1
  H  86  1  0.95046300  0.45285800  0.31771700  1
  H  87  1  0.95855000  0.52435200  0.34914400  1
  H  89  1  0.36818350  0.71077650  0.31772900  1
  H  90  1  0.36006050  0.63926850  0.34915500  1
  H  119  1  0.61378000  0.24744800  0.76824500  1
  H  120  1  0.71385250  0.30675050  0.72392000  1
  H  121  1  0.84644500  0.30657800  0.60893400  1
  H  122  1  0.87734150  0.24558750  0.56086400  1
  H  123  1  0.72514650  0.03549350  0.60845800  1
  H  124  1  0.54150800  0.03960400  0.71424200  1
  H  125  1  0.77711300  0.12402900  0.71423700  1
  H  126  1  0.70484400  0.91618600  0.76824200  1
  H  127  1  0.60476600  0.85688500  0.72392200  1
  H  128  1  0.59349750  0.12814650  0.60845000  1
  H  129  1  0.47216600  0.85706200  0.60893600  1
  H  130  1  0.44128950  0.91805450  0.56085900  1
  H  133  1  0.73921000  0.29068200  0.65104700  1
  H  134  1  0.80259450  0.28257450  0.68248200  1
  H  136  1  0.57941300  0.87296200  0.65105000  1
  H  137  1  0.51601750  0.88105450  0.68248200  1
  H  148  1  0.46909850  0.14380550  0.86521500  1
  H  150  1  0.48482600  0.34766400  0.78919300  1
  H  152  1  0.51928600  0.28461000  0.73695900  1
  H  153  1  0.40990050  0.22100650  0.91025400  1
  H  155  1  0.43255900  0.37469100  0.85095200  1
  H  157  1  0.42287600  0.07102600  0.80133700  1
  H  164  1  0.91151050  0.77201850  0.19855500  1
  H  166  1  0.09961300  0.75627900  0.12251600  1
  H  168  1  0.00209550  0.72183050  0.07028800  1
  H  169  1  0.04792600  0.83121200  0.24358200  1
  H  171  1  0.17892400  0.80854400  0.18427400  1
  H  173  1  0.88492450  0.81822650  0.13468200  1
  H  180  1  0.09733000  0.32962700  0.53188400  1
  H  182  1  0.89345500  0.14151500  0.45586300  1
  H  184  1  0.95650650  0.23904950  0.40363200  1
  H  185  1  0.02013150  0.19322650  0.57692000  1
  H  187  1  0.86645250  0.06221250  0.51762300  1
  H  189  1  0.17009600  0.35617300  0.46800000  1
  H  196  1  0.84953800  0.01984200  0.86520700  1
  H  198  1  0.83377500  0.81595900  0.78919300  1
  H  200  1  0.79930950  0.87900950  0.73695900  1
  H  201  1  0.90873650  0.94264250  0.91024700  1
  H  203  1  0.88606200  0.78895200  0.85095500  1
  H  205  1  0.89575950  0.09260450  0.80132200  1
  H  212  1  0.40711800  0.39161400  0.19854900  1
  H  214  1  0.21899500  0.40735600  0.12252400  1
  H  216  1  0.31650750  0.44181050  0.07029100  1
  H  217  1  0.27071600  0.33241800  0.24358400  1
  H  219  1  0.13970000  0.35508400  0.18428500  1
  H  221  1  0.43367200  0.34539200  0.13466800  1
  H  228  1  0.22130300  0.83402700  0.53188200  1
  H  230  1  0.42517800  0.02212400  0.45585700  1
  H  232  1  0.36211700  0.92458500  0.40363000  1
  H  233  1  0.29850900  0.97043100  0.57691400  1
  H  235  1  0.45218300  0.10143300  0.51761800  1
  H  237  1  0.14853050  0.80746450  0.46800300  1
  N  44  1  0.50856300  0.41379300  0.88984600  1
  N  45  1  0.81004800  0.74984000  0.88984500  1
  N  46  1  0.48176800  0.42736400  0.09935400  1
  N  47  1  0.83684700  0.73627300  0.09935700  1
  N  91  1  0.14202800  0.73254000  0.22316700  1
  N  92  1  0.17659850  0.43109650  0.22317600  1
  N  93  1  0.18240200  0.75935800  0.43269300  1
  N  94  1  0.13622500  0.40428400  0.43269000  1
  N  138  1  0.82733300  0.09910500  0.55651400  1
  N  139  1  0.49130500  0.06453900  0.55650900  1
  N  140  1  0.81377850  0.05872950  0.76601400  1
  N  141  1  0.50484500  0.10490500  0.76602000  1
  O  149  1  0.47663450  0.23926250  0.74792500  1
  O  151  1  0.46430000  0.24449800  0.90600900  1
  O  165  1  0.99940100  0.76447700  0.08125500  1
  O  167  1  0.01701250  0.77681250  0.23934000  1
  O  181  1  0.00184650  0.24172650  0.41459400  1
  O  183  1  0.99663400  0.22413100  0.57267800  1
  O  197  1  0.84196800  0.92435500  0.74792100  1
  O  199  1  0.85433600  0.91915000  0.90600500  1
  O  213  1  0.31919950  0.39915650  0.08125800  1
  O  215  1  0.30162350  0.38681650  0.23934300  1
  O  229  1  0.31677800  0.92191400  0.41459100  1
  O  231  1  0.32200200  0.93952300  0.57267300  1
