# generated using pymatgen
data_Cd3H15C37(NO3)6
_symmetry_space_group_name_H-M   'P 1'
_cell_length_a   14.10716000
_cell_length_b   15.12611000
_cell_length_c   15.12613000
_cell_angle_alpha   103.05001000
_cell_angle_beta   110.87228000
_cell_angle_gamma   110.87230000
_symmetry_Int_Tables_number   1
_chemical_formula_structural   Cd3H15C37(NO3)6
_chemical_formula_sum   'Cd6 H30 C74 N12 O36'
_cell_volume   2577.74260253
_cell_formula_units_Z   2
loop_
 _symmetry_equiv_pos_site_id
 _symmetry_equiv_pos_as_xyz
  1  'x, y, z'
loop_
 _atom_site_type_symbol
 _atom_site_label
 _atom_site_symmetry_multiplicity
 _atom_site_fract_x
 _atom_site_fract_y
 _atom_site_fract_z
 _atom_site_occupancy
  Cd  Cd0  1  0.00848000  0.40170000  0.71750000  1
  Cd  Cd1  1  0.49152000  0.28250000  0.59829000  1
  Cd  Cd2  1  0.99152000  0.59829000  0.28250000  1
  Cd  Cd3  1  0.50848000  0.71750000  0.40171000  1
  Cd  Cd4  1  0.00000000  0.50000000  0.50000000  1
  Cd  Cd5  1  0.50000000  0.50000000  0.50000000  1
  H  H6  1  0.12119000  0.88454000  0.02662000  1
  H  H7  1  0.05967000  0.73742000  0.85764000  1
  H  H8  1  0.87336000  0.89250000  0.73315000  1
  H  H9  1  0.77172000  0.57951000  0.55109000  1
  H  H10  1  0.28758000  0.24394000  0.19177000  1
  H  H11  1  0.26045000  0.48399000  0.09496000  1
  H  H12  1  0.07408000  0.16870000  0.86897000  1
  H  H13  1  0.37880000  0.97337000  0.11545000  1
  H  H14  1  0.44033000  0.14236000  0.26257000  1
  H  H15  1  0.62664000  0.26685000  0.10749000  1
  H  H16  1  0.72828000  0.44890000  0.42049000  1
  H  H17  1  0.21242000  0.80822000  0.75606000  1
  H  H18  1  0.23955000  0.90503000  0.51600000  1
  H  H19  1  0.42592000  0.13102000  0.83130000  1
  H  H20  1  0.87880000  0.11545000  0.97337000  1
  H  H21  1  0.94033000  0.26257000  0.14236000  1
  H  H22  1  0.12664000  0.10749000  0.26685000  1
  H  H23  1  0.22827000  0.42049000  0.44890000  1
  H  H24  1  0.71242000  0.75606000  0.80823000  1
  H  H25  1  0.73955000  0.51600000  0.90504000  1
  H  H26  1  0.92592000  0.83130000  0.13102000  1
  H  H27  1  0.62119000  0.02662000  0.88454000  1
  H  H28  1  0.55967000  0.85764000  0.73743000  1
  H  H29  1  0.37336000  0.73314000  0.89251000  1
  H  H30  1  0.27172000  0.55109000  0.57951000  1
  H  H31  1  0.78758000  0.19177000  0.24394000  1
  H  H32  1  0.76045000  0.09496000  0.48399000  1
  H  H33  1  0.57408000  0.86897000  0.16870000  1
  H  H34  1  0.75000000  0.37270000  0.62729000  1
  H  H35  1  0.25000000  0.62729000  0.37271000  1
  C  C36  1  0.93950000  0.55966000  0.68538000  1
  C  C37  1  0.91874000  0.65111000  0.70284000  1
  C  C38  1  0.99009000  0.73827000  0.79660000  1
  C  C39  1  0.97397000  0.82591000  0.80739000  1
  C  C40  1  0.88469000  0.82424000  0.72476000  1
  C  C41  1  0.81118000  0.73532000  0.63341000  1
  C  C42  1  0.82862000  0.64901000  0.62215000  1
  C  C43  1  0.71385000  0.73207000  0.54714000  1
  C  C44  1  0.04881000  0.92295000  0.89818000  1
  C  C45  1  0.13947000  0.08356000  0.99699000  1
  C  C46  1  0.17594000  0.19331000  0.02704000  1
  C  C47  1  0.25215000  0.26714000  0.13013000  1
  C  C48  1  0.28276000  0.37155000  0.15369000  1
  C  C49  1  0.23681000  0.40271000  0.07558000  1
  C  C50  1  0.16091000  0.32900000  0.97275000  1
  C  C51  1  0.13124000  0.22521000  0.94858000  1
  C  C52  1  0.36545000  0.45160000  0.26338000  1
  C  C53  1  0.10722000  0.36098000  0.88999000  1
  C  C54  1  0.56050000  0.31461000  0.44034000  1
  C  C55  1  0.58126000  0.29715000  0.34888000  1
  C  C56  1  0.50990000  0.20339000  0.26172000  1
  C  C57  1  0.52603000  0.19261000  0.17409000  1
  C  C58  1  0.61531000  0.27523000  0.17575000  1
  C  C59  1  0.68882000  0.36659000  0.26468000  1
  C  C60  1  0.67137000  0.37785000  0.35098000  1
  C  C61  1  0.78615000  0.45286000  0.26793000  1
  C  C62  1  0.45118000  0.10181000  0.07704000  1
  C  C63  1  0.36053000  0.00300000  0.91643000  1
  C  C64  1  0.32405000  0.97296000  0.80669000  1
  C  C65  1  0.24785000  0.86986000  0.73286000  1
  C  C66  1  0.21723000  0.84630000  0.62845000  1
  C  C67  1  0.26319000  0.92441000  0.59729000  1
  C  C68  1  0.33908000  0.02725000  0.67100000  1
  C  C69  1  0.36876000  0.05141000  0.77479000  1
  C  C70  1  0.13455000  0.73661000  0.54840000  1
  C  C71  1  0.39277000  0.11000000  0.63901000  1
  C  C72  1  0.06049000  0.44034000  0.31462000  1
  C  C73  1  0.08126000  0.34888000  0.29715000  1
  C  C74  1  0.00990000  0.26172000  0.20340000  1
  C  C75  1  0.02603000  0.17408000  0.19261000  1
  C  C76  1  0.11530000  0.17575000  0.27523000  1
  C  C77  1  0.18882000  0.26467000  0.36659000  1
  C  C78  1  0.17137000  0.35098000  0.37785000  1
  C  C79  1  0.28615000  0.26792000  0.45286000  1
  C  C80  1  0.95118000  0.07704000  0.10181000  1
  C  C81  1  0.86053000  0.91643000  0.00301000  1
  C  C82  1  0.82405000  0.80669000  0.97296000  1
  C  C83  1  0.74785000  0.73285000  0.86987000  1
  C  C84  1  0.71723000  0.62845000  0.84630000  1
  C  C85  1  0.76319000  0.59729000  0.92441000  1
  C  C86  1  0.83909000  0.67100000  0.02725000  1
  C  C87  1  0.86876000  0.77479000  0.05142000  1
  C  C88  1  0.63455000  0.54839000  0.73662000  1
  C  C89  1  0.89278000  0.63901000  0.11000000  1
  C  C90  1  0.43950000  0.68538000  0.55966000  1
  C  C91  1  0.41874000  0.70284000  0.65112000  1
  C  C92  1  0.49009000  0.79660000  0.73828000  1
  C  C93  1  0.47397000  0.80738000  0.82591000  1
  C  C94  1  0.38469000  0.72476000  0.82424000  1
  C  C95  1  0.31118000  0.63340000  0.73532000  1
  C  C96  1  0.32862000  0.62214000  0.64902000  1
  C  C97  1  0.21384000  0.54713000  0.73207000  1
  C  C98  1  0.54882000  0.89818000  0.92295000  1
  C  C99  1  0.63947000  0.99699000  0.08356000  1
  C  C100  1  0.67595000  0.02704000  0.19331000  1
  C  C101  1  0.75215000  0.13013000  0.26714000  1
  C  C102  1  0.78276000  0.15369000  0.37155000  1
  C  C103  1  0.73681000  0.07558000  0.40271000  1
  C  C104  1  0.66091000  0.97275000  0.32900000  1
  C  C105  1  0.63124000  0.94858000  0.22521000  1
  C  C106  1  0.86545000  0.26338000  0.45160000  1
  C  C107  1  0.60722000  0.88999000  0.36099000  1
  C  C108  1  0.75000000  0.32612000  0.67387000  1
  C  C109  1  0.25000000  0.67387000  0.32612000  1
  N  N110  1  0.06214000  0.01441000  0.89748000  1
  N  N111  1  0.11716000  0.93843000  0.99779000  1
  N  N112  1  0.17533000  0.03931000  0.06211000  1
  N  N113  1  0.43785000  0.10252000  0.98559000  1
  N  N114  1  0.38283000  0.00221000  0.06157000  1
  N  N115  1  0.32467000  0.93788000  0.96068000  1
  N  N116  1  0.93785000  0.98559000  0.10252000  1
  N  N117  1  0.88283000  0.06157000  0.00221000  1
  N  N118  1  0.82467000  0.96068000  0.93789000  1
  N  N119  1  0.56215000  0.89748000  0.01441000  1
  N  N120  1  0.61716000  0.99778000  0.93843000  1
  N  N121  1  0.67533000  0.06211000  0.03931000  1
  O  O122  1  0.00063000  0.55222000  0.76584000  1
  O  O123  1  0.89444000  0.49516000  0.59299000  1
  O  O124  1  0.62398000  0.64355000  0.48238000  1
  O  O125  1  0.72254000  0.81557000  0.54039000  1
  O  O126  1  0.39523000  0.41463000  0.33052000  1
  O  O127  1  0.39597000  0.54480000  0.27701000  1
  O  O128  1  0.08855000  0.43597000  0.91488000  1
  O  O129  1  0.07955000  0.30973000  0.79645000  1
  O  O130  1  0.83886000  0.31702000  0.71927000  1
  O  O131  1  0.49936000  0.23415000  0.44778000  1
  O  O132  1  0.60556000  0.40701000  0.50484000  1
  O  O133  1  0.87602000  0.51761000  0.35645000  1
  O  O134  1  0.77746000  0.45960000  0.18443000  1
  O  O135  1  0.10477000  0.66947000  0.58537000  1
  O  O136  1  0.10403000  0.72299000  0.45520000  1
  O  O137  1  0.41145000  0.08511000  0.56403000  1
  O  O138  1  0.42044000  0.20355000  0.69026000  1
  O  O139  1  0.66114000  0.28072000  0.68297000  1
  O  O140  1  0.99937000  0.44778000  0.23416000  1
  O  O141  1  0.10555000  0.50484000  0.40701000  1
  O  O142  1  0.37601000  0.35645000  0.51761000  1
  O  O143  1  0.27745000  0.18443000  0.45960000  1
  O  O144  1  0.60477000  0.58537000  0.66948000  1
  O  O145  1  0.60403000  0.45520000  0.72299000  1
  O  O146  1  0.91145000  0.56403000  0.08511000  1
  O  O147  1  0.92045000  0.69026000  0.20355000  1
  O  O148  1  0.16114000  0.68297000  0.28072000  1
  O  O149  1  0.50063000  0.76584000  0.55222000  1
  O  O150  1  0.39444000  0.59299000  0.49516000  1
  O  O151  1  0.12398000  0.48238000  0.64355000  1
  O  O152  1  0.22254000  0.54039000  0.81557000  1
  O  O153  1  0.89523000  0.33052000  0.41463000  1
  O  O154  1  0.89597000  0.27701000  0.54480000  1
  O  O155  1  0.58855000  0.91488000  0.43597000  1
  O  O156  1  0.57955000  0.79644000  0.30974000  1
  O  O157  1  0.33886000  0.71927000  0.31703000  1
