# generated using pymatgen
data_Co3H15C24SN3O11
_symmetry_space_group_name_H-M   'P 1'
_cell_length_a   11.68271000
_cell_length_b   19.37756846
_cell_length_c   19.38947157
_cell_angle_alpha   116.07665463
_cell_angle_beta   101.55987333
_cell_angle_gamma   101.59304384
_symmetry_Int_Tables_number   1
_chemical_formula_structural   Co3H15C24SN3O11
_chemical_formula_sum   'Co9 H45 C72 S3 N9 O33'
_cell_volume   3648.33348182
_cell_formula_units_Z   3
loop_
 _symmetry_equiv_pos_site_id
 _symmetry_equiv_pos_as_xyz
  1  'x, y, z'
loop_
 _atom_site_type_symbol
 _atom_site_label
 _atom_site_symmetry_multiplicity
 _atom_site_fract_x
 _atom_site_fract_y
 _atom_site_fract_z
 _atom_site_occupancy
  C  C1  1  0.00789667  0.15482333  0.55477667  1.0
  C  C2  1  0.92221667  0.33919000  0.33924000  1.0
  C  C3  1  0.98269667  0.12072333  0.60848667  1.0
  C  C4  1  0.23701333  0.16184333  0.28963667  1.0
  C  C5  1  0.79272000  0.33862333  0.33875667  1.0
  C  C6  1  0.29941000  0.04303667  0.19788333  1.0
  C  C7  1  0.08590000  0.12999333  0.50941667  1.0
  C  C8  1  0.98854000  0.24459333  0.50137667  1.0
  C  C9  1  0.61190667  0.37405333  0.30385667  1.0
  C  C10  1  0.22176333  0.07534000  0.23917000  1.0
  C  C11  1  0.95740667  0.21281333  0.54955667  1.0
  C  C12  1  0.11008667  0.16309667  0.46113333  1.0
  C  C13  1  0.73061667  0.37493667  0.30210333  1.0
  C  C14  1  0.07517000  0.83875333  0.12835667  1.0
  C  C15  1  0.25654667  0.95731333  0.15520667  1.0
  C  C16  1  0.14661667  0.92522000  0.16433000  1.0
  C  C17  1  0.73073000  0.30182333  0.37502667  1.0
  C  C18  1  0.61199333  0.30347667  0.37428333  1.0
  C  C19  1  0.45378667  0.44510667  0.59989333  1.0
  C  C20  1  0.37485667  0.39115000  0.51216000  1.0
  C  C21  1  0.57702667  0.49064333  0.62043667  1.0
  C  C22  1  0.48749667  0.49874667  0.74300333  1.0
  C  C23  1  0.40840333  0.45038000  0.66305000  1.0
  C  C24  1  0.64933000  0.53906000  0.70181000  1.0
  C  C26  1  0.58293333  0.66062667  0.99975333  1.0
  C  C28  1  0.94741333  0.71054333  0.87206667  1.0
  C  C29  1  0.45393667  0.66110667  0.99976333  1.0
  C  C30  1  0.10197667  0.80234000  0.84518000  1.0
  C  C33  1  0.30816000  0.69620000  0.07023000  1.0
  C  C34  1  0.98301000  0.76096000  0.83605000  1.0
  C  C37  1  0.42854667  0.69780000  0.07276000  1.0
  C  C38  1  0.94738000  0.87185000  0.71041000  1.0
  C  C39  1  0.10201333  0.84510333  0.80223667  1.0
  C  C40  1  0.98304667  0.83590667  0.76086333  1.0
  C  C41  1  0.35567667  0.62490333  0.92678667  1.0
  C  C42  1  0.23776667  0.62579667  0.92929333  1.0
  C  C43  1  0.85435333  0.40002333  0.84527667  1.0
  C  C44  1  0.86290333  0.48781667  0.87908333  1.0
  C  C45  1  0.95702667  0.37942667  0.87020333  1.0
  C  C46  1  0.74516000  0.25682000  0.75553000  1.0
  C  C47  1  0.74595333  0.33683333  0.78730667  1.0
  C  C48  1  0.94806667  0.29798333  0.83702667  1.0
  C  C50  1  0.58303333  0.99995333  0.66077667  1.0
  C  C52  1  0.07517667  0.12818333  0.83858667  1.0
  C  C53  1  0.45401333  0.99988000  0.66122000  1.0
  C  C54  1  0.25644333  0.15520333  0.95720667  1.0
  C  C57  1  0.23779667  0.92921000  0.62566000  1.0
  C  C58  1  0.14664000  0.16439333  0.92505667  1.0
  C  C61  1  0.35577333  0.92679000  0.62491000  1.0
  C  C62  1  0.23674000  0.28990667  0.16156333  1.0
  C  C63  1  0.29934333  0.19811000  0.04288000  1.0
  C  C64  1  0.22175000  0.23952667  0.07509333  1.0
  C  C65  1  0.42853000  0.07288667  0.69787333  1.0
  C  C66  1  0.30807000  0.07026000  0.69611000  1.0
  C  C73  1  0.85415667  0.84521000  0.39996000  1.0
  C  C74  1  0.86292667  0.87910000  0.48779000  1.0
  C  C75  1  0.95684667  0.87016333  0.37933667  1.0
  C  C76  1  0.74510000  0.75548667  0.25679333  1.0
  C  C77  1  0.74577667  0.78721333  0.33674667  1.0
  C  C78  1  0.94797333  0.83702667  0.29795333  1.0
  C  C79  1  0.00808667  0.55474667  0.15485333  1.0
  C  C80  1  0.98262667  0.60836667  0.12068333  1.0
  C  C81  1  0.08620667  0.50946667  0.13001333  1.0
  C  C82  1  0.98926333  0.50147667  0.24475333  1.0
  C  C83  1  0.95775333  0.54952000  0.21287000  1.0
  C  C84  1  0.11078667  0.46131000  0.16321000  1.0
  C  C91  1  0.45354000  0.60023667  0.44546333  1.0
  C  C92  1  0.37444000  0.51245333  0.39170667  1.0
  C  C93  1  0.57682667  0.62073000  0.49083000  1.0
  C  C94  1  0.48754333  0.74347000  0.49903000  1.0
  C  C95  1  0.40830000  0.66347333  0.45076667  1.0
  C  C96  1  0.64922667  0.70215333  0.53919667  1.0
  Co  Co1  1  0.12692333  0.27841000  0.39651000  1.0
  Co  Co2  1  0.37200000  0.33759000  0.33732000  1.0
  Co  Co3  1  0.73042667  0.60347000  0.88143000  1.0
  Co  Co4  1  0.84832333  0.72160000  0.11774000  1.0
  Co  Co5  1  0.12695333  0.39666333  0.27854667  1.0
  Co  Co6  1  0.84845000  0.11796667  0.72167333  1.0
  Co  Co7  1  0.03478000  0.66291333  0.00050667  1.0
  Co  Co8  1  0.03469667  0.00017667  0.66268333  1.0
  Co  Co11  1  0.73087667  0.88190667  0.60392333  1.0
  H  H1  1  0.38251333  0.08164667  0.19950333  1.0
  H  H2  1  0.12664333  0.08532000  0.51276000  1.0
  H  H3  1  0.95359333  0.29090333  0.49667667  1.0
  H  H4  1  0.55983333  0.40118333  0.27604667  1.0
  H  H5  1  0.89587667  0.23291333  0.58370667  1.0
  H  H6  1  0.16773000  0.14418000  0.42347000  1.0
  H  H7  1  0.77469667  0.40285667  0.27209333  1.0
  H  H8  1  0.30099333  0.91857333  0.11830667  1.0
  H  H9  1  0.77496667  0.27178000  0.40280000  1.0
  H  H10  1  0.56000000  0.27564000  0.40144000  1.0
  H  H11  1  0.61455333  0.48737333  0.57249667  1.0
  H  H12  1  0.45716667  0.50351667  0.79397333  1.0
  H  H13  1  0.31277667  0.41613333  0.64892667  1.0
  H  H14  1  0.74458000  0.57681667  0.72062333  1.0
  H  H15  1  0.15072333  0.27362000  0.27344000  1.0
  H  H16  1  0.18344333  0.80077333  0.88218667  1.0
  H  H19  1  0.28397333  0.72405000  0.12521000  1.0
  H  H22  1  0.50265333  0.72776000  0.13062000  1.0
  H  H23  1  0.18353000  0.88207000  0.80061000  1.0
  H  H24  1  0.37211667  0.59710333  0.86896667  1.0
  H  H25  1  0.15863333  0.59871333  0.87436667  1.0
  H  H26  1  0.04242000  0.42738000  0.91495000  1.0
  H  H27  1  0.66389000  0.20583000  0.70931000  1.0
  H  H28  1  0.66453000  0.35107000  0.76730000  1.0
  H  H29  1  0.02448667  0.27912333  0.85588667  1.0
  H  H30  1  0.87722000  0.72661333  0.99975667  1.0
  H  H31  1  0.30079000  0.11807333  0.91858667  1.0
  H  H34  1  0.15866333  0.87419333  0.59848667  1.0
  H  H37  1  0.37221000  0.86892333  0.59712667  1.0
  H  H38  1  0.38235333  0.19966000  0.08146000  1.0
  H  H39  1  0.50259333  0.13084667  0.72791333  1.0
  H  H40  1  0.28379667  0.12523333  0.72387667  1.0
  H  H45  1  0.87764667  0.00016000  0.72689000  1.0
  H  H46  1  0.04225667  0.91492667  0.42722333  1.0
  H  H47  1  0.66384667  0.70919667  0.20584333  1.0
  H  H48  1  0.66417667  0.76706667  0.35079333  1.0
  H  H49  1  0.02457000  0.85595667  0.27923333  1.0
  H  H50  1  0.12673000  0.51279000  0.08526000  1.0
  H  H51  1  0.95439000  0.49671667  0.29103333  1.0
  H  H52  1  0.89605000  0.58354000  0.23294000  1.0
  H  H53  1  0.16851667  0.42371000  0.14427000  1.0
  H  H58  1  0.61421333  0.57269667  0.48748333  1.0
  H  H59  1  0.45736667  0.79452000  0.50379000  1.0
  H  H60  1  0.31265000  0.64936667  0.41664333  1.0
  H  H61  1  0.74448000  0.72098333  0.57688667  1.0
  N  N1  1  0.55320000  0.33923000  0.33959000  1.0
  N  N2  1  0.06352667  0.22039333  0.45727667  1.0
  N  N3  1  0.60651667  0.54290667  0.76290333  1.0
  N  N4  1  0.21372667  0.66058000  0.99976000  1.0
  N  N6  1  0.84430000  0.23686333  0.77964667  1.0
  N  N7  1  0.21367333  0.99968000  0.66040000  1.0
  N  N10  1  0.84423333  0.77963333  0.23681667  1.0
  N  N11  1  0.06453333  0.45756000  0.22064000  1.0
  N  N13  1  0.60654000  0.76332667  0.54312333  1.0
  O  O1  1  0.18940000  0.32479333  0.32457667  1.0
  O  O2  1  0.05615333  0.08625667  0.62547333  1.0
  O  O3  1  0.89055333  0.13125333  0.63324667  1.0
  O  O4  1  0.14816000  0.17642000  0.31834000  1.0
  O  O5  1  0.97058333  0.30496000  0.37458000  1.0
  O  O6  1  0.33427000  0.21398333  0.30113667  1.0
  O  O7  1  0.97077333  0.82420000  0.14126000  1.0
  O  O8  1  0.12120333  0.78662000  0.08875000  1.0
  O  O9  1  0.97000667  0.37394333  0.30432667  1.0
  O  O10  1  0.43092333  0.37474000  0.46055000  1.0
  O  O11  1  0.25815333  0.36544333  0.49827667  1.0
  O  O12  1  0.86469333  0.67548667  0.99986333  1.0
  O  O13  1  0.43071667  0.46086000  0.37475000  1.0
  O  O14  1  0.76006333  0.50158667  0.86652333  1.0
  O  O15  1  0.82976667  0.68187000  0.85770000  1.0
  O  O16  1  0.59602667  0.62544333  0.93017667  1.0
  O  O17  1  0.33466667  0.30211000  0.21358000  1.0
  O  O23  1  0.03287667  0.69903000  0.91289000  1.0
  O  O24  1  0.82985000  0.85816000  0.68244000  1.0
  O  O25  1  0.03265000  0.91204667  0.69819333  1.0
  O  O26  1  0.66556000  0.69544667  0.06939333  1.0
  O  O27  1  0.97050000  0.53952333  0.91498667  1.0
  O  O29  1  0.86494333  0.00009667  0.67570333  1.0
  O  O30  1  0.05602333  0.62534667  0.08616333  1.0
  O  O32  1  0.97101667  0.14132333  0.82391667  1.0
  O  O33  1  0.66575667  0.06964333  0.69580667  1.0
  O  O39  1  0.12091000  0.08808000  0.78654000  1.0
  O  O40  1  0.14702333  0.31751000  0.17617000  1.0
  O  O41  1  0.59608333  0.93036000  0.62538000  1.0
  O  O45  1  0.97067000  0.91490667  0.53933333  1.0
  O  O50  1  0.76034000  0.86681333  0.50190667  1.0
  O  O51  1  0.89039000  0.63303000  0.13116000  1.0
  O  O52  1  0.25762333  0.49839667  0.36696333  1.0
  S  S1  1  0.09535333  0.00038000  0.22476000  1.0
  S  S2  1  0.87124000  0.77533667  0.77538333  1.0
  S  S3  1  0.09545000  0.22503333  0.00011667  1.0
