# generated using pymatgen
data_NiH12C19(NO3)2
_symmetry_space_group_name_H-M   'P 1'
_cell_length_a   11.27470000
_cell_length_b   15.11890000
_cell_length_c   17.03901000
_cell_angle_alpha   90.04804000
_cell_angle_beta   90.01525000
_cell_angle_gamma   76.47104000
_symmetry_Int_Tables_number   1
_chemical_formula_structural   NiH12C19(NO3)2
_chemical_formula_sum   'Ni4 H48 C76 N8 O24'
_cell_volume   2823.89243595
_cell_formula_units_Z   4
loop_
 _symmetry_equiv_pos_site_id
 _symmetry_equiv_pos_as_xyz
  1  'x, y, z'
loop_
 _atom_site_type_symbol
 _atom_site_label
 _atom_site_symmetry_multiplicity
 _atom_site_fract_x
 _atom_site_fract_y
 _atom_site_fract_z
 _atom_site_occupancy
  Ni  Ni0  1  0.98488000  0.86911000  0.96244000  1
  Ni  Ni1  1  0.01539000  0.63093000  0.46225000  1
  Ni  Ni2  1  0.01513000  0.13089000  0.03756000  1
  Ni  Ni3  1  0.98462000  0.36907000  0.53775000  1
  H  H4  1  0.00904000  0.34299000  0.97512000  1
  H  H5  1  0.15943000  0.92610000  0.85086000  1
  H  H6  1  0.20221000  0.78687000  0.06174000  1
  H  H7  1  0.37308000  0.93903000  0.85049000  1
  H  H8  1  0.41986000  0.79095000  0.07019000  1
  H  H9  1  0.54897000  0.94163000  0.85155000  1
  H  H10  1  0.59232000  0.80538000  0.07689000  1
  H  H11  1  0.76808000  0.94281000  0.85863000  1
  H  H12  1  0.80973000  0.81250000  0.07303000  1
  H  H13  1  0.99694000  0.55924000  0.93548000  1
  H  H14  1  0.99271000  0.70702000  0.71837000  1
  H  H15  1  0.95259000  0.42957000  0.71721000  1
  H  H16  1  0.98994000  0.15741000  0.47538000  1
  H  H17  1  0.84081000  0.57360000  0.35056000  1
  H  H18  1  0.79866000  0.71291000  0.56161000  1
  H  H19  1  0.62719000  0.56082000  0.35033000  1
  H  H20  1  0.58106000  0.70889000  0.57028000  1
  H  H21  1  0.45131000  0.55829000  0.35139000  1
  H  H22  1  0.40791000  0.69467000  0.57689000  1
  H  H23  1  0.23240000  0.55679000  0.35849000  1
  H  H24  1  0.19065000  0.68717000  0.57306000  1
  H  H25  1  0.00384000  0.94049000  0.43540000  1
  H  H26  1  0.00869000  0.79315000  0.21778000  1
  H  H27  1  0.04676000  0.07119000  0.21763000  1
  H  H28  1  0.99097000  0.65701000  0.02488000  1
  H  H29  1  0.84057000  0.07390000  0.14914000  1
  H  H30  1  0.79780000  0.21313000  0.93826000  1
  H  H31  1  0.62693000  0.06097000  0.14951000  1
  H  H32  1  0.58014000  0.20905000  0.92981000  1
  H  H33  1  0.45104000  0.05837000  0.14845000  1
  H  H34  1  0.40769000  0.19462000  0.92311000  1
  H  H35  1  0.23192000  0.05719000  0.14137000  1
  H  H36  1  0.19028000  0.18750000  0.92697000  1
  H  H37  1  0.00307000  0.44076000  0.06452000  1
  H  H38  1  0.00730000  0.29297000  0.28162000  1
  H  H39  1  0.04742000  0.57043000  0.28279000  1
  H  H40  1  0.01007000  0.84260000  0.52461000  1
  H  H41  1  0.15920000  0.42640000  0.64944000  1
  H  H42  1  0.20135000  0.28709000  0.43839000  1
  H  H43  1  0.37282000  0.43918000  0.64967000  1
  H  H44  1  0.41895000  0.29111000  0.42972000  1
  H  H45  1  0.54870000  0.44171000  0.64861000  1
  H  H46  1  0.59210000  0.30533000  0.42311000  1
  H  H47  1  0.76760000  0.44321000  0.64151000  1
  H  H48  1  0.80936000  0.31283000  0.42693000  1
  H  H49  1  0.99617000  0.05951000  0.56460000  1
  H  H50  1  0.99132000  0.20685000  0.78222000  1
  H  H51  1  0.95325000  0.92881000  0.78237000  1
  C  C52  1  0.21996000  0.89869000  0.89913000  1
  C  C53  1  0.24427000  0.82047000  0.01661000  1
  C  C54  1  0.34103000  0.90484000  0.89937000  1
  C  C55  1  0.36652000  0.82342000  0.02056000  1
  C  C56  1  0.41832000  0.86745000  0.96160000  1
  C  C57  1  0.54831000  0.87258000  0.96385000  1
  C  C58  1  0.60137000  0.91214000  0.90254000  1
  C  C59  1  0.62540000  0.83686000  0.02673000  1
  C  C60  1  0.72437000  0.91310000  0.90535000  1
  C  C61  1  0.74769000  0.84005000  0.02543000  1
  C  C62  1  0.97654000  0.56382000  0.61960000  1
  C  C63  1  0.99425000  0.64260000  0.83193000  1
  C  C64  1  0.99059000  0.56239000  0.87197000  1
  C  C65  1  0.98925000  0.64476000  0.74952000  1
  C  C66  1  0.97443000  0.48620000  0.83054000  1
  C  C67  1  0.97655000  0.56731000  0.70788000  1
  C  C68  1  0.96496000  0.48931000  0.74880000  1
  C  C69  1  0.96347000  0.40231000  0.87323000  1
  C  C70  1  1.00000000  0.72611000  0.87694000  1
  C  C71  1  0.78038000  0.60121000  0.39885000  1
  C  C72  1  0.75639000  0.67944000  0.51643000  1
  C  C73  1  0.65930000  0.59508000  0.39920000  1
  C  C74  1  0.63413000  0.67650000  0.52049000  1
  C  C75  1  0.58209000  0.63252000  0.46150000  1
  C  C76  1  0.45207000  0.62736000  0.46379000  1
  C  C77  1  0.39899000  0.58772000  0.40246000  1
  C  C78  1  0.37494000  0.66305000  0.52671000  1
  C  C79  1  0.27603000  0.58660000  0.40527000  1
  C  C80  1  0.25269000  0.65970000  0.52542000  1
  C  C81  1  0.02397000  0.93640000  0.11959000  1
  C  C82  1  0.00699000  0.85725000  0.33172000  1
  C  C83  1  0.01032000  0.93756000  0.37189000  1
  C  C84  1  0.01182000  0.85531000  0.24928000  1
  C  C85  1  0.02570000  0.01405000  0.33064000  1
  C  C86  1  0.02399000  0.93299000  0.20783000  1
  C  C87  1  0.03490000  0.01114000  0.24890000  1
  C  C88  1  0.03550000  0.09838000  0.37327000  1
  C  C89  1  0.00119000  0.77376000  0.37685000  1
  C  C90  1  0.78004000  0.10131000  0.10087000  1
  C  C91  1  0.75574000  0.17953000  0.98339000  1
  C  C92  1  0.65898000  0.09516000  0.10063000  1
  C  C93  1  0.63348000  0.17658000  0.97944000  1
  C  C94  1  0.58169000  0.13255000  0.03840000  1
  C  C95  1  0.45170000  0.12742000  0.03615000  1
  C  C96  1  0.39864000  0.08786000  0.09746000  1
  C  C97  1  0.37460000  0.16314000  0.97326000  1
  C  C98  1  0.27564000  0.08690000  0.09465000  1
  C  C99  1  0.25232000  0.15995000  0.97457000  1
  C  C100  1  0.02346000  0.43618000  0.38040000  1
  C  C101  1  0.00575000  0.35740000  0.16807000  1
  C  C102  1  0.00942000  0.43761000  0.12803000  1
  C  C103  1  0.01076000  0.35524000  0.25048000  1
  C  C104  1  0.02558000  0.51380000  0.16946000  1
  C  C105  1  0.02346000  0.43269000  0.29212000  1
  C  C106  1  0.03505000  0.51069000  0.25120000  1
  C  C107  1  0.03654000  0.59769000  0.12677000  1
  C  C108  1  0.00001000  0.27389000  0.12306000  1
  C  C109  1  0.21962000  0.39879000  0.60114000  1
  C  C110  1  0.24362000  0.32056000  0.48357000  1
  C  C111  1  0.34071000  0.40492000  0.60080000  1
  C  C112  1  0.36588000  0.32350000  0.47951000  1
  C  C113  1  0.41792000  0.36748000  0.53850000  1
  C  C114  1  0.54794000  0.37264000  0.53621000  1
  C  C115  1  0.60102000  0.41228000  0.59754000  1
  C  C116  1  0.62507000  0.33695000  0.47329000  1
  C  C117  1  0.72398000  0.41340000  0.59473000  1
  C  C118  1  0.74732000  0.34030000  0.47458000  1
  C  C119  1  0.97604000  0.06360000  0.88041000  1
  C  C120  1  0.99302000  0.14275000  0.66828000  1
  C  C121  1  0.98969000  0.06244000  0.62811000  1
  C  C122  1  0.98819000  0.14469000  0.75072000  1
  C  C123  1  0.97431000  0.98595000  0.66936000  1
  C  C124  1  0.97602000  0.06701000  0.79217000  1
  C  C125  1  0.96511000  0.98886000  0.75110000  1
  C  C126  1  0.96451000  0.90162000  0.62672000  1
  C  C127  1  0.99882000  0.22624000  0.62314000  1
  N  N128  1  0.17082000  0.85890000  0.95736000  1
  N  N129  1  0.79711000  0.87724000  0.96558000  1
  N  N130  1  0.82969000  0.64106000  0.45707000  1
  N  N131  1  0.20326000  0.62242000  0.46553000  1
  N  N132  1  0.82918000  0.14110000  0.04263000  1
  N  N133  1  0.20290000  0.12276000  0.03442000  1
  N  N134  1  0.17032000  0.35894000  0.54293000  1
  N  N135  1  0.79675000  0.37757000  0.53447000  1
  O  O136  1  0.99411000  0.80073000  0.84170000  1
  O  O137  1  0.00776000  0.72326000  0.95291000  1
  O  O138  1  0.01788000  0.62428000  0.58308000  1
  O  O139  1  0.93491000  0.50163000  0.58731000  1
  O  O140  1  0.90236000  0.35025000  0.84991000  1
  O  O141  1  0.02877000  0.39197000  0.94042000  1
  O  O142  1  0.00657000  0.69901000  0.34181000  1
  O  O143  1  0.99338000  0.77682000  0.45284000  1
  O  O144  1  0.98274000  0.87577000  0.08313000  1
  O  O145  1  0.06529000  0.99870000  0.08734000  1
  O  O146  1  0.09497000  0.15145000  0.34965000  1
  O  O147  1  0.97098000  0.10803000  0.44067000  1
  O  O148  1  0.00590000  0.19927000  0.15830000  1
  O  O149  1  0.99225000  0.27674000  0.04709000  1
  O  O150  1  0.98213000  0.37572000  0.41692000  1
  O  O151  1  0.06510000  0.49837000  0.41269000  1
  O  O152  1  0.09765000  0.64975000  0.15009000  1
  O  O153  1  0.97124000  0.60803000  0.05958000  1
  O  O154  1  0.99345000  0.30099000  0.65819000  1
  O  O155  1  0.00663000  0.22318000  0.54716000  1
  O  O156  1  0.01727000  0.12423000  0.91687000  1
  O  O157  1  0.93472000  0.00130000  0.91266000  1
  O  O158  1  0.90503000  0.84855000  0.65035000  1
  O  O159  1  0.02903000  0.89197000  0.55933000  1
