# generated using pymatgen
data_Al2H5C5O8
_symmetry_space_group_name_H-M   'P 1'
_cell_length_a   7.17418000
_cell_length_b   7.47940000
_cell_length_c   11.12289000
_cell_angle_alpha   107.51289000
_cell_angle_beta   106.44656000
_cell_angle_gamma   96.32305000
_symmetry_Int_Tables_number   1
_chemical_formula_structural   Al2H5C5O8
_chemical_formula_sum   'Al4 H10 C10 O16'
_cell_volume   533.29221410
_cell_formula_units_Z   2
loop_
 _symmetry_equiv_pos_site_id
 _symmetry_equiv_pos_as_xyz
  1  'x, y, z'
loop_
 _atom_site_type_symbol
 _atom_site_label
 _atom_site_symmetry_multiplicity
 _atom_site_fract_x
 _atom_site_fract_y
 _atom_site_fract_z
 _atom_site_occupancy
  Al  Al1  1  0.29166000  0.29186000  0.58401000  1.0
  Al  Al2  1  0.70833000  0.70814000  0.41600000  1.0
  Al  Al3  1  0.00000000  0.50000000  0.50000000  1.0
  Al  Al4  1  0.50000000  0.00000000  0.50000000  1.0
  H  H1  1  0.01775000  0.34267000  0.67087000  1.0
  H  H2  1  0.14093000  0.93835000  0.46320000  1.0
  H  H3  1  0.65156000  0.32865000  0.67108000  1.0
  H  H4  1  0.32343000  0.52517000  0.46387000  1.0
  H  H5  1  0.98225000  0.65733000  0.32913000  1.0
  H  H6  1  0.85906000  0.06165000  0.53680000  1.0
  H  H7  1  0.34843000  0.67135000  0.32893000  1.0
  H  H8  1  0.67656000  0.47484000  0.53613000  1.0
  H  H9  1  0.54939000  0.33475000  0.00012000  1.0
  H  H10  1  0.45061000  0.66525000  0.99988000  1.0
  C  C1  1  0.42015000  0.06973000  0.75015000  1.0
  C  C2  1  0.45269000  0.03396000  0.87898000  1.0
  C  C3  1  0.32795000  0.68022000  0.75035000  1.0
  C  C4  1  0.42485000  0.84504000  0.87896000  1.0
  C  C5  1  0.57984000  0.93027000  0.24985000  1.0
  C  C6  1  0.54731000  0.96605000  0.12102000  1.0
  C  C7  1  0.67205000  0.31978000  0.24965000  1.0
  C  C8  1  0.57514000  0.15496000  0.12104000  1.0
  C  C9  1  0.52612000  0.18828000  0.00002000  1.0
  C  C10  1  0.47387000  0.81172000  0.99998000  1.0
  O  O1  1  0.02467000  0.30506000  0.58107000  1.0
  O  O2  1  0.24059000  0.04034000  0.46407000  1.0
  O  O3  1  0.32432000  0.19875000  0.73318000  1.0
  O  O4  1  0.50078000  0.97460000  0.67062000  1.0
  O  O5  1  0.55599000  0.27576000  0.58107000  1.0
  O  O6  1  0.22401000  0.42427000  0.46440000  1.0
  O  O7  1  0.40724000  0.53436000  0.73313000  1.0
  O  O8  1  0.16750000  0.69540000  0.67145000  1.0
  O  O9  1  0.97532000  0.69494000  0.41893000  1.0
  O  O10  1  0.75940000  0.95966000  0.53594000  1.0
  O  O11  1  0.67568000  0.80125000  0.26682000  1.0
  O  O12  1  0.49922000  0.02541000  0.32938000  1.0
  O  O13  1  0.44400000  0.72424000  0.41894000  1.0
  O  O14  1  0.77598000  0.57573000  0.53560000  1.0
  O  O15  1  0.59276000  0.46565000  0.26687000  1.0
  O  O16  1  0.83249000  0.30460000  0.32855000  1.0
