# generated using pymatgen
data_H12C14N5
_symmetry_space_group_name_H-M   'P 1'
_cell_length_a   23.44369238
_cell_length_b   23.44830000
_cell_length_c   44.85700000
_cell_angle_alpha   91.13360000
_cell_angle_beta   90.00000000
_cell_angle_gamma   119.99350000
_symmetry_Int_Tables_number   1
_chemical_formula_structural   H12C14N5
_chemical_formula_sum   'H144 C168 N60'
_cell_volume   21350.75999023
_cell_formula_units_Z   12
loop_
 _symmetry_equiv_pos_site_id
 _symmetry_equiv_pos_as_xyz
  1  'x, y, z'
loop_
 _atom_site_type_symbol
 _atom_site_label
 _atom_site_symmetry_multiplicity
 _atom_site_fract_x
 _atom_site_fract_y
 _atom_site_fract_z
 _atom_site_occupancy
  C  1  1  0.28746650  0.74697150  0.76931300  1
  C  2  1  0.25237450  0.71005150  0.82053900  1
  C  3  1  0.23566300  0.71089300  0.78997600  1
  C  4  1  0.27849750  0.74067950  0.73779400  1
  C  5  1  0.29233700  0.72212400  0.67691300  1
  C  6  1  0.25123250  0.66629850  0.69377600  1
  C  7  1  0.24590850  0.67652350  0.72446800  1
  C  12  1  0.21448100  0.60474800  0.67870000  1
  C  13  1  0.20700950  0.66936450  0.84228500  1
  C  16  1  0.28424400  0.53880100  0.10207200  1
  C  17  1  0.24410800  0.56428200  0.11297600  1
  C  18  1  0.24093150  0.57727250  0.14343200  1
  C  19  1  0.27944150  0.56409050  0.16288600  1
  C  22  1  0.29113850  0.53729650  0.07058400  1
  C  23  1  0.23534300  0.51329600  0.05097700  1
  C  24  1  0.24535650  0.53378950  0.02077900  1
  C  28  1  0.20022600  0.60006800  0.15573900  1
  C  29  1  0.19245200  0.51946900  0.00106300  1
  C  32  1  0.07999500  0.50819000  0.93718200  1
  C  33  1  0.14863100  0.55622300  0.92952400  1
  C  38  1  0.22110950  0.63353250  0.89437200  1
  C  39  1  0.27638650  0.64852950  0.91254100  1
  C  41  1  0.20407000  0.57140900  0.94758100  1
  C  46  1  0.08059250  0.56160050  0.15710400  1
  C  47  1  0.06652500  0.57827400  0.18574200  1
  C  48  1  0.11532050  0.62815950  0.20675200  1
  C  54  1  0.12214800  0.58001500  0.62269600  1
  C  55  1  0.07892050  0.53045650  0.64437500  1
  C  61  1  0.09640250  0.52149450  0.67363800  1
  C  127  1  0.35311800  0.78769200  0.78016100  1
  C  128  1  0.31916500  0.75061600  0.82964600  1
  C  130  1  0.30949700  0.79677900  0.71915000  1
  C  131  1  0.32014950  0.78744450  0.68857400  1
  C  136  1  0.35811100  0.84079400  0.66967500  1
  C  137  1  0.31958300  0.53758700  0.15365400  1
  C  138  1  0.31924400  0.52135700  0.12276800  1
  C  139  1  0.31091400  0.57050000  0.01034800  1
  C  140  1  0.35544450  0.56804650  0.05839800  1
  C  145  1  0.35999300  0.53199900  0.17561000  1
  C  146  1  0.34545400  0.69645700  0.90512400  1
  C  151  1  0.33774650  0.64710150  0.23915000  1
  C  185  1  0.36621400  0.58385600  0.02801800  1
  C  187  1  0.37003950  0.79064050  0.81039300  1
  C  189  1  0.43319750  0.83343850  0.82272300  1
  C  192  1  0.45614150  0.66419750  0.47598700  1
  C  194  1  0.45222750  0.78261350  0.36101200  1
  C  197  1  0.42825150  0.81944250  0.34637700  1
  C  198  1  0.43440100  0.60103200  0.48752900  1
  C  202  1  0.42750000  0.60707500  0.01381800  1
  C  206  1  0.44099950  0.88553450  0.59860000  1
  C  209  1  0.44851200  0.81353500  0.56252700  1
  C  210  1  0.40824500  0.75817400  0.57993600  1
  C  211  1  0.38832050  0.68927750  0.57154200  1
  C  214  1  0.40080650  0.83005250  0.61591700  1
  C  217  1  0.39918450  0.58454350  0.22786000  1
  C  218  1  0.38591900  0.62597600  0.24638000  1
  C  220  1  0.45578150  0.48887050  0.51687400  1
  C  221  1  0.40666500  0.48865800  0.53759000  1
  C  227  1  0.45329050  0.54141750  0.95704200  1
  C  275  1  0.49448200  0.74619300  0.43593400  1
  C  276  1  0.46937300  0.68057500  0.44586600  1
  C  277  1  0.46859400  0.71566700  0.49610300  1
  C  278  1  0.49463800  0.78228900  0.48791200  1
  C  279  1  0.51111250  0.79842650  0.45738500  1
  C  281  1  0.49755750  0.75497050  0.40453700  1
  C  282  1  0.52305400  0.72378000  0.38535100  1
  C  283  1  0.50377500  0.71292700  0.35467200  1
  C  284  1  0.46676600  0.74084000  0.34352500  1
  C  285  1  0.46694350  0.78809750  0.39176600  1
  C  289  1  0.49994400  0.82801800  0.51049400  1
  C  290  1  0.51958900  0.67473400  0.33520500  1
  C  293  1  0.54987400  0.27368100  0.93984100  1
  C  294  1  0.54998600  0.23950500  0.99141600  1
  C  295  1  0.53365850  0.22225650  0.96060900  1
  C  296  1  0.54778950  0.26435050  0.90832300  1
  C  297  1  0.52335650  0.29551450  0.88913500  1
  C  298  1  0.54478750  0.30690750  0.85898900  1
  C  304  1  0.54591350  0.19479650  0.01331800  1
  C  305  1  0.53066800  0.34564600  0.83982500  1
  C  308  1  0.46030050  0.95400950  0.60714900  1
  C  312  1  0.52725750  0.56985150  0.26989600  1
  C  313  1  0.47909400  0.59074100  0.26262400  1
  C  317  1  0.46555500  0.63196800  0.28111900  1
  C  320  1  0.51932550  0.44780250  0.77790300  1
  C  325  1  0.55330450  0.11194950  0.79345100  1
  C  326  1  0.55920050  0.06739750  0.81456500  1
  C  329  1  0.51796150  0.95197750  0.82293800  1
  C  330  1  0.54958950  0.96807450  0.85136600  1
  C  331  1  0.55043150  0.92063650  0.87230500  1
  C  334  1  0.54761850  0.47858050  0.48074600  1
  C  336  1  0.47222500  0.51926800  0.48863500  1
  C  338  1  0.53608400  0.45354700  0.51017100  1
  C  340  1  0.49417900  0.90712000  0.29008300  1
  C  341  1  0.48817550  0.95201850  0.31187400  1
  C  345  1  0.52838250  0.06756550  0.32173000  1
  C  346  1  0.49690700  0.05211100  0.34986000  1
  C  347  1  0.49415050  0.09987250  0.37094300  1
  C  351  1  0.46318650  0.93714250  0.34140900  1
  C  352  1  0.50344250  0.54847350  0.97914100  1
  C  355  1  0.51178950  0.57382650  0.00897000  1
  C  457  1  0.76039450  0.27447450  0.27310700  1
  C  458  1  0.69482850  0.23313150  0.28316200  1
  C  459  1  0.67812700  0.22845300  0.31342300  1
  C  460  1  0.72911500  0.26780400  0.33358400  1
  C  461  1  0.79561750  0.30964250  0.32524000  1
  C  462  1  0.81222200  0.31012200  0.29455400  1
  C  465  1  0.76922950  0.28103850  0.24169000  1
  C  466  1  0.73771300  0.22486300  0.22195100  1
  C  467  1  0.72590500  0.23402200  0.19171800  1
  C  468  1  0.75382400  0.29924800  0.18132500  1
  C  469  1  0.79638650  0.35503150  0.19906100  1
  C  470  1  0.80250100  0.34505300  0.22951500  1
  C  479  1  0.83348500  0.41603200  0.18485200  1
  C  480  1  0.84070850  0.35055550  0.34786000  1
  C  481  1  0.61516950  0.18483150  0.32487400  1
  C  482  1  0.68663800  0.18054400  0.17200200  1
  C  487  1  0.57446950  0.33946250  0.95067200  1
  C  488  1  0.58616550  0.35670850  0.98111300  1
  C  489  1  0.57458450  0.30617550  0.00062200  1
  C  492  1  0.58267650  0.27918850  0.84810400  1
  C  493  1  0.59651650  0.23766550  0.86526800  1
  C  494  1  0.57969650  0.23179250  0.89565700  1
  C  497  1  0.62203050  0.20132050  0.85067600  1
  C  498  1  0.60494900  0.41988100  0.99320400  1
  C  501  1  0.75699250  0.48380150  0.60728700  1
  C  502  1  0.79820200  0.45910400  0.61706500  1
  C  503  1  0.80298450  0.44612050  0.64709100  1
  C  504  1  0.76355600  0.45691100  0.66726700  1
  C  505  1  0.72172200  0.48191900  0.65919500  1
  C  506  1  0.72119050  0.49907350  0.62882800  1
  C  509  1  0.75091150  0.48755750  0.57589900  1
  C  510  1  0.80736900  0.51311000  0.55714200  1
  C  511  1  0.79875450  0.49282850  0.52651400  1
  C  512  1  0.73371200  0.45516600  0.51489200  1
  C  513  1  0.67755350  0.44084650  0.53185700  1
  C  514  1  0.68702000  0.45635300  0.56263400  1
  C  523  1  0.61649650  0.41596750  0.51673400  1
  C  524  1  0.68124350  0.48592450  0.68171700  1
  C  525  1  0.84706700  0.42683700  0.65824700  1
  C  526  1  0.85259650  0.50795750  0.50759800  1
  C  531  1  0.96636900  0.51671700  0.44444700  1
  C  532  1  0.89786450  0.46737750  0.43620300  1
  C  537  1  0.82582650  0.38715550  0.40030200  1
  C  538  1  0.77052100  0.37226200  0.41812400  1
  C  539  1  0.70168700  0.32306900  0.40994200  1
  C  544  1  0.84240450  0.45255950  0.45386900  1
  C  547  1  0.58220900  0.06787000  0.10728800  1
  C  548  1  0.60279750  0.13665550  0.10012100  1
  C  552  1  0.59698400  0.20953000  0.06548900  1
  C  553  1  0.63776850  0.26460250  0.08407500  1
  C  554  1  0.65869300  0.33367400  0.07695900  1
  C  559  1  0.64369550  0.19188050  0.11858700  1
  C  561  1  0.56844550  0.42868350  0.76949600  1
  C  563  1  0.64682700  0.43582000  0.73362800  1
  C  564  1  0.66276600  0.39606900  0.75110000  1
  C  565  1  0.71162900  0.37624100  0.74284700  1
  C  570  1  0.58436300  0.38870500  0.78679000  1
  C  575  1  0.58508350  0.08311050  0.84422900  1
  C  577  1  0.59912200  0.48401100  0.46000100  1
  C  581  1  0.91892250  0.43322650  0.12777800  1
  C  582  1  0.96471550  0.48526950  0.14899400  1
  C  586  1  0.95114200  0.49698300  0.17876300  1
  C  588  1  0.57884100  0.50927000  0.98919500  1
  C  589  1  0.59324100  0.54121100  0.01766400  1
  C  590  1  0.64366600  0.54571700  0.03885000  1
  C  595  1  0.96417800  0.45667500  0.65467000  1
  C  596  1  0.98206700  0.44159100  0.68243100  1
  C  597  1  0.93594450  0.39287150  0.70358500  1
  H  8  1  0.22270250  0.63597150  0.73754200  1
  H  10  1  0.15995250  0.68948950  0.76087500  1
  H  11  1  0.13523600  0.66301000  0.79446700  1
  H  14  1  0.22324400  0.60335500  0.65657000  1
  H  15  1  0.15842050  0.63771250  0.83777500  1
  H  20  1  0.21999400  0.57832100  0.09840000  1
  H  21  1  0.27443950  0.57059250  0.18509600  1
  H  26  1  0.13609950  0.44607950  0.04861700  1
  H  27  1  0.16948600  0.44971900  0.08094600  1
  H  30  1  0.20740350  0.61404350  0.17765400  1
  H  31  1  0.14451600  0.49314500  0.00720800  1
  H  34  1  0.05138900  0.53319400  0.93884700  1
  H  35  1  0.07656100  0.48445500  0.95829000  1
  H  36  1  0.05841100  0.47002400  0.91971000  1
  H  44  1  0.28834800  0.60421500  0.23765200  1
  H  49  1  0.14380150  0.60897450  0.21746900  1
  H  50  1  0.09106000  0.64107500  0.22423700  1
  H  51  1  0.14821650  0.67306750  0.19500300  1
  H  56  1  0.15882500  0.56809900  0.61451700  1
  H  57  1  0.14632250  0.62913950  0.63306300  1
  H  58  1  0.09442100  0.58110600  0.60334000  1
  H  125  1  0.99569350  0.49255150  0.44611100  1
  H  129  1  0.33126300  0.75514200  0.85174000  1
  H  132  1  0.29689450  0.71496550  0.65465000  1
  H  134  1  0.34126500  0.89613800  0.71909800  1
  H  135  1  0.31152250  0.86188750  0.75087400  1
  H  141  1  0.31848950  0.58239450  0.98830800  1
  H  143  1  0.34041950  0.46762050  0.09289200  1
  H  144  1  0.36587550  0.46742850  0.12676200  1
  H  147  1  0.35815800  0.68284700  0.88377100  1
  H  148  1  0.35165600  0.74565100  0.90386600  1
  H  149  1  0.36252950  0.67605850  0.55006200  1
  H  150  1  0.35541850  0.65491150  0.58802100  1
  H  152  1  0.35006650  0.67239750  0.21794600  1
  H  153  1  0.33761300  0.68078200  0.25628500  1
  H  155  1  0.36144650  0.47649950  0.52548800  1
  H  188  1  0.39077600  0.81299700  0.76559600  1
  H  190  1  0.44061300  0.82800000  0.84460700  1
  H  191  1  0.37842000  0.88859800  0.67663000  1
  H  193  1  0.45627500  0.64260700  0.43074000  1
  H  195  1  0.45573350  0.73613050  0.32121200  1
  H  196  1  0.44978050  0.81188350  0.40523000  1
  H  199  1  0.41728300  0.80946600  0.32428500  1
  H  200  1  0.42015150  0.59368450  0.50919700  1
  H  201  1  0.39574500  0.58417600  0.07213400  1
  H  203  1  0.42965400  0.61819400  0.99188100  1
  H  204  1  0.39215250  0.51582350  0.17098700  1
  H  205  1  0.37969450  0.69791150  0.92204100  1
  H  207  1  0.43904800  0.95729600  0.62828600  1
  H  208  1  0.44377650  0.97491550  0.58994500  1
  H  212  1  0.43182250  0.68385450  0.57009700  1
  H  222  1  0.42639450  0.53666550  0.54873500  1
  H  223  1  0.39410550  0.45197750  0.55476700  1
  H  224  1  0.44545600  0.86968100  0.28211400  1
  H  225  1  0.45106300  0.07530400  0.38517900  1
  H  228  1  0.40428000  0.51571900  0.96673600  1
  H  229  1  0.45248750  0.51297450  0.93728600  1
  H  273  1  0.45538850  0.32667550  0.88758200  1
  H  280  1  0.46206100  0.70407600  0.51810300  1
  H  288  1  0.56506100  0.87372900  0.42904100  1
  H  291  1  0.51572350  0.87629850  0.50659700  1
  H  292  1  0.54676750  0.65443150  0.34193000  1
  H  301  1  0.48083650  0.14595550  0.93101000  1
  H  302  1  0.48132450  0.12195350  0.96490800  1
  H  303  1  0.45875950  0.29672450  0.91955700  1
  H  306  1  0.53009450  0.14637950  0.00873600  1
  H  307  1  0.50341450  0.36639750  0.84626300  1
  H  309  1  0.51381900  0.98332100  0.60920700  1
  H  314  1  0.50191850  0.51630050  0.27124700  1
  H  315  1  0.55278400  0.59098100  0.29105100  1
  H  316  1  0.56401950  0.58526950  0.25237800  1
  H  319  1  0.52863150  0.03938150  0.10867300  1
  H  321  1  0.54337050  0.50133850  0.78004300  1
  H  322  1  0.49561700  0.42685500  0.79896800  1
  H  323  1  0.48126050  0.43082350  0.76058800  1
  H  327  1  0.52417900  0.08526500  0.77368800  1
  H  332  1  0.50348900  0.89468800  0.88376000  1
  H  342  1  0.51953500  0.88393600  0.30026500  1
  H  343  1  0.52246800  0.93328700  0.27059800  1
  H  348  1  0.53804200  0.12259000  0.38518400  1
  H  349  1  0.49030500  0.13785900  0.35892400  1
  H  353  1  0.46432050  0.58981950  0.94959200  1
  H  439  1  0.52889300  0.13615400  0.80406700  1
  H  440  1  0.56002950  0.88535150  0.86034900  1
  H  445  1  0.56453450  0.89883850  0.46321600  1
  H  446  1  0.59092100  0.69231600  0.38460600  1
  H  447  1  0.58558750  0.72219950  0.41683500  1
  H  463  1  0.65706650  0.20827950  0.26807900  1
  H  464  1  0.71736050  0.26219650  0.35564400  1
  H  471  1  0.74865550  0.30617850  0.15924700  1
  H  472  1  0.82648250  0.38573650  0.24328900  1
  H  475  1  0.88819950  0.33315850  0.26577500  1
  H  476  1  0.91274950  0.35849850  0.30000800  1
  H  477  1  0.70712700  0.12591500  0.21953800  1
  H  478  1  0.73727000  0.15999100  0.25203000  1
  H  483  1  0.82274300  0.41724900  0.16297700  1
  H  484  1  0.88898800  0.38328300  0.34390800  1
  H  485  1  0.60841950  0.18859150  0.34712400  1
  H  486  1  0.66577200  0.13284300  0.17821200  1
  H  490  1  0.58731400  0.37686200  0.93603000  1
  H  491  1  0.58106250  0.31847050  0.02281700  1
  H  495  1  0.59555200  0.28429000  0.82609800  1
  H  496  1  0.59662650  0.20849850  0.90909300  1
  H  499  1  0.63344550  0.21082450  0.82878600  1
  H  500  1  0.61289350  0.42679650  0.01569500  1
  H  507  1  0.82320650  0.44693350  0.60186000  1
  H  508  1  0.76903350  0.44969650  0.68918900  1
  H  515  1  0.72710900  0.44332500  0.49258400  1
  H  516  1  0.64618300  0.43896000  0.57576100  1
  H  519  1  0.69815050  0.55279750  0.60091200  1
  H  520  1  0.67286950  0.55100150  0.63499600  1
  H  521  1  0.90647750  0.58153250  0.55704800  1
  H  522  1  0.87154650  0.57657950  0.58900200  1
  H  527  1  0.61523000  0.40425500  0.49470500  1
  H  528  1  0.64862300  0.50175900  0.67791200  1
  H  529  1  0.84426950  0.41626250  0.68031200  1
  H  530  1  0.90020450  0.53551050  0.51461300  1
  H  534  1  0.96973550  0.54163450  0.46570700  1
  H  535  1  0.98721900  0.55383300  0.42727700  1
  H  540  1  0.68846900  0.33531400  0.38864400  1
  H  541  1  0.66723600  0.32169100  0.42669300  1
  H  542  1  0.69641700  0.27419200  0.40818300  1
  H  549  1  0.60299450  0.06408550  0.12840100  1
  H  550  1  0.59823550  0.04638650  0.08970100  1
  H  555  1  0.68444200  0.34637100  0.05573500  1
  H  556  1  0.69187800  0.36790600  0.09411400  1
  H  557  1  0.61564650  0.33985050  0.07553000  1
  H  566  1  0.69831750  0.34998950  0.72134600  1
  H  567  1  0.71392700  0.34380900  0.75935700  1
  H  568  1  0.76039750  0.41983850  0.74148400  1
  H  572  1  0.60198250  0.14859950  0.78585300  1
  H  573  1  0.58915300  0.94584600  0.88919400  1
  H  578  1  0.58739050  0.43517550  0.45188000  1
  H  579  1  0.64718700  0.50851300  0.47112800  1
  H  580  1  0.60265450  0.51283950  0.44052300  1
  H  583  1  0.88152450  0.44440650  0.12014600  1
  H  584  1  0.89571350  0.38534350  0.13831700  1
  H  585  1  0.94437050  0.42963650  0.10803700  1
  H  591  1  0.62069850  0.50729950  0.05534000  1
  H  592  1  0.66733300  0.59358300  0.05044600  1
  H  593  1  0.68216850  0.54103150  0.02733700  1
  H  598  1  0.91360400  0.41492400  0.71749100  1
  H  599  1  0.96173000  0.37622000  0.71818600  1
  H  600  1  0.89759000  0.34970100  0.69158200  1
  N  9  1  0.17141300  0.68188500  0.78062400  1
  N  25  1  0.17435500  0.46908200  0.06149300  1
  N  37  1  0.15988600  0.58811500  0.90328700  1
  N  40  1  0.26484200  0.61630900  0.93843100  1
  N  42  1  0.23182250  0.66295050  0.86816300  1
  N  43  1  0.20259300  0.54762600  0.97449700  1
  N  45  1  0.02863250  0.51712250  0.14051800  1
  N  52  1  0.00300250  0.54350350  0.19511900  1
  N  53  1  0.13807050  0.57227950  0.14509100  1
  N  59  1  0.01382750  0.49885650  0.63723000  1
  N  60  1  0.04684100  0.47658800  0.69064300  1
  N  62  1  0.15416500  0.56002700  0.68856900  1
  N  133  1  0.32564800  0.85737100  0.73102600  1
  N  142  1  0.34770350  0.48578450  0.11309200  1
  N  154  1  0.36787650  0.56462950  0.20161200  1
  N  213  1  0.38626750  0.76945450  0.60597600  1
  N  215  1  0.37774350  0.83181750  0.64288500  1
  N  216  1  0.44510150  0.56891450  0.23640300  1
  N  219  1  0.42009200  0.64772500  0.27234400  1
  N  226  1  0.44454350  0.88063450  0.35641100  1
  N  286  1  0.54649050  0.86255550  0.44884700  1
  N  287  1  0.56731500  0.70780800  0.39684600  1
  N  299  1  0.49915650  0.15783750  0.95107700  1
  N  300  1  0.47823300  0.31121600  0.90006200  1
  N  310  1  0.46295950  0.87453550  0.57223800  1
  N  311  1  0.46826300  0.80319200  0.53610000  1
  N  318  1  0.49178450  0.65402250  0.30820800  1
  N  324  1  0.56013350  0.36473450  0.81346500  1
  N  328  1  0.52597250  0.00276350  0.80626000  1
  N  333  1  0.46936350  0.89398850  0.81148500  1
  N  335  1  0.51615300  0.51107300  0.47233000  1
  N  337  1  0.49015450  0.45963750  0.52622600  1
  N  339  1  0.46180500  0.56619400  0.47691000  1
  N  344  1  0.52064300  0.01637700  0.30438600  1
  N  350  1  0.46815700  0.98820000  0.35836900  1
  N  354  1  0.53607050  0.51621250  0.97159500  1
  N  356  1  0.47260200  0.59193900  0.02392100  1
  N  441  1  0.55720650  0.56961150  0.02622300  1
  N  448  1  0.57775150  0.22061950  0.03930300  1
  N  449  1  0.57259100  0.43387900  0.52596100  1
  N  450  1  0.57771800  0.12531400  0.31157700  1
  N  473  1  0.87648150  0.33966650  0.28580900  1
  N  474  1  0.72230750  0.16437450  0.23245200  1
  N  517  1  0.69137600  0.53380500  0.62052800  1
  N  518  1  0.86760400  0.55796400  0.56903600  1
  N  536  1  0.88683200  0.43393500  0.40975000  1
  N  543  1  0.78178500  0.40617500  0.44422000  1
  N  545  1  0.81527700  0.35681100  0.37372000  1
  N  546  1  0.84455250  0.47870650  0.48081200  1
  N  551  1  0.58141900  0.14820700  0.07395300  1
  N  558  1  0.65931400  0.25281200  0.10989700  1
  N  560  1  0.66667483  0.18929883  0.14542800  1
  N  562  1  0.60047250  0.45026450  0.74322600  1
  N  569  1  0.63025550  0.37426850  0.77697100  1
  N  571  1  0.67602700  0.45489000  0.70727600  1
  N  574  1  0.57943000  0.03241200  0.86060800  1
  N  576  1  0.60481550  0.14029050  0.85994300  1
  N  587  1  0.89509750  0.46022150  0.19443400  1
  N  594  1  0.58633100  0.45849200  0.97929900  1
  N  601  1  0.90570000  0.44832700  0.64500400  1
