# generated using pymatgen
data_Zn4H24C51(O7F9)2
_symmetry_space_group_name_H-M   'P 1'
_cell_length_a   7.64092000
_cell_length_b   17.77844000
_cell_length_c   23.89003000
_cell_angle_alpha   93.40612000
_cell_angle_beta   90.00000000
_cell_angle_gamma   90.00000000
_symmetry_Int_Tables_number   1
_chemical_formula_structural   Zn4H24C51(O7F9)2
_chemical_formula_sum   'Zn8 H48 C102 O28 F36'
_cell_volume   3239.57570323
_cell_formula_units_Z   2
loop_
 _symmetry_equiv_pos_site_id
 _symmetry_equiv_pos_as_xyz
  1  'x, y, z'
loop_
 _atom_site_type_symbol
 _atom_site_label
 _atom_site_symmetry_multiplicity
 _atom_site_fract_x
 _atom_site_fract_y
 _atom_site_fract_z
 _atom_site_occupancy
  Zn  Zn0  1  0.49510000  0.43029000  0.96516000  1
  Zn  Zn1  1  0.79196000  0.49863000  0.91537000  1
  Zn  Zn2  1  0.49510000  0.06970000  0.53484000  1
  Zn  Zn3  1  0.79196000  0.00136000  0.58464000  1
  Zn  Zn4  1  0.50489000  0.56971000  0.03484000  1
  Zn  Zn5  1  0.20803000  0.50137000  0.08464000  1
  Zn  Zn6  1  0.50489000  0.93030000  0.46516000  1
  Zn  Zn7  1  0.20803000  0.99864000  0.41536000  1
  H  H8  1  0.03270000  0.60456000  0.78336000  1
  H  H9  1  0.22747000  0.67621000  0.72300000  1
  H  H10  1  0.58002000  0.71659000  0.86282000  1
  H  H11  1  0.57477000  0.99207000  0.74116000  1
  H  H12  1  0.43571000  0.98905000  0.83369000  1
  H  H13  1  0.97653000  0.09558000  0.76868000  1
  H  H14  1  0.11616000  0.09468000  0.67497000  1
  H  H15  1  0.24046000  0.18042000  0.85626000  1
  H  H16  1  0.11715000  0.30587000  0.88419000  1
  H  H17  1  0.63787000  0.20140000  0.93329000  1
  H  H18  1  0.76221000  0.07618000  0.90917000  1
  H  H19  1  0.38078000  0.64618000  0.92259000  1
  H  H20  1  0.03270000  0.89543000  0.71664000  1
  H  H21  1  0.22747000  0.82379000  0.77700000  1
  H  H22  1  0.58002000  0.78341000  0.63718000  1
  H  H23  1  0.57477000  0.50793000  0.75885000  1
  H  H24  1  0.43571000  0.51095000  0.66631000  1
  H  H25  1  0.97653000  0.40441000  0.73132000  1
  H  H26  1  0.11616000  0.40532000  0.82504000  1
  H  H27  1  0.24046000  0.31958000  0.64375000  1
  H  H28  1  0.11715000  0.19412000  0.61581000  1
  H  H29  1  0.63787000  0.29859000  0.56672000  1
  H  H30  1  0.76221000  0.42382000  0.59083000  1
  H  H31  1  0.38078000  0.85382000  0.57741000  1
  H  H32  1  0.96730000  0.39543000  0.21664000  1
  H  H33  1  0.77252000  0.32379000  0.27700000  1
  H  H34  1  0.41998000  0.28341000  0.13718000  1
  H  H35  1  0.42522000  0.00793000  0.25885000  1
  H  H36  1  0.56429000  0.01095000  0.16631000  1
  H  H37  1  0.02347000  0.90441000  0.23132000  1
  H  H38  1  0.88384000  0.90532000  0.32504000  1
  H  H39  1  0.75953000  0.81958000  0.14375000  1
  H  H40  1  0.88284000  0.69413000  0.11581000  1
  H  H41  1  0.36213000  0.79859000  0.06672000  1
  H  H42  1  0.23779000  0.92382000  0.09083000  1
  H  H43  1  0.61922000  0.35382000  0.07741000  1
  H  H44  1  0.96730000  0.10456000  0.28336000  1
  H  H45  1  0.77252000  0.17621000  0.22300000  1
  H  H46  1  0.41998000  0.21659000  0.36282000  1
  H  H47  1  0.42522000  0.49207000  0.24116000  1
  H  H48  1  0.56429000  0.48905000  0.33369000  1
  H  H49  1  0.02347000  0.59559000  0.26868000  1
  H  H50  1  0.88384000  0.59468000  0.17497000  1
  H  H51  1  0.75953000  0.68042000  0.35626000  1
  H  H52  1  0.88284000  0.80588000  0.38419000  1
  H  H53  1  0.36213000  0.70141000  0.43328000  1
  H  H54  1  0.23779000  0.57618000  0.40917000  1
  H  H55  1  0.61922000  0.14618000  0.42259000  1
  C  C56  1  0.79275000  0.33754000  0.92504000  1
  C  C57  1  0.06886000  0.58224000  0.89229000  1
  C  C58  1  0.19260000  0.62313000  0.85685000  1
  C  C59  1  0.15185000  0.63030000  0.80025000  1
  C  C60  1  0.26227000  0.67049000  0.76660000  1
  C  C61  1  0.41520000  0.70438000  0.78905000  1
  C  C62  1  0.45985000  0.69350000  0.84494000  1
  C  C63  1  0.64784000  0.80824000  0.78355000  1
  C  C64  1  0.44794000  0.04573000  0.64782000  1
  C  C65  1  0.35648000  0.04490000  0.70293000  1
  C  C66  1  0.44417000  0.01495000  0.74791000  1
  C  C67  1  0.36443000  0.01372000  0.80019000  1
  C  C68  1  0.19615000  0.04364000  0.80847000  1
  C  C69  1  0.10786000  0.07302000  0.76296000  1
  C  C70  1  0.18643000  0.07334000  0.71033000  1
  C  C71  1  0.09866000  0.04190000  0.86470000  1
  C  C72  1  0.96192000  0.97683000  0.85727000  1
  C  C73  1  0.22294000  0.02441000  0.91458000  1
  C  C74  1  0.01127000  0.11857000  0.88036000  1
  C  C75  1  0.10905000  0.18444000  0.87353000  1
  C  C76  1  0.03982000  0.25518000  0.88881000  1
  C  C77  1  0.86923000  0.26151000  0.91052000  1
  C  C78  1  0.77063000  0.19620000  0.91704000  1
  C  C79  1  0.84162000  0.12541000  0.90263000  1
  C  C80  1  0.34886000  0.65345000  0.87885000  1
  C  C81  1  0.79275000  0.16246000  0.57497000  1
  C  C82  1  0.06886000  0.91775000  0.60771000  1
  C  C83  1  0.19260000  0.87687000  0.64315000  1
  C  C84  1  0.15185000  0.86970000  0.69975000  1
  C  C85  1  0.26228000  0.82951000  0.73340000  1
  C  C86  1  0.41520000  0.79561000  0.71095000  1
  C  C87  1  0.45985000  0.80650000  0.65507000  1
  C  C88  1  0.64784000  0.69176000  0.71645000  1
  C  C89  1  0.44794000  0.45427000  0.85219000  1
  C  C90  1  0.35648000  0.45510000  0.79707000  1
  C  C91  1  0.44417000  0.48504000  0.75210000  1
  C  C92  1  0.36443000  0.48627000  0.69982000  1
  C  C93  1  0.19615000  0.45636000  0.69154000  1
  C  C94  1  0.10786000  0.42698000  0.73704000  1
  C  C95  1  0.18643000  0.42666000  0.78967000  1
  C  C96  1  0.09866000  0.45809000  0.63530000  1
  C  C97  1  0.96192000  0.52317000  0.64273000  1
  C  C98  1  0.22294000  0.47558000  0.58543000  1
  C  C99  1  0.01127000  0.38143000  0.61965000  1
  C  C100  1  0.10905000  0.31555000  0.62647000  1
  C  C101  1  0.03982000  0.24482000  0.61119000  1
  C  C102  1  0.86923000  0.23848000  0.58949000  1
  C  C103  1  0.77063000  0.30380000  0.58296000  1
  C  C104  1  0.84162000  0.37459000  0.59738000  1
  C  C105  1  0.34886000  0.84655000  0.62115000  1
  C  C106  1  0.20725000  0.66246000  0.07496000  1
  C  C107  1  0.93113000  0.41775000  0.10771000  1
  C  C108  1  0.80740000  0.37687000  0.14315000  1
  C  C109  1  0.84815000  0.36970000  0.19975000  1
  C  C110  1  0.73772000  0.32951000  0.23340000  1
  C  C111  1  0.58479000  0.29561000  0.21095000  1
  C  C112  1  0.54015000  0.30650000  0.15506000  1
  C  C113  1  0.35215000  0.19176000  0.21645000  1
  C  C114  1  0.55206000  0.95427000  0.35219000  1
  C  C115  1  0.64352000  0.95510000  0.29707000  1
  C  C116  1  0.55583000  0.98505000  0.25210000  1
  C  C117  1  0.63556000  0.98627000  0.19981000  1
  C  C118  1  0.80384000  0.95636000  0.19153000  1
  C  C119  1  0.89214000  0.92698000  0.23704000  1
  C  C120  1  0.81356000  0.92666000  0.28967000  1
  C  C121  1  0.90134000  0.95809000  0.13530000  1
  C  C122  1  0.03807000  0.02317000  0.14273000  1
  C  C123  1  0.77706000  0.97558000  0.08542000  1
  C  C124  1  0.98873000  0.88143000  0.11964000  1
  C  C125  1  0.89094000  0.81556000  0.12647000  1
  C  C126  1  0.96018000  0.74482000  0.11119000  1
  C  C127  1  0.13077000  0.73849000  0.08949000  1
  C  C128  1  0.22937000  0.80380000  0.08296000  1
  C  C129  1  0.15838000  0.87459000  0.09738000  1
  C  C130  1  0.65114000  0.34655000  0.12115000  1
  C  C131  1  0.20725000  0.83754000  0.42504000  1
  C  C132  1  0.93113000  0.08225000  0.39229000  1
  C  C133  1  0.80740000  0.12313000  0.35685000  1
  C  C134  1  0.84815000  0.13030000  0.30025000  1
  C  C135  1  0.73772000  0.17049000  0.26660000  1
  C  C136  1  0.58479000  0.20439000  0.28905000  1
  C  C137  1  0.54015000  0.19350000  0.34494000  1
  C  C138  1  0.35215000  0.30824000  0.28355000  1
  C  C139  1  0.55206000  0.54573000  0.14781000  1
  C  C140  1  0.64352000  0.54490000  0.20293000  1
  C  C141  1  0.55583000  0.51495000  0.24790000  1
  C  C142  1  0.63556000  0.51373000  0.30019000  1
  C  C143  1  0.80384000  0.54364000  0.30847000  1
  C  C144  1  0.89214000  0.57302000  0.26296000  1
  C  C145  1  0.81357000  0.57334000  0.21033000  1
  C  C146  1  0.90134000  0.54191000  0.36470000  1
  C  C147  1  0.03807000  0.47683000  0.35727000  1
  C  C148  1  0.77706000  0.52442000  0.41458000  1
  C  C149  1  0.98873000  0.61857000  0.38036000  1
  C  C150  1  0.89094000  0.68445000  0.37353000  1
  C  C151  1  0.96018000  0.75518000  0.38881000  1
  C  C152  1  0.13076000  0.76151000  0.41051000  1
  C  C153  1  0.22937000  0.69620000  0.41704000  1
  C  C154  1  0.15838000  0.62541000  0.40262000  1
  C  C155  1  0.65114000  0.15345000  0.37885000  1
  C  C156  1  0.52906000  0.75000000  0.75000000  1
  C  C157  1  0.47094000  0.25000000  0.25000000  1
  O  O158  1  0.64582000  0.34009000  0.95142000  1
  O  O159  1  0.88005000  0.39391000  0.90979000  1
  O  O160  1  0.92383000  0.56120000  0.86750000  1
  O  O161  1  0.10066000  0.56813000  0.94219000  1
  O  O162  1  0.59972000  0.01657000  0.64525000  1
  O  O163  1  0.36728000  0.07557000  0.60757000  1
  O  O164  1  0.64080000  0.52506000  0.97585000  1
  O  O165  1  0.64582000  0.15990000  0.54859000  1
  O  O166  1  0.88005000  0.10609000  0.59021000  1
  O  O167  1  0.92383000  0.93879000  0.63251000  1
  O  O168  1  0.10066000  0.93186000  0.55781000  1
  O  O169  1  0.59972000  0.48342000  0.85475000  1
  O  O170  1  0.36728000  0.42442000  0.89244000  1
  O  O171  1  0.64080000  0.97494000  0.52415000  1
  O  O172  1  0.35417000  0.65991000  0.04859000  1
  O  O173  1  0.11995000  0.60609000  0.09021000  1
  O  O174  1  0.07616000  0.43880000  0.13250000  1
  O  O175  1  0.89934000  0.43186000  0.05781000  1
  O  O176  1  0.40028000  0.98343000  0.35475000  1
  O  O177  1  0.63271000  0.92443000  0.39244000  1
  O  O178  1  0.35919000  0.47494000  0.02415000  1
  O  O179  1  0.35417000  0.84009000  0.45141000  1
  O  O180  1  0.11995000  0.89391000  0.40979000  1
  O  O181  1  0.07617000  0.06120000  0.36750000  1
  O  O182  1  0.89933000  0.06813000  0.44219000  1
  O  O183  1  0.40028000  0.51657000  0.14525000  1
  O  O184  1  0.63271000  0.57557000  0.10756000  1
  O  O185  1  0.35919000  0.02506000  0.47585000  1
  F  F186  1  0.55261000  0.84794000  0.82383000  1
  F  F187  1  0.78319000  0.77344000  0.80944000  1
  F  F188  1  0.71717000  0.85990000  0.75019000  1
  F  F189  1  0.82609000  0.99624000  0.82382000  1
  F  F190  1  0.03335000  0.91300000  0.83254000  1
  F  F191  1  0.89133000  0.95801000  0.90667000  1
  F  F192  1  0.36547000  0.07145000  0.91512000  1
  F  F193  1  0.28393000  0.95208000  0.91172000  1
  F  F194  1  0.14183000  0.03467000  0.96500000  1
  F  F195  1  0.55261000  0.65206000  0.67618000  1
  F  F196  1  0.78319000  0.72655000  0.69057000  1
  F  F197  1  0.71717000  0.64010000  0.74982000  1
  F  F198  1  0.82609000  0.50376000  0.67618000  1
  F  F199  1  0.03335000  0.58700000  0.66746000  1
  F  F200  1  0.89133000  0.54199000  0.59333000  1
  F  F201  1  0.36547000  0.42854000  0.58489000  1
  F  F202  1  0.28393000  0.54792000  0.58829000  1
  F  F203  1  0.14183000  0.46533000  0.53501000  1
  F  F204  1  0.44738000  0.15206000  0.17617000  1
  F  F205  1  0.21681000  0.22655000  0.19057000  1
  F  F206  1  0.28283000  0.14010000  0.24981000  1
  F  F207  1  0.17390000  0.00376000  0.17618000  1
  F  F208  1  0.96665000  0.08700000  0.16746000  1
  F  F209  1  0.10866000  0.04199000  0.09333000  1
  F  F210  1  0.63453000  0.92855000  0.08489000  1
  F  F211  1  0.71607000  0.04792000  0.08829000  1
  F  F212  1  0.85817000  0.96533000  0.03500000  1
  F  F213  1  0.44738000  0.34794000  0.32383000  1
  F  F214  1  0.21681000  0.27345000  0.30944000  1
  F  F215  1  0.28283000  0.35990000  0.25019000  1
  F  F216  1  0.17390000  0.49624000  0.32382000  1
  F  F217  1  0.96665000  0.41300000  0.33254000  1
  F  F218  1  0.10866000  0.45801000  0.40667000  1
  F  F219  1  0.63453000  0.57146000  0.41512000  1
  F  F220  1  0.71607000  0.45208000  0.41171000  1
  F  F221  1  0.85817000  0.53467000  0.46500000  1
