# generated using pymatgen
data_ZnH7C14NO6
_symmetry_space_group_name_H-M   'P 1'
_cell_length_a   7.89511000
_cell_length_b   8.49065000
_cell_length_c   13.75809000
_cell_angle_alpha   94.20491000
_cell_angle_beta   93.19307000
_cell_angle_gamma   93.89262000
_symmetry_Int_Tables_number   1
_chemical_formula_structural   ZnH7C14NO6
_chemical_formula_sum   'Zn2 H14 C28 N2 O12'
_cell_volume   915.95584878
_cell_formula_units_Z   2
loop_
 _symmetry_equiv_pos_site_id
 _symmetry_equiv_pos_as_xyz
  1  'x, y, z'
loop_
 _atom_site_type_symbol
 _atom_site_label
 _atom_site_symmetry_multiplicity
 _atom_site_fract_x
 _atom_site_fract_y
 _atom_site_fract_z
 _atom_site_occupancy
  Zn  Zn0  1  0.81099000  0.51862000  0.51079000  1
  Zn  Zn1  1  0.18901000  0.48138000  0.48921000  1
  H  H2  1  0.10269000  0.30044000  0.18890000  1
  H  H3  1  0.49104000  0.26004000  0.83536000  1
  H  H4  1  0.30228000  0.12296000  0.60364000  1
  H  H5  1  0.67588000  0.05617000  0.58564000  1
  H  H6  1  0.45522000  0.42943000  0.31788000  1
  H  H7  1  0.55867000  0.55485000  0.68288000  1
  H  H8  1  0.87343000  0.64816000  0.82145000  1
  H  H9  1  0.17542000  0.68698000  0.12875000  1
  H  H10  1  0.76204000  0.19065000  0.89539000  1
  H  H11  1  0.70169000  0.60956000  0.21679000  1
  H  H12  1  0.31344000  0.39415000  0.77307000  1
  H  H13  1  0.96028000  0.69619000  0.99553000  1
  H  H14  1  0.99201000  0.20733000  0.02280000  1
  H  H15  1  0.44356000  0.61400000  0.18971000  1
  C  C16  1  0.04816000  0.79522000  0.50981000  1
  C  C17  1  0.93668000  0.48681000  0.31808000  1
  C  C18  1  0.09250000  0.51893000  0.78727000  1
  C  C19  1  0.90131000  0.45680000  0.21364000  1
  C  C20  1  0.03827000  0.62793000  0.94830000  1
  C  C21  1  0.92370000  0.29210000  0.06516000  1
  C  C22  1  0.98810000  0.59980000  0.84965000  1
  C  C23  1  0.98873000  0.34732000  0.15855000  1
  C  C24  1  0.23762000  0.45497000  0.82434000  1
  C  C25  1  0.75562000  0.51602000  0.17417000  1
  C  C26  1  0.29121000  0.48162000  0.92276000  1
  C  C27  1  0.95966000  0.20793000  0.51492000  1
  C  C28  1  0.67756000  0.44938000  0.08593000  1
  C  C29  1  0.19239000  0.57491000  0.98437000  1
  C  C30  1  0.76671000  0.33967000  0.02932000  1
  C  C31  1  0.44699000  0.42845000  0.95924000  1
  C  C32  1  0.51250000  0.48686000  0.05386000  1
  C  C33  1  0.26426000  0.02620000  0.54905000  1
  C  C34  1  0.79430000  0.00220000  0.60023000  1
  C  C35  1  0.48572000  0.37955000  0.38642000  1
  C  C36  1  0.51741000  0.60890000  0.61740000  1
  C  C37  1  0.40869000  0.57655000  0.11442000  1
  C  C38  1  0.53937000  0.31931000  0.90425000  1
  C  C39  1  0.25062000  0.61776000  0.08032000  1
  C  C40  1  0.69622000  0.27576000  0.93909000  1
  C  C41  1  0.08265000  0.96107000  0.53785000  1
  C  C42  1  0.94919000  0.05202000  0.54978000  1
  C  C43  1  0.06288000  0.51098000  0.68198000  1
  N  N44  1  0.44086000  0.45649000  0.47479000  1
  N  N45  1  0.55914000  0.54351000  0.52521000  1
  O  O46  1  0.89157000  0.73893000  0.50619000  1
  O  O47  1  0.80101000  0.90804000  0.66310000  1
  O  O48  1  0.54714000  0.25159000  0.38603000  1
  O  O49  1  0.44599000  0.73164000  0.62460000  1
  O  O50  1  0.10843000  0.26107000  0.49381000  1
  O  O51  1  0.17465000  0.71105000  0.49003000  1
  O  O52  1  0.82535000  0.28895000  0.50997000  1
  O  O53  1  0.90985000  0.52190000  0.64494000  1
  O  O54  1  0.09015000  0.47810000  0.35506000  1
  O  O55  1  0.19293000  0.49402000  0.62878000  1
  O  O56  1  0.80707000  0.50598000  0.37122000  1
  O  O57  1  0.37055000  0.97584000  0.49601000  1
