# generated using pymatgen
data_H7C16(NO)4
_symmetry_space_group_name_H-M   'P 1'
_cell_length_a   20.74770000
_cell_length_b   20.74770000
_cell_length_c   34.99190000
_cell_angle_alpha   90.00000000
_cell_angle_beta   90.00000000
_cell_angle_gamma   120.00000000
_symmetry_Int_Tables_number   1
_chemical_formula_structural   H7C16(NO)4
_chemical_formula_sum   'H42 C96 N24 O24'
_cell_volume   13044.81954529
_cell_formula_units_Z   6
loop_
 _symmetry_equiv_pos_site_id
 _symmetry_equiv_pos_as_xyz
  1  'x, y, z'
loop_
 _atom_site_type_symbol
 _atom_site_label
 _atom_site_symmetry_multiplicity
 _atom_site_fract_x
 _atom_site_fract_y
 _atom_site_fract_z
 _atom_site_occupancy
  C  1  1  0.41857750  0.45525250  0.02097900  1
  C  2  1  0.38332950  0.48735150  0.04255000  1
  C  3  1  0.37177250  0.47304350  0.08242200  1
  C  4  1  0.40621100  0.43743600  0.10085700  1
  C  5  1  0.44896950  0.41308450  0.08074100  1
  C  6  1  0.44964050  0.41648250  0.04024900  1
  C  7  1  0.35615550  0.52839750  0.02284200  1
  C  8  1  0.48064050  0.38168250  0.01823500  1
  C  10  1  0.42189050  0.46094250  0.98019300  1
  C  11  1  0.39519500  0.50366900  0.96091500  1
  C  12  1  0.39818900  0.50884400  0.92035200  1
  C  13  1  0.42551000  0.46873000  0.89993300  1
  C  14  1  0.45117650  0.42522350  0.91812800  1
  C  15  1  0.45091750  0.42279650  0.95861400  1
  C  16  1  0.36380550  0.53807950  0.98307500  1
  C  18  1  0.47968600  0.38322700  0.97831800  1
  C  27  1  0.91272950  0.48482150  0.35172400  1
  C  28  1  0.98060750  0.52498750  0.37250300  1
  C  29  1  0.97883950  0.54032350  0.41196700  1
  C  30  1  0.90945700  0.50681200  0.43104200  1
  C  31  1  0.84207100  0.46038900  0.41186100  1
  C  32  1  0.84350800  0.45491400  0.37148900  1
  C  33  1  0.04834750  0.55142050  0.35246100  1
  C  34  1  0.77697250  0.41875750  0.35012900  1
  C  36  1  0.91391400  0.47297100  0.31148100  1
  C  37  1  0.98299700  0.49864400  0.29193900  1
  C  38  1  0.98238700  0.47907900  0.25288100  1
  C  39  1  0.91390700  0.43852400  0.23362800  1
  C  40  1  0.84600000  0.42145000  0.25106900  1
  C  41  1  0.84563050  0.43493050  0.29076400  1
  C  42  1  0.04940250  0.53708650  0.31335000  1
  C  44  1  0.77795200  0.41039000  0.31054900  1
  C  53  1  0.44837250  0.98100850  0.68404400  1
  C  54  1  0.41771450  0.91193850  0.70402000  1
  C  55  1  0.42304550  0.91085850  0.74455800  1
  C  56  1  0.45318800  0.97900600  0.76456000  1
  C  57  1  0.48116800  0.04778300  0.74558700  1
  C  58  1  0.48302500  0.04895000  0.70505700  1
  C  59  1  0.38044650  0.84559150  0.68247200  1
  C  60  1  0.51749200  0.11676500  0.68466400  1
  C  62  1  0.44167800  0.98240100  0.64334900  1
  C  63  1  0.40046850  0.91455650  0.62250400  1
  C  64  1  0.38463950  0.91761750  0.58319500  1
  C  65  1  0.41472650  0.98719650  0.56490800  1
  C  66  1  0.46419550  0.05416850  0.58362400  1
  C  67  1  0.47425250  0.05193450  0.62360400  1
  C  68  1  0.37045800  0.84688400  0.64290300  1
  C  70  1  0.51479050  0.11829850  0.64477500  1
  C  79  1  0.50609050  0.19810550  0.81432300  1
  C  80  1  0.49958750  0.20620950  0.85403400  1
  C  81  1  0.49525150  0.26658550  0.86893000  1
  C  82  1  0.49677350  0.32183050  0.84475200  1
  C  83  1  0.50775750  0.31747350  0.80483400  1
  C  86  1  0.51280000  0.25600600  0.78968200  1
  C  93  1  0.50094450  0.13051550  0.80199100  1
  C  95  1  0.48381550  0.37750550  0.86008700  1
  C  97  1  0.56791750  0.37456950  0.14787100  1
  C  98  1  0.58233700  0.37928000  0.18757200  1
  C  99  1  0.64485450  0.37875550  0.20228100  1
  C  100  1  0.69620050  0.37296650  0.17804100  1
  C  101  1  0.68023450  0.36287750  0.13814300  1
  C  104  1  0.61645050  0.36388650  0.12308800  1
  C  111  1  0.50832600  0.38494700  0.13586600  1
  C  113  1  0.76346500  0.38170500  0.19329000  1
  C  115  1  0.68935500  0.33899800  0.48082800  1
  C  116  1  0.68161650  0.32421950  0.52054600  1
  C  117  1  0.62071750  0.26002250  0.53562400  1
  C  118  1  0.56372550  0.20751350  0.51174400  1
  C  119  1  0.56743650  0.22359950  0.47191800  1
  C  122  1  0.63015300  0.28882800  0.45650000  1
  C  129  1  0.75751400  0.40055400  0.46819100  1
  C  131  1  0.50723650  0.13914250  0.52708200  1
  C  133  1  0.37891400  0.75498400  0.81433900  1
  C  134  1  0.38352300  0.74747200  0.85430400  1
  C  135  1  0.37609550  0.68239750  0.87057200  1
  C  136  1  0.36383900  0.62148100  0.84754400  1
  C  137  1  0.35376850  0.62551450  0.80744100  1
  C  140  1  0.36119100  0.69206300  0.79087300  1
  C  147  1  0.39578800  0.82613200  0.80065800  1
  C  149  1  0.36741200  0.56097600  0.86398700  1
  C  151  1  0.24707450  0.48781450  0.15528400  1
  C  152  1  0.19009200  0.43524100  0.17917300  1
  C  153  1  0.14387000  0.45343200  0.19995500  1
  C  154  1  0.15739450  0.52719150  0.20096300  1
  C  155  1  0.21607250  0.58205850  0.17817000  1
  C  158  1  0.25852900  0.56148500  0.15377000  1
  C  165  1  0.29005800  0.46295800  0.13545100  1
  C  167  1  0.11470550  0.54315350  0.22669500  1
  C  169  1  0.12231450  0.66385650  0.48349800  1
  C  170  1  0.13086150  0.72274950  0.50719200  1
  C  171  1  0.19621250  0.76589150  0.52795400  1
  C  172  1  0.25296050  0.74722850  0.52916000  1
  C  173  1  0.24494600  0.68670600  0.50644000  1
  C  176  1  0.18126200  0.64737400  0.48204600  1
  C  183  1  0.05358400  0.62353800  0.46407600  1
  C  185  1  0.31208650  0.78648050  0.55518800  1
  H  9  1  0.40406350  0.43374650  0.12993300  1
  H  17  1  0.42819600  0.47226200  0.87097300  1
  H  19  1  0.34270050  0.56797450  0.97033200  1
  H  20  1  0.33064750  0.55238850  0.03728600  1
  H  21  1  0.50157150  0.35565750  0.96392300  1
  H  22  1  0.50092100  0.35114200  0.03089000  1
  H  35  1  0.90878200  0.51146900  0.46003800  1
  H  43  1  0.91445850  0.42772350  0.20513600  1
  H  45  1  0.10004600  0.55476200  0.30108400  1
  H  46  1  0.09827050  0.57988850  0.36637300  1
  H  47  1  0.72784750  0.38295350  0.29672900  1
  H  48  1  0.72651300  0.39985100  0.36294100  1
  H  61  1  0.45352600  0.97871200  0.79361900  1
  H  69  1  0.40488150  0.98815050  0.53633800  1
  H  71  1  0.33894600  0.79702800  0.62962600  1
  H  72  1  0.35557000  0.79492500  0.69565000  1
  H  73  1  0.53900100  0.16924800  0.63173500  1
  H  74  1  0.54610350  0.16646350  0.69857000  1
  H  84  1  0.48749850  0.26753150  0.89776700  1
  H  85  1  0.49481350  0.16620650  0.87286200  1
  H  94  1  0.49141650  0.09083450  0.82202600  1
  H  96  1  0.47953350  0.41347250  0.84184700  1
  H  102  1  0.65365150  0.38567150  0.23113600  1
  H  103  1  0.54900000  0.38673500  0.20655600  1
  H  112  1  0.47935750  0.39530950  0.15624700  1
  H  114  1  0.80258600  0.38304800  0.17515200  1
  H  120  1  0.62031200  0.25091000  0.56439100  1
  H  121  1  0.72262550  0.35848550  0.53919300  1
  H  130  1  0.79712750  0.43106450  0.48819000  1
  H  132  1  0.46967450  0.10013050  0.50886300  1
  H  138  1  0.38383000  0.68192900  0.89944400  1
  H  139  1  0.39594050  0.79111050  0.87232200  1
  H  148  1  0.41019000  0.86746700  0.82035400  1
  H  150  1  0.36478750  0.52100750  0.84608200  1
  H  156  1  0.10383750  0.41293350  0.21691300  1
  H  157  1  0.17954950  0.38149550  0.18085600  1
  H  166  1  0.28476650  0.41311350  0.14367600  1
  H  168  1  0.13259550  0.59633150  0.23566600  1
  H  174  1  0.19868400  0.80737700  0.54487500  1
  H  175  1  0.09005750  0.73676450  0.50884600  1
  H  184  1  0.01061400  0.63132500  0.47244400  1
  H  186  1  0.34412850  0.76487750  0.56436500  1
  N  23  1  0.49353150  0.39201350  0.09890600  1
  N  24  1  0.32687700  0.49176700  0.10219500  1
  N  25  1  0.47314650  0.38364950  0.89777700  1
  N  26  1  0.37851750  0.55420450  0.90168900  1
  N  49  1  0.77801550  0.41461050  0.43100500  1
  N  50  1  0.04315000  0.58513000  0.43117100  1
  N  51  1  0.78260350  0.39834450  0.23046500  1
  N  52  1  0.04151100  0.49350500  0.23059300  1
  N  75  1  0.49834100  0.11133800  0.76483200  1
  N  76  1  0.40002900  0.84527200  0.76327700  1
  N  77  1  0.50471950  0.11918850  0.56416200  1
  N  78  1  0.33941650  0.86012650  0.56014400  1
  N  87  1  0.51270550  0.37582450  0.78149500  1
  N  88  1  0.52386000  0.24999700  0.75021600  1
  N  105  1  0.73073650  0.35330650  0.11471500  1
  N  106  1  0.59917650  0.35479350  0.08361600  1
  N  123  1  0.50739250  0.17184750  0.44885200  1
  N  124  1  0.63604000  0.30597500  0.41705400  1
  N  141  1  0.33710350  0.56162250  0.78529700  1
  N  142  1  0.35223750  0.69864550  0.75119700  1
  N  159  1  0.22587950  0.65475950  0.17948100  1
  N  160  1  0.31581450  0.61258950  0.12931000  1
  N  177  1  0.30459600  0.67181300  0.50787500  1
  N  178  1  0.17116950  0.58837450  0.45774000  1
  O  89  1  0.57480750  0.41514450  0.76587600  1
  O  90  1  0.47132300  0.24164200  0.72910200  1
  O  91  1  0.46038300  0.35632700  0.75808600  1
  O  92  1  0.58556350  0.29961250  0.73763900  1
  O  107  1  0.70329900  0.29090400  0.09880600  1
  O  108  1  0.64617400  0.40601800  0.06279100  1
  O  109  1  0.76653950  0.40515450  0.09142700  1
  O  110  1  0.58223800  0.29192400  0.07059900  1
  O  125  1  0.46982300  0.19716000  0.43371500  1
  O  126  1  0.64130750  0.26003150  0.39584300  1
  O  127  1  0.52412950  0.13727750  0.42511500  1
  O  128  1  0.58804550  0.32076650  0.40483900  1
  O  143  1  0.38663950  0.57073650  0.76179500  1
  O  144  1  0.40018500  0.69591800  0.73047900  1
  O  145  1  0.27391350  0.53053350  0.77006000  1
  O  146  1  0.28764600  0.65636000  0.73893400  1
  O  161  1  0.21162650  0.67564050  0.14855700  1
  O  162  1  0.29291450  0.63652650  0.10272100  1
  O  163  1  0.28802850  0.70303350  0.19221600  1
  O  164  1  0.36967200  0.66509500  0.14633900  1
  O  179  1  0.33951250  0.68379950  0.47699300  1
  O  180  1  0.21788200  0.60839000  0.43116500  1
  O  181  1  0.28661850  0.60860250  0.52074900  1
  O  182  1  0.16574600  0.53279000  0.47489600  1
