# generated using pymatgen
data_Lu3H9W12C21N3O43
_symmetry_space_group_name_H-M   'P 1'
_cell_length_a   15.43024664
_cell_length_b   15.64121000
_cell_length_c   18.85279104
_cell_angle_alpha   113.90074493
_cell_angle_beta   114.12565730
_cell_angle_gamma   60.57729002
_symmetry_Int_Tables_number   1
_chemical_formula_structural   Lu3H9W12C21N3O43
_chemical_formula_sum   'Lu6 H18 W24 C42 N6 O86'
_cell_volume   3495.45847949
_cell_formula_units_Z   2
loop_
 _symmetry_equiv_pos_site_id
 _symmetry_equiv_pos_as_xyz
  1  'x, y, z'
loop_
 _atom_site_type_symbol
 _atom_site_label
 _atom_site_symmetry_multiplicity
 _atom_site_fract_x
 _atom_site_fract_y
 _atom_site_fract_z
 _atom_site_occupancy
  Lu  Lu0  1  0.00195000  0.09222000  0.52497000  1
  Lu  Lu1  1  0.08843000  0.42792000  0.52596000  1
  Lu  Lu2  1  0.42328000  0.00712000  0.52440000  1
  Lu  Lu3  1  0.50499000  0.93167000  0.02483000  1
  Lu  Lu4  1  0.59554000  0.50245000  0.02263000  1
  Lu  Lu5  1  0.93481000  0.58980000  0.02489000  1
  H  H6  1  0.73562000  0.38952000  0.86424000  1
  H  H7  1  0.79534000  0.15684000  0.66087000  1
  H  H8  1  0.01027000  0.30350000  0.79904000  1
  H  H9  1  0.38721000  0.73910000  0.86173000  1
  H  H10  1  0.15150000  0.70453000  0.65794000  1
  H  H11  1  0.30565000  0.48542000  0.79834000  1
  H  H12  1  0.74063000  0.73559000  0.85926000  1
  H  H13  1  0.70221000  0.80006000  0.65357000  1
  H  H14  1  0.48760000  0.00712000  0.79850000  1
  H  H15  1  0.23400000  0.24063000  0.36211000  1
  H  H16  1  0.29924000  0.20726000  0.15810000  1
  H  H17  1  0.50538000  0.98823000  0.29849000  1
  H  H18  1  0.88225000  0.23436000  0.35932000  1
  H  H19  1  0.65186000  0.29978000  0.15355000  1
  H  H20  1  0.80633000  0.50559000  0.29920000  1
  H  H21  1  0.24106000  0.88915000  0.36497000  1
  H  H22  1  0.20906000  0.65641000  0.16175000  1
  H  H23  1  0.98705000  0.80355000  0.30089000  1
  W  W24  1  0.74703000  0.30238000  0.48568000  1
  W  W25  1  0.65294000  0.55942000  0.47557000  1
  W  W26  1  0.65413000  0.52846000  0.65189000  1
  W  W27  1  0.54518000  0.29390000  0.34581000  1
  W  W28  1  0.29785000  0.43929000  0.48466000  1
  W  W29  1  0.55836000  0.26782000  0.47581000  1
  W  W30  1  0.52848000  0.47012000  0.65187000  1
  W  W31  1  0.29123000  0.50746000  0.34434000  1
  W  W32  1  0.44140000  0.74447000  0.48443000  1
  W  W33  1  0.26617000  0.64769000  0.47414000  1
  W  W34  1  0.47113000  0.65081000  0.65120000  1
  W  W35  1  0.51013000  0.54520000  0.34552000  1
  W  W36  1  0.24719000  0.93582000  0.98375000  1
  W  W37  1  0.14808000  0.76604000  0.97659000  1
  W  W38  1  0.15326000  0.97012000  0.15174000  1
  W  W39  1  0.04582000  0.00796000  0.84512000  1
  W  W40  1  0.80246000  0.24297000  0.98357000  1
  W  W41  1  0.06437000  0.14665000  0.97542000  1
  W  W42  1  0.02967000  0.15077000  0.15142000  1
  W  W43  1  0.79052000  0.04424000  0.84571000  1
  W  W44  1  0.93342000  0.80380000  0.98509000  1
  W  W45  1  0.76250000  0.06122000  0.97618000  1
  W  W46  1  0.96967000  0.02787000  0.15174000  1
  W  W47  1  0.00719000  0.79300000  0.84605000  1
  C  C48  1  0.91041000  0.22178000  0.72274000  1
  C  C49  1  0.87621000  0.35656000  0.84102000  1
  C  C50  1  0.96992000  0.15494000  0.66263000  1
  C  C51  1  0.90216000  0.43506000  0.91214000  1
  C  C52  1  0.78593000  0.34209000  0.82421000  1
  C  C53  1  0.81915000  0.21307000  0.71245000  1
  C  C54  1  0.93971000  0.29518000  0.78853000  1
  C  C55  1  0.21984000  0.58880000  0.72119000  1
  C  C56  1  0.35673000  0.60839000  0.83914000  1
  C  C57  1  0.15267000  0.53569000  0.66178000  1
  C  C58  1  0.43753000  0.57615000  0.91025000  1
  C  C59  1  0.33992000  0.69571000  0.82185000  1
  C  C60  1  0.20908000  0.67761000  0.71005000  1
  C  C61  1  0.29538000  0.55330000  0.78725000  1
  C  C62  1  0.58858000  0.91165000  0.71913000  1
  C  C63  1  0.60978000  0.87355000  0.83768000  1
  C  C64  1  0.53410000  0.97274000  0.66031000  1
  C  C65  1  0.57913000  0.89791000  0.91025000  1
  C  C66  1  0.69641000  0.78583000  0.81929000  1
  C  C67  1  0.67653000  0.82226000  0.70667000  1
  C  C68  1  0.55437000  0.93808000  0.78620000  1
  C  C69  1  0.41004000  0.09130000  0.22105000  1
  C  C70  1  0.37236000  0.11066000  0.33937000  1
  C  C71  1  0.47027000  0.03836000  0.16126000  1
  C  C72  1  0.39507000  0.07893000  0.41081000  1
  C  C73  1  0.28447000  0.19768000  0.32209000  1
  C  C74  1  0.32089000  0.18004000  0.21012000  1
  C  C75  1  0.43655000  0.05583000  0.28732000  1
  C  C76  1  0.72050000  0.41070000  0.21943000  1
  C  C77  1  0.85478000  0.37228000  0.33811000  1
  C  C78  1  0.65585000  0.47103000  0.15999000  1
  C  C79  1  0.93337000  0.39606000  0.41099000  1
  C  C80  1  0.83691000  0.28462000  0.31944000  1
  C  C81  1  0.70855000  0.32155000  0.20681000  1
  C  C82  1  0.79526000  0.43687000  0.28668000  1
  C  C83  1  0.09175000  0.72117000  0.22415000  1
  C  C84  1  0.10960000  0.85695000  0.34176000  1
  C  C85  1  0.03916000  0.65388000  0.16407000  1
  C  C86  1  0.07613000  0.93652000  0.41238000  1
  C  C87  1  0.19770000  0.84199000  0.32492000  1
  C  C88  1  0.18114000  0.71257000  0.21352000  1
  C  C89  1  0.05512000  0.79510000  0.28985000  1
  N  N90  1  0.75746000  0.27178000  0.76166000  1
  N  N91  1  0.26739000  0.73065000  0.75907000  1
  N  N92  1  0.73014000  0.76030000  0.75550000  1
  N  N93  1  0.25888000  0.23277000  0.25926000  1
  N  N94  1  0.76491000  0.25943000  0.25545000  1
  N  N95  1  0.23356000  0.77129000  0.26246000  1
  O  O96  1  0.72773000  0.41576000  0.45738000  1
  O  O97  1  0.88232000  0.22177000  0.49247000  1
  O  O98  1  0.70551000  0.21286000  0.50019000  1
  O  O99  1  0.51534000  0.56952000  0.45713000  1
  O  O100  1  0.73954000  0.38239000  0.58576000  1
  O  O101  1  0.98610000  0.44719000  0.92882000  1
  O  O102  1  0.94763000  0.07866000  0.60999000  1
  O  O103  1  0.63658000  0.55790000  0.36478000  1
  O  O104  1  0.69683000  0.56679000  0.58784000  1
  O  O105  1  0.40753000  0.36032000  0.31374000  1
  O  O106  1  0.66337000  0.45942000  0.72243000  1
  O  O107  1  0.84044000  0.49502000  0.95885000  1
  O  O108  1  0.03840000  0.17410000  0.65602000  1
  O  O109  1  0.69197000  0.24837000  0.37031000  1
  O  O110  1  0.41237000  0.31826000  0.45719000  1
  O  O111  1  0.21638000  0.39153000  0.49127000  1
  O  O112  1  0.20832000  0.58222000  0.49854000  1
  O  O113  1  0.57020000  0.37458000  0.45724000  1
  O  O114  1  0.37955000  0.46584000  0.58497000  1
  O  O115  1  0.44783000  0.50058000  0.92956000  1
  O  O116  1  0.07486000  0.57950000  0.60827000  1
  O  O117  1  0.55592000  0.17666000  0.36486000  1
  O  O118  1  0.56630000  0.32784000  0.58798000  1
  O  O119  1  0.35955000  0.54673000  0.31367000  1
  O  O120  1  0.45898000  0.59858000  0.72167000  1
  O  O121  1  0.50123000  0.62153000  0.95423000  1
  O  O122  1  0.17308000  0.44303000  0.65684000  1
  O  O123  1  0.24381000  0.43277000  0.36903000  1
  O  O124  1  0.31775000  0.72327000  0.45607000  1
  O  O125  1  0.39344000  0.87793000  0.49015000  1
  O  O126  1  0.58654000  0.70484000  0.49953000  1
  O  O127  1  0.37346000  0.51304000  0.45615000  1
  O  O128  1  0.46721000  0.73650000  0.58465000  1
  O  O129  1  0.50556000  0.98358000  0.93069000  1
  O  O130  1  0.57775000  0.95535000  0.60699000  1
  O  O131  1  0.17286000  0.63160000  0.36353000  1
  O  O132  1  0.32672000  0.69067000  0.58630000  1
  O  O133  1  0.54811000  0.40954000  0.31427000  1
  O  O134  1  0.60170000  0.66111000  0.72179000  1
  O  O135  1  0.62367000  0.83430000  0.95458000  1
  O  O136  1  0.43974000  0.03814000  0.65524000  1
  O  O137  1  0.43512000  0.68976000  0.36925000  1
  O  O138  1  0.22643000  0.81634000  0.95692000  1
  O  O139  1  0.38253000  0.88960000  0.98995000  1
  O  O140  1  0.20934000  0.08144000  0.99885000  1
  O  O141  1  0.01200000  0.87376000  0.95759000  1
  O  O142  1  0.23953000  0.96547000  0.08471000  1
  O  O143  1  0.47928000  0.00348000  0.43033000  1
  O  O144  1  0.44999000  0.08229000  0.10749000  1
  O  O145  1  0.13212000  0.67595000  0.86466000  1
  O  O146  1  0.19393000  0.82766000  0.08794000  1
  O  O147  1  0.90797000  0.04619000  0.81401000  1
  O  O148  1  0.16452000  0.09843000  0.22176000  1
  O  O149  1  0.33026000  0.12508000  0.45509000  1
  O  O150  1  0.53775000  0.94596000  0.15626000  1
  O  O151  1  0.19216000  0.93250000  0.86877000  1
  O  O152  1  0.91711000  0.22263000  0.95610000  1
  O  O153  1  0.72187000  0.37622000  0.98936000  1
  O  O154  1  0.70911000  0.20429000  0.99940000  1
  O  O155  1  0.07103000  0.01232000  0.95682000  1
  O  O156  1  0.88200000  0.23539000  0.08445000  1
  O  O157  1  0.94149000  0.48222000  0.43281000  1
  O  O158  1  0.57584000  0.45365000  0.10731000  1
  O  O159  1  0.05942000  0.13186000  0.86371000  1
  O  O160  1  0.06923000  0.19188000  0.08695000  1
  O  O161  1  0.85714000  0.90876000  0.81441000  1
  O  O162  1  0.95955000  0.16063000  0.22191000  1
  O  O163  1  0.99691000  0.33123000  0.45427000  1
  O  O164  1  0.68054000  0.53504000  0.15365000  1
  O  O165  1  0.74531000  0.18862000  0.86872000  1
  O  O166  1  0.81257000  0.91535000  0.95742000  1
  O  O167  1  0.88853000  0.72087000  0.99257000  1
  O  O168  1  0.08147000  0.71117000  0.00011000  1
  O  O169  1  0.87262000  0.06937000  0.95725000  1
  O  O170  1  0.96457000  0.88170000  0.08548000  1
  O  O171  1  0.99731000  0.94849000  0.42966000  1
  O  O172  1  0.08583000  0.57697000  0.11207000  1
  O  O173  1  0.67076000  0.05659000  0.86462000  1
  O  O174  1  0.82474000  0.06540000  0.08783000  1
  O  O175  1  0.04634000  0.86008000  0.81451000  1
  O  O176  1  0.09957000  0.95874000  0.22207000  1
  O  O177  1  0.12398000  0.99746000  0.45809000  1
  O  O178  1  0.94478000  0.67316000  0.15647000  1
  O  O179  1  0.92984000  0.74762000  0.87028000  1
  O  O180  1  0.52325000  0.52194000  0.56777000  1
  O  O181  1  0.02268000  0.02206000  0.06775000  1
