# generated using pymatgen
data_Cu3H20C28(NO7)2
_symmetry_space_group_name_H-M   'P 1'
_cell_length_a   11.02613000
_cell_length_b   12.21658000
_cell_length_c   19.54818000
_cell_angle_alpha   91.84670000
_cell_angle_beta   90.01152000
_cell_angle_gamma   116.74650000
_symmetry_Int_Tables_number   1
_chemical_formula_structural   Cu3H20C28(NO7)2
_chemical_formula_sum   'Cu6 H40 C56 N4 O28'
_cell_volume   2349.89852862
_cell_formula_units_Z   2
loop_
 _symmetry_equiv_pos_site_id
 _symmetry_equiv_pos_as_xyz
  1  'x, y, z'
loop_
 _atom_site_type_symbol
 _atom_site_label
 _atom_site_symmetry_multiplicity
 _atom_site_fract_x
 _atom_site_fract_y
 _atom_site_fract_z
 _atom_site_occupancy
  Cu  Cu0  1  0.55849000  0.39203000  0.80613000  1
  Cu  Cu1  1  0.97100000  0.96280000  0.55830000  1
  Cu  Cu2  1  0.64253000  0.25183000  0.84890000  1
  Cu  Cu3  1  0.16752000  0.60837000  0.19397000  1
  Cu  Cu4  1  0.00818000  0.03727000  0.44164000  1
  Cu  Cu5  1  0.39064000  0.74799000  0.15100000  1
  H  H6  1  0.94477000  0.72197000  0.82222000  1
  H  H7  1  0.79550000  0.17984000  0.65704000  1
  H  H8  1  0.79906000  0.52731000  0.61955000  1
  H  H9  1  0.19702000  0.05983000  0.73500000  1
  H  H10  1  0.94823000  0.51777000  0.99706000  1
  H  H11  1  0.25926000  0.88893000  0.97732000  1
  H  H12  1  0.08596000  0.71678000  0.39508000  1
  H  H13  1  0.98713000  0.37429000  0.47747000  1
  H  H14  1  0.23505000  0.94392000  0.64480000  1
  H  H15  1  0.40766000  0.04935000  0.66096000  1
  H  H16  1  0.13307000  0.74769000  0.73584000  1
  H  H17  1  0.25208000  0.76651000  0.80237000  1
  H  H18  1  0.21021000  0.56996000  0.51970000  1
  H  H19  1  0.15192000  0.62814000  0.58989000  1
  H  H20  1  0.29738000  0.83709000  0.56482000  1
  H  H21  1  0.40162000  0.77091000  0.53222000  1
  H  H22  1  0.31579000  0.76190000  0.41581000  1
  H  H23  1  0.32630000  0.90379000  0.44792000  1
  H  H24  1  0.33899000  0.80674000  0.67000000  1
  H  H25  1  0.44103000  0.90928000  0.73704000  1
  H  H26  1  0.22295000  0.27791000  0.17749000  1
  H  H27  1  0.61603000  0.82043000  0.34287000  1
  H  H28  1  0.27259000  0.47365000  0.38060000  1
  H  H29  1  0.13718000  0.94119000  0.26537000  1
  H  H30  1  0.43042000  0.48196000  0.00298000  1
  H  H31  1  0.37049000  0.11043000  0.02248000  1
  H  H32  1  0.36869000  0.28281000  0.60486000  1
  H  H33  1  0.61305000  0.62593000  0.52283000  1
  H  H34  1  0.29152000  0.05643000  0.35539000  1
  H  H35  1  0.35824000  0.95051000  0.33901000  1
  H  H36  1  0.38522000  0.25257000  0.26403000  1
  H  H37  1  0.48492000  0.23309000  0.19748000  1
  H  H38  1  0.63984000  0.42966000  0.48063000  1
  H  H39  1  0.52371000  0.37180000  0.41028000  1
  H  H40  1  0.46058000  0.16258000  0.43513000  1
  H  H41  1  0.63046000  0.22832000  0.46794000  1
  H  H42  1  0.55351000  0.23757000  0.58426000  1
  H  H43  1  0.42289000  0.09571000  0.55206000  1
  H  H44  1  0.53178000  0.19298000  0.33001000  1
  H  H45  1  0.53107000  0.09003000  0.26299000  1
  C  C46  1  0.71938000  0.34531000  0.71200000  1
  C  C47  1  0.99228000  0.71764000  0.87019000  1
  C  C48  1  0.17332000  0.69612000  0.06025000  1
  C  C49  1  0.93392000  0.60963000  0.90678000  1
  C  C50  1  0.17484000  0.93323000  0.85577000  1
  C  C51  1  0.91666000  0.16120000  0.53936000  1
  C  C52  1  0.07154000  0.84146000  0.46896000  1
  C  C53  1  0.11067000  0.81762000  0.89494000  1
  C  C54  1  0.80975000  0.50331000  0.87829000  1
  C  C55  1  0.82329000  0.25887000  0.62539000  1
  C  C56  1  0.79188000  0.35388000  0.64603000  1
  C  C57  1  0.82687000  0.45510000  0.60451000  1
  C  C58  1  0.89980000  0.46410000  0.54452000  1
  C  C59  1  0.10933000  0.70318000  0.99426000  1
  C  C60  1  0.39451000  0.13513000  0.78018000  1
  C  C61  1  0.27151000  0.02653000  0.74719000  1
  C  C62  1  0.93938000  0.57252000  0.49991000  1
  C  C63  1  0.99276000  0.60175000  0.96875000  1
  C  C64  1  0.16835000  0.81087000  0.95735000  1
  C  C65  1  0.12196000  0.74782000  0.44780000  1
  C  C66  1  0.93062000  0.36889000  0.52392000  1
  C  C67  1  0.31717000  0.97725000  0.68346000  1
  C  C68  1  0.22786000  0.81351000  0.76174000  1
  C  C69  1  0.88867000  0.26464000  0.56332000  1
  C  C70  1  0.18481000  0.64364000  0.53662000  1
  C  C71  1  0.30269000  0.77123000  0.52699000  1
  C  C72  1  0.27822000  0.80462000  0.45500000  1
  C  C73  1  0.34212000  0.87228000  0.71046000  1
  C  C74  1  0.37508000  0.65510000  0.28795000  1
  C  C75  1  0.27463000  0.28198000  0.12954000  1
  C  C76  1  0.47744000  0.30357000  0.93980000  1
  C  C77  1  0.32426000  0.39003000  0.09302000  1
  C  C78  1  0.24170000  0.06643000  0.14429000  1
  C  C79  1  0.75587000  0.83887000  0.46069000  1
  C  C80  1  0.22994000  0.15871000  0.53090000  1
  C  C81  1  0.29296000  0.18181000  0.10485000  1
  C  C82  1  0.30706000  0.49671000  0.12164000  1
  C  C83  1  0.56508000  0.74161000  0.37469000  1
  C  C84  1  0.43880000  0.64676000  0.35405000  1
  C  C85  1  0.37252000  0.54572000  0.39563000  1
  C  C86  1  0.43632000  0.53655000  0.45563000  1
  C  C87  1  0.40620000  0.29632000  0.00567000  1
  C  C88  1  0.25875000  0.86478000  0.21991000  1
  C  C89  1  0.24468000  0.97366000  0.25299000  1
  C  C90  1  0.36693000  0.42792000  0.49999000  1
  C  C91  1  0.39102000  0.39783000  0.03113000  1
  C  C92  1  0.35747000  0.18848000  0.04248000  1
  C  C93  1  0.37386000  0.25192000  0.55213000  1
  C  C94  1  0.56220000  0.63155000  0.47631000  1
  C  C95  1  0.33981000  0.02277000  0.31662000  1
  C  C96  1  0.41409000  0.18647000  0.23827000  1
  C  C97  1  0.62449000  0.73573000  0.43684000  1
  C  C98  1  0.54098000  0.35613000  0.46353000  1
  C  C99  1  0.53137000  0.22841000  0.47307000  1
  C  C100  1  0.47337000  0.19493000  0.54502000  1
  C  C101  1  0.46951000  0.12752000  0.28953000  1
  N  N102  1  0.21259000  0.91987000  0.79059000  1
  N  N103  1  0.07493000  0.64417000  0.49304000  1
  N  N104  1  0.29245000  0.08028000  0.20957000  1
  N  N105  1  0.43051000  0.35579000  0.50703000  1
  O  O106  1  0.72973000  0.52830000  0.84165000  1
  O  O107  1  0.89739000  0.07795000  0.58224000  1
  O  O108  1  0.40107000  0.24072000  0.77149000  1
  O  O109  1  0.06026000  0.90411000  0.42058000  1
  O  O110  1  0.30126000  0.76444000  0.06716000  1
  O  O111  1  0.48435000  0.11152000  0.80824000  1
  O  O112  1  0.95694000  0.16372000  0.47781000  1
  O  O113  1  0.05236000  0.85386000  0.53256000  1
  O  O114  1  0.64811000  0.40388000  0.71683000  1
  O  O115  1  0.09578000  0.62133000  0.10390000  1
  O  O116  1  0.73444000  0.27990000  0.75777000  1
  O  O117  1  0.79435000  0.39612000  0.89197000  1
  O  O118  1  0.19121000  0.03388000  0.88034000  1
  O  O119  1  0.85244000  0.59254000  0.46964000  1
  O  O120  1  0.20194000  0.47203000  0.15813000  1
  O  O121  1  0.81964000  0.92194000  0.41774000  1
  O  O122  1  0.16016000  0.75916000  0.22877000  1
  O  O123  1  0.15630000  0.09597000  0.57928000  1
  O  O124  1  0.53624000  0.23454000  0.93266000  1
  O  O125  1  0.37191000  0.88826000  0.19163000  1
  O  O126  1  0.79370000  0.83627000  0.52223000  1
  O  O127  1  0.19829000  0.14703000  0.46733000  1
  O  O128  1  0.24533000  0.59661000  0.28317000  1
  O  O129  1  0.47555000  0.37926000  0.89644000  1
  O  O130  1  0.45552000  0.72016000  0.24213000  1
  O  O131  1  0.39949000  0.60368000  0.10820000  1
  O  O132  1  0.15774000  0.96557000  0.12008000  1
  O  O133  1  0.25965000  0.40833000  0.52959000  1
