# generated using pymatgen
data_H5(C7N3)2
_symmetry_space_group_name_H-M   'P 1'
_cell_length_a   29.03470000
_cell_length_b   29.03470000
_cell_length_c   32.80010000
_cell_angle_alpha   90.12620000
_cell_angle_beta   89.88530000
_cell_angle_gamma   90.00000000
_symmetry_Int_Tables_number   1
_chemical_formula_structural   H5(C7N3)2
_chemical_formula_sum   'H80 C224 N96'
_cell_volume   27650.81459499
_cell_formula_units_Z   16
loop_
 _symmetry_equiv_pos_site_id
 _symmetry_equiv_pos_as_xyz
  1  'x, y, z'
loop_
 _atom_site_type_symbol
 _atom_site_label
 _atom_site_symmetry_multiplicity
 _atom_site_fract_x
 _atom_site_fract_y
 _atom_site_fract_z
 _atom_site_occupancy
  H  7  1  0.73516200  0.83018000  0.88762400  1
  H  8  1  0.67302100  0.96135600  0.88098900  1
  H  9  1  0.61464100  0.85131700  0.81885100  1
  H  16  1  0.76142600  0.86238600  0.94882000  1
  H  17  1  0.82967400  0.98250200  0.98729100  1
  H  18  1  0.74436400  0.98642500  0.88513600  1
  H  23  1  0.81838900  0.05548400  0.95129600  1
  H  24  1  0.61639700  0.96827000  0.81878200  1
  H  25  1  0.64469000  0.77874400  0.82076800  1
  H  26  1  0.82134400  0.85882400  0.00042200  1
  H  33  1  0.25069800  0.15737200  0.88710300  1
  H  34  1  0.31317500  0.02632300  0.88229400  1
  H  35  1  0.37272400  0.13555800  0.82003700  1
  H  42  1  0.22375300  0.12553500  0.94863100  1
  H  43  1  0.15519000  0.00543600  0.98656500  1
  H  44  1  0.24145200  0.00138000  0.88469800  1
  H  49  1  0.16695400  0.93239000  0.95057000  1
  H  50  1  0.37093000  0.01638800  0.82448100  1
  H  51  1  0.34223800  0.20817000  0.82090600  1
  H  52  1  0.16351000  0.12907500  0.00028800  1
  H  59  1  0.32855400  0.75152500  0.38716100  1
  H  60  1  0.45968300  0.81385500  0.38089800  1
  H  61  1  0.35005900  0.87214600  0.31852300  1
  H  68  1  0.36045600  0.72531600  0.44852400  1
  H  69  1  0.48056300  0.65730100  0.48695700  1
  H  70  1  0.48467900  0.74244100  0.38470300  1
  H  75  1  0.55367400  0.66882000  0.45099900  1
  H  76  1  0.46679900  0.87065000  0.31842900  1
  H  77  1  0.27750800  0.84195100  0.32022500  1
  H  78  1  0.35678800  0.66576900  0.50041400  1
  H  85  1  0.65578200  0.23621900  0.38745600  1
  H  86  1  0.52465700  0.17398800  0.38252300  1
  H  87  1  0.63418400  0.11413200  0.32047800  1
  H  94  1  0.62368800  0.26333600  0.44882200  1
  H  95  1  0.50356300  0.33207200  0.48687100  1
  H  96  1  0.49969800  0.24566000  0.38508700  1
  H  101  1  0.43061500  0.32047900  0.45087100  1
  H  102  1  0.51500600  0.11611700  0.32477000  1
  H  103  1  0.70685100  0.14446400  0.32142600  1
  H  104  1  0.62710200  0.32401900  0.50018200  1
  H  111  1  0.23442700  0.65684900  0.82315700  1
  H  112  1  0.17337800  0.52527900  0.83155000  1
  H  113  1  0.11413100  0.63577200  0.89270200  1
  H  120  1  0.25765100  0.62404700  0.76077300  1
  H  121  1  0.32515800  0.50399400  0.72073000  1
  H  122  1  0.24544800  0.50106200  0.82673600  1
  H  127  1  0.31678600  0.43159100  0.75825500  1
  H  128  1  0.11609000  0.51862700  0.89329200  1
  H  129  1  0.14396700  0.70843500  0.89028100  1
  H  130  1  0.29973000  0.62521200  0.69899800  1
  H  137  1  0.75115100  0.32992000  0.82339200  1
  H  138  1  0.81248500  0.46142000  0.82971000  1
  H  139  1  0.87253900  0.35183800  0.89094200  1
  H  146  1  0.72717900  0.36240100  0.76082400  1
  H  147  1  0.65957400  0.48255700  0.72175800  1
  H  148  1  0.74006500  0.48546000  0.82702400  1
  H  153  1  0.66858900  0.55503200  0.75922500  1
  H  154  1  0.87035600  0.47123000  0.88696400  1
  H  155  1  0.84243200  0.27911500  0.88960700  1
  H  156  1  0.68443800  0.36125000  0.69942000  1
  H  163  1  0.82883500  0.73561500  0.32306000  1
  H  164  1  0.96039500  0.67452100  0.33096800  1
  H  165  1  0.85014500  0.61552900  0.39242900  1
  H  172  1  0.86156100  0.75883000  0.26059900  1
  H  173  1  0.98176300  0.82604500  0.22071500  1
  H  174  1  0.98448700  0.74663400  0.32660000  1
  H  179  1  0.05420900  0.81739200  0.25815400  1
  H  180  1  0.96719100  0.61747300  0.39287100  1
  H  181  1  0.77747000  0.64538800  0.39021900  1
  H  182  1  0.86060600  0.80066600  0.19873000  1
  H  189  1  0.15580100  0.25213700  0.32360900  1
  H  190  1  0.02425400  0.31333900  0.33019700  1
  H  191  1  0.13396400  0.37386300  0.39114800  1
  H  198  1  0.12330600  0.22800700  0.26113000  1
  H  199  1  0.00329300  0.16013200  0.22183700  1
  H  200  1  0.00014500  0.24095900  0.32720300  1
  H  205  1  0.93080800  0.16898000  0.25932200  1
  H  206  1  0.01466700  0.37164700  0.38752600  1
  H  207  1  0.20671100  0.34379900  0.38971600  1
  H  208  1  0.12477300  0.18482700  0.19991600  1
  C  1  1  0.71180700  0.89966500  0.88767500  1
  C  2  1  0.70965800  0.85167400  0.87780100  1
  C  3  1  0.67483800  0.83299400  0.85207800  1
  C  4  1  0.64047500  0.86333200  0.83732500  1
  C  5  1  0.64073200  0.91038400  0.84708700  1
  C  6  1  0.67592600  0.92769800  0.87202000  1
  C  10  1  0.74614500  0.92071000  0.91295100  1
  C  11  1  0.76934000  0.89630400  0.94416600  1
  C  12  1  0.79946700  0.91835600  0.97211000  1
  C  13  1  0.80793800  0.96616100  0.96740700  1
  C  14  1  0.78714500  0.99203600  0.93594000  1
  C  15  1  0.75717800  0.96834900  0.90924500  1
  C  19  1  0.79573800  0.03987900  0.93178400  1
  C  20  1  0.60704400  0.93990700  0.83363600  1
  C  21  1  0.67193400  0.78654400  0.83893200  1
  C  22  1  0.81894800  0.89284100  0.00370300  1
  C  27  1  0.27418900  0.08798700  0.88786700  1
  C  28  1  0.27651200  0.13584700  0.87781000  1
  C  29  1  0.31181400  0.15420300  0.85236200  1
  C  30  1  0.34656200  0.12372800  0.83828100  1
  C  31  1  0.34627100  0.07679900  0.84842400  1
  C  32  1  0.31048200  0.05983600  0.87296500  1
  C  36  1  0.23933600  0.06711600  0.91271300  1
  C  37  1  0.21580800  0.09162600  0.94383600  1
  C  38  1  0.18546000  0.06958400  0.97162200  1
  C  39  1  0.17704300  0.02176700  0.96676300  1
  C  40  1  0.19809300  0.99585000  0.93528600  1
  C  41  1  0.22828200  0.01949700  0.90875900  1
  C  45  1  0.18963300  0.94798100  0.93105200  1
  C  46  1  0.38023500  0.04685500  0.83582300  1
  C  47  1  0.31477100  0.20047600  0.83892000  1
  C  48  1  0.16588300  0.09504800  0.00335800  1
  C  53  1  0.39798000  0.77501000  0.38740500  1
  C  54  1  0.35006000  0.77712000  0.37746900  1
  C  55  1  0.33156100  0.81190500  0.35167900  1
  C  56  1  0.36196200  0.84632200  0.33701400  1
  C  57  1  0.40892800  0.84612700  0.34690400  1
  C  58  1  0.42607800  0.81096900  0.37188600  1
  C  62  1  0.41890500  0.74064300  0.41263300  1
  C  63  1  0.39441200  0.71745500  0.44388600  1
  C  64  1  0.41639800  0.68734500  0.47180400  1
  C  65  1  0.46423800  0.67896700  0.46706900  1
  C  66  1  0.49018500  0.69975600  0.43556000  1
  C  67  1  0.46654600  0.72961600  0.40884400  1
  C  71  1  0.53806100  0.69130200  0.43140200  1
  C  72  1  0.43853600  0.87985100  0.33362100  1
  C  73  1  0.28521900  0.81472700  0.33841100  1
  C  74  1  0.39083300  0.66789100  0.50347800  1
  C  79  1  0.58633600  0.21288300  0.38812700  1
  C  80  1  0.63426000  0.21046400  0.37810600  1
  C  81  1  0.65273300  0.17507800  0.35274000  1
  C  82  1  0.62228100  0.14036700  0.33864800  1
  C  83  1  0.57528000  0.14076700  0.34871800  1
  C  84  1  0.55823800  0.17659300  0.37324600  1
  C  88  1  0.56536300  0.24772400  0.41300800  1
  C  89  1  0.58976700  0.27121100  0.44412400  1
  C  90  1  0.56768900  0.30165100  0.47188600  1
  C  91  1  0.51990600  0.31014200  0.46707500  1
  C  92  1  0.49404900  0.28907600  0.43565200  1
  C  93  1  0.51775000  0.25880100  0.40913300  1
  C  97  1  0.44620600  0.29764400  0.43143500  1
  C  98  1  0.54534700  0.10678700  0.33626400  1
  C  99  1  0.69910900  0.17197900  0.33940100  1
  C  100  1  0.59311800  0.32126100  0.50352700  1
  C  105  1  0.21149100  0.58725200  0.82393900  1
  C  106  1  0.20912800  0.63531800  0.83342900  1
  C  107  1  0.17431400  0.65404600  0.85923600  1
  C  108  1  0.14007300  0.62368500  0.87429300  1
  C  109  1  0.14064200  0.57650500  0.86499900  1
  C  110  1  0.17601100  0.55907400  0.84019200  1
  C  114  1  0.24539500  0.56628800  0.79808700  1
  C  115  1  0.26655700  0.59040200  0.76555100  1
  C  116  1  0.29543700  0.56828100  0.73649400  1
  C  117  1  0.30495200  0.52070200  0.74167900  1
  C  118  1  0.28605600  0.49511400  0.77434100  1
  C  119  1  0.25715500  0.51888200  0.80198800  1
  C  123  1  0.29490500  0.44731300  0.77845300  1
  C  124  1  0.10685800  0.54703600  0.87848500  1
  C  125  1  0.17126800  0.70058300  0.87211700  1
  C  126  1  0.31106400  0.59313200  0.70268600  1
  C  131  1  0.77418600  0.39945100  0.82336800  1
  C  132  1  0.77670400  0.35151200  0.83305200  1
  C  133  1  0.81187800  0.33315200  0.85849400  1
  C  134  1  0.84639200  0.36369600  0.87279300  1
  C  135  1  0.84583400  0.41075300  0.86308600  1
  C  136  1  0.81001900  0.42777200  0.83873200  1
  C  140  1  0.73981500  0.42024200  0.79811800  1
  C  141  1  0.71830500  0.39605300  0.76579100  1
  C  142  1  0.68922800  0.41820000  0.73708500  1
  C  143  1  0.67988500  0.46582500  0.74247500  1
  C  144  1  0.69902500  0.49141700  0.77504700  1
  C  145  1  0.72805100  0.46762700  0.80236300  1
  C  149  1  0.69039700  0.53925700  0.77931200  1
  C  150  1  0.87971100  0.44070800  0.87573900  1
  C  151  1  0.81497100  0.28680200  0.87169100  1
  C  152  1  0.67336600  0.39341700  0.70328500  1
  C  157  1  0.89840500  0.71261900  0.32359300  1
  C  158  1  0.85037000  0.71028300  0.33317300  1
  C  159  1  0.83175800  0.67557900  0.35903300  1
  C  160  1  0.86216100  0.64138300  0.37398700  1
  C  161  1  0.90929700  0.64189700  0.36453900  1
  C  162  1  0.92661500  0.67713500  0.33967000  1
  C  166  1  0.91932500  0.74652000  0.29785000  1
  C  167  1  0.89523700  0.76766300  0.26535900  1
  C  168  1  0.91739400  0.79652800  0.23642000  1
  C  169  1  0.96501000  0.80589900  0.24160200  1
  C  170  1  0.99054500  0.78704600  0.27424600  1
  C  171  1  0.96671000  0.75830000  0.30185000  1
  C  175  1  0.03837200  0.79573200  0.27838300  1
  C  176  1  0.93886100  0.60822200  0.37790500  1
  C  177  1  0.78528000  0.67261100  0.37204800  1
  C  178  1  0.89260200  0.81216100  0.20263300  1
  C  183  1  0.08623600  0.27507600  0.32374300  1
  C  184  1  0.13419800  0.27767900  0.33333333  1
  C  185  1  0.15261800  0.31301000  0.35874000  1
  C  186  1  0.12207400  0.34757000  0.37308100  1
  C  187  1  0.07498700  0.34689900  0.36348100  1
  C  188  1  0.05793500  0.31097100  0.33913900  1
  C  192  1  0.06541800  0.24069100  0.29838300  1
  C  193  1  0.08962100  0.21919500  0.26599000  1
  C  194  1  0.06755700  0.19000700  0.23722400  1
  C  195  1  0.01995400  0.18057600  0.24257500  1
  C  196  1  0.99429700  0.19976200  0.27515700  1
  C  197  1  0.01801700  0.22892600  0.30253200  1
  C  201  1  0.94646800  0.19099700  0.27938600  1
  C  202  1  0.04504600  0.38091000  0.37596500  1
  C  203  1  0.19901900  0.31623900  0.37181600  1
  C  204  1  0.09244600  0.17409300  0.20344700  1
  C  209  1  0.53038200  0.96336700  0.84374500  1
  C  211  1  0.50273900  0.04079400  0.83588000  1
  C  212  1  0.45725100  0.02552300  0.84287700  1
  C  214  1  0.48496000  0.94828700  0.85152100  1
  C  215  1  0.47409400  0.90598500  0.86029200  1
  C  216  1  0.51368600  0.08355400  0.82929000  1
  C  221  1  0.46188200  0.95655900  0.34362100  1
  C  223  1  0.53933500  0.98422800  0.33576400  1
  C  224  1  0.52401300  0.02971300  0.34277900  1
  C  226  1  0.44673500  0.00197100  0.35137100  1
  C  227  1  0.40438600  0.01280800  0.36015800  1
  C  228  1  0.58214000  0.97328600  0.32923700  1
  C  233  1  0.03017300  0.52377900  0.86828900  1
  C  235  1  0.00226500  0.44643600  0.87608900  1
  C  236  1  0.95686900  0.46183500  0.86898700  1
  C  238  1  0.98485300  0.53898600  0.86039600  1
  C  239  1  0.97416600  0.58131000  0.85157200  1
  C  240  1  0.01305100  0.40364500  0.88268800  1
  C  245  1  0.96194900  0.53134600  0.36828900  1
  C  247  1  0.03930800  0.50350200  0.37607800  1
  C  248  1  0.02386600  0.45802500  0.36929200  1
  C  250  1  0.94668300  0.48593600  0.36075500  1
  C  251  1  0.90432700  0.47517200  0.35208100  1
  C  252  1  0.08213500  0.51436700  0.38244100  1
  C  257  1  0.84985600  0.89108900  0.07044400  1
  C  259  1  0.90997100  0.89438000  0.12058700  1
  C  260  1  0.89008700  0.85705900  0.14201700  1
  C  262  1  0.82977300  0.85378300  0.09189200  1
  C  263  1  0.79145800  0.83388800  0.08146800  1
  C  264  1  0.94725800  0.91534500  0.13233100  1
  C  269  1  0.13488600  0.09654400  0.07017200  1
  C  271  1  0.07465500  0.09307600  0.12038600  1
  C  272  1  0.09464000  0.13015900  0.14213600  1
  C  274  1  0.15507100  0.13360900  0.09194100  1
  C  275  1  0.19346200  0.15345600  0.08161100  1
  C  276  1  0.03728400  0.07214800  0.13201100  1
  C  281  1  0.38922200  0.63634000  0.57002700  1
  C  283  1  0.39276400  0.57599100  0.61992000  1
  C  284  1  0.35553500  0.59576700  0.64169500  1
  C  286  1  0.35200700  0.65631500  0.59181900  1
  C  287  1  0.33207100  0.69468900  0.58171600  1
  C  288  1  0.41380900  0.53867100  0.63138100  1
  C  293  1  0.59482000  0.35149900  0.57056000  1
  C  295  1  0.59157100  0.41139500  0.62111500  1
  C  296  1  0.62882300  0.39133400  0.64244200  1
  C  298  1  0.63205400  0.33123800  0.59190200  1
  C  299  1  0.65191300  0.29296100  0.58117600  1
  C  300  1  0.57066600  0.44867000  0.63310300  1
  C  305  1  0.78624300  0.20662000  0.87603300  1
  C  307  1  0.75008100  0.13289900  0.86423500  1
  C  308  1  0.77739500  0.11199600  0.89471100  1
  C  310  1  0.81329700  0.18536700  0.90699400  1
  C  311  1  0.84250800  0.20573700  0.93087000  1
  C  312  1  0.71967000  0.11047300  0.84297300  1
  C  317  1  0.19972200  0.78088100  0.87581200  1
  C  319  1  0.23555200  0.85462700  0.86348300  1
  C  320  1  0.20828800  0.87572300  0.89406700  1
  C  322  1  0.17275700  0.80233300  0.90691000  1
  C  323  1  0.14368800  0.78216600  0.93108000  1
  C  324  1  0.26576100  0.87697700  0.84192000  1
  C  329  1  0.70503100  0.70111900  0.37589500  1
  C  331  1  0.63124100  0.73680300  0.36362400  1
  C  332  1  0.61025500  0.70974200  0.39429800  1
  C  334  1  0.68368700  0.67435800  0.40708400  1
  C  335  1  0.70396700  0.64557300  0.43134400  1
  C  336  1  0.60881700  0.76684000  0.34203900  1
  C  341  1  0.27930000  0.28767000  0.37600200  1
  C  343  1  0.35301800  0.25144600  0.36414800  1
  C  344  1  0.37401000  0.27899900  0.39451400  1
  C  346  1  0.30064300  0.31497300  0.40685300  1
  C  347  1  0.28035800  0.34445200  0.43062700  1
  C  348  1  0.37539100  0.22087100  0.34291700  1
  C  353  1  0.28600200  0.28063800  0.83464900  1
  C  355  1  0.25032400  0.35450500  0.84694800  1
  C  356  1  0.27725800  0.37527200  0.81604300  1
  C  358  1  0.31269600  0.30174900  0.80327800  1
  C  359  1  0.34143000  0.28118500  0.77897800  1
  C  360  1  0.22025500  0.37703500  0.86861000  1
  C  365  1  0.70024300  0.70622100  0.83510200  1
  C  367  1  0.73528500  0.63219900  0.84772200  1
  C  368  1  0.70846400  0.61136000  0.81679100  1
  C  370  1  0.67372100  0.68503000  0.80366000  1
  C  371  1  0.64533500  0.70550900  0.77916600  1
  C  372  1  0.76497200  0.60961400  0.86955600  1
  C  377  1  0.20499000  0.78627800  0.33446200  1
  C  379  1  0.13091200  0.75124600  0.34706300  1
  C  380  1  0.11029000  0.77792300  0.31600500  1
  C  382  1  0.18401400  0.81266200  0.30290100  1
  C  383  1  0.20468600  0.84086900  0.27830100  1
  C  384  1  0.10819700  0.72163700  0.36895000  1
  C  389  1  0.77941300  0.20050000  0.33524300  1
  C  391  1  0.85326700  0.23611300  0.34755700  1
  C  392  1  0.87422900  0.20898900  0.31680100  1
  C  394  1  0.80071900  0.17362400  0.30401100  1
  C  395  1  0.78031100  0.14472600  0.27983700  1
  C  396  1  0.87569100  0.26624800  0.36915100  1
  N  210  1  0.53703400  0.00914400  0.83675900  1
  N  213  1  0.45074000  0.97998400  0.85094300  1
  N  217  1  0.52338800  0.12130400  0.82341700  1
  N  218  1  0.46444300  0.86867000  0.86808600  1
  N  219  1  0.56601300  0.93524800  0.84757400  1
  N  220  1  0.42209800  0.05429300  0.84641600  1
  N  222  1  0.50769500  0.94991600  0.33664500  1
  N  225  1  0.47842900  0.03619100  0.35083100  1
  N  229  1  0.61992800  0.96358500  0.32341700  1
  N  230  1  0.36703400  0.02243600  0.36796900  1
  N  231  1  0.43381700  0.92088800  0.34755100  1
  N  232  1  0.55278100  0.06482900  0.34652000  1
  N  234  1  0.03665300  0.47799000  0.87528900  1
  N  237  1  0.95054200  0.50738400  0.86089600  1
  N  241  1  0.02261600  0.36586700  0.88856400  1
  N  242  1  0.96466100  0.61863900  0.84372400  1
  N  243  1  0.06591100  0.55179200  0.86452800  1
  N  244  1  0.92167400  0.43315300  0.86536700  1
  N  246  1  0.00776900  0.53789600  0.37513000  1
  N  249  1  0.97827900  0.45162700  0.36136200  1
  N  253  1  0.11994300  0.52400700  0.38811200  1
  N  254  1  0.86696900  0.46559900  0.34436500  1
  N  255  1  0.93399600  0.56707600  0.36428300  1
  N  256  1  0.05255000  0.42283100  0.36559400  1
  N  258  1  0.88882300  0.90983700  0.08629400  1
  N  261  1  0.85070600  0.83871500  0.12634900  1
  N  265  1  0.98017900  0.93379000  0.14279100  1
  N  266  1  0.75762400  0.81625400  0.07227300  1
  N  267  1  0.83251500  0.91116000  0.03739800  1
  N  268  1  0.90906600  0.84014500  0.17588900  1
  N  270  1  0.09583200  0.07779100  0.08591300  1
  N  273  1  0.13411100  0.14849800  0.12657200  1
  N  277  1  0.00428900  0.05372600  0.14237100  1
  N  278  1  0.22736700  0.17104300  0.07249200  1
  N  279  1  0.15227800  0.07661200  0.03696500  1
  N  280  1  0.07561000  0.14697800  0.17614500  1
  N  282  1  0.40805400  0.59730800  0.58559700  1
  N  285  1  0.33711200  0.63521600  0.62630400  1
  N  289  1  0.43233300  0.50572600  0.64159100  1
  N  290  1  0.31440200  0.72857700  0.57280100  1
  N  291  1  0.40918400  0.65382900  0.53692900  1
  N  292  1  0.33877100  0.57664300  0.67562400  1
  N  294  1  0.57610200  0.39042000  0.58666100  1
  N  297  1  0.64713400  0.35199600  0.62651500  1
  N  301  1  0.55227000  0.48158100  0.64378000  1
  N  302  1  0.66950900  0.25916100  0.57170700  1
  N  303  1  0.57475300  0.33426500  0.53741700  1
  N  304  1  0.64579500  0.41017900  0.67640800  1
  N  306  1  0.75571300  0.17862500  0.85660300  1
  N  309  1  0.80743700  0.13977500  0.91474600  1
  N  313  1  0.69284400  0.09048500  0.82430600  1
  N  314  1  0.86841000  0.22299400  0.95247600  1
  N  315  1  0.78653000  0.25119100  0.86262400  1
  N  316  1  0.77405500  0.06642900  0.90368400  1
  N  318  1  0.23004800  0.80880500  0.85605300  1
  N  321  1  0.17845700  0.84802100  0.91441600  1
  N  325  1  0.29240300  0.89690800  0.82298400  1
  N  326  1  0.11791500  0.76510200  0.95294800  1
  N  327  1  0.19953500  0.73616400  0.86258500  1
  N  328  1  0.21147800  0.92137600  0.90291000  1
  N  330  1  0.67704500  0.73128400  0.35612400  1
  N  333  1  0.63802100  0.68008800  0.41467600  1
  N  337  1  0.58882500  0.79333600  0.32308400  1
  N  338  1  0.72113800  0.62005500  0.45328600  1
  N  339  1  0.74969800  0.70084900  0.36257200  1
  N  340  1  0.56462100  0.71293700  0.40318800  1
  N  342  1  0.30726200  0.25700300  0.35659700  1
  N  345  1  0.34626700  0.30919900  0.41451400  1
  N  349  1  0.39534000  0.19390800  0.32427600  1
  N  350  1  0.26317800  0.37059800  0.45214500  1
  N  351  1  0.23467300  0.28781600  0.36270300  1
  N  352  1  0.41960800  0.27571800  0.40342900  1
  N  354  1  0.25586200  0.30875800  0.85450700  1
  N  357  1  0.30688300  0.34735400  0.79555600  1
  N  361  1  0.19372000  0.39710700  0.88762600  1
  N  362  1  0.36690800  0.26374100  0.75700600  1
  N  363  1  0.28637400  0.23610100  0.84814100  1
  N  364  1  0.27388200  0.42083600  0.80707000  1
  N  366  1  0.72999300  0.67804600  0.85515000  1
  N  369  1  0.67924900  0.63931700  0.79612100  1
  N  373  1  0.79116600  0.58949300  0.88872600  1
  N  374  1  0.62016700  0.72286500  0.75701700  1
  N  375  1  0.70004000  0.75087800  0.84847800  1
  N  376  1  0.71156600  0.56571300  0.80789300  1
  N  378  1  0.17670200  0.75659200  0.35455400  1
  N  381  1  0.13836500  0.80706000  0.29527900  1
  N  385  1  0.08796000  0.69550700  0.38816700  1
  N  386  1  0.22221900  0.86587600  0.25605700  1
  N  387  1  0.24954400  0.78657500  0.34792900  1
  N  388  1  0.06470600  0.77477100  0.30706300  1
  N  390  1  0.80745300  0.23068600  0.35504500  1
  N  393  1  0.84640100  0.17930800  0.29638000  1
  N  397  1  0.89567000  0.29284200  0.38810900  1
  N  398  1  0.76301300  0.11909500  0.25797100  1
  N  399  1  0.73476600  0.20028900  0.34863600  1
  N  400  1  0.91986400  0.21225900  0.30788000  1
