# generated using pymatgen
data_H27C42N5
_symmetry_space_group_name_H-M   'P 1'
_cell_length_a   28.82600000
_cell_length_b   28.82600000
_cell_length_c   40.76610000
_cell_angle_alpha   90.00000000
_cell_angle_beta   90.00000000
_cell_angle_gamma   90.00000000
_symmetry_Int_Tables_number   1
_chemical_formula_structural   H27C42N5
_chemical_formula_sum   'H216 C336 N40'
_cell_volume   33874.11285324
_cell_formula_units_Z   8
loop_
 _symmetry_equiv_pos_site_id
 _symmetry_equiv_pos_as_xyz
  1  'x, y, z'
loop_
 _atom_site_type_symbol
 _atom_site_label
 _atom_site_symmetry_multiplicity
 _atom_site_fract_x
 _atom_site_fract_y
 _atom_site_fract_z
 _atom_site_occupancy
  H  73  1  0.74462800  0.05989100  0.23634200  1
  H  74  1  0.68115700  0.05425400  0.19875800  1
  H  75  1  0.82374400  0.97058700  0.17599200  1
  H  76  1  0.76069600  0.96550500  0.13830500  1
  H  77  1  0.67607500  0.93638900  0.13368500  1
  H  78  1  0.61975100  0.93784200  0.09047100  1
  H  79  1  0.67140900  0.08284700  0.13893600  1
  H  80  1  0.61480000  0.08408700  0.09601600  1
  H  81  1  0.53341200  0.01152400  0.12565900  1
  H  82  1  0.44569200  0.01200100  0.12329700  1
  H  83  1  0.49471000  0.01248700  0.02926800  1
  H  84  1  0.49790500  0.01420500  0.97230400  1
  H  85  1  0.67156800  0.01336800  0.03680100  1
  H  86  1  0.67502000  0.01485100  0.97442800  1
  H  87  1  0.62836100  0.94176900  0.91537700  1
  H  88  1  0.68707200  0.94234200  0.87393500  1
  H  89  1  0.62484700  0.08822500  0.91411300  1
  H  90  1  0.68289200  0.08899600  0.87214200  1
  H  91  1  0.54699300  0.01260400  0.87828900  1
  H  92  1  0.45932200  0.01078000  0.87591000  1
  H  93  1  0.31759800  0.01110800  0.02711900  1
  H  94  1  0.32109600  0.01068800  0.96472900  1
  H  95  1  0.37754200  0.08270400  0.90482400  1
  H  96  1  0.32290700  0.08017700  0.86066900  1
  H  97  1  0.37415200  0.93648900  0.91125600  1
  H  98  1  0.31984300  0.93374500  0.86681400  1
  H  99  1  0.23528500  0.96116500  0.85882500  1
  H  100  1  0.17494100  0.96496400  0.81892400  1
  H  101  1  0.25666200  0.05542700  0.76125100  1
  H  102  1  0.31745800  0.05100300  0.80101200  1
  H  103  1  0.37002100  0.93791200  0.08804100  1
  H  104  1  0.31225400  0.93595900  0.13013400  1
  H  105  1  0.22135100  0.05446700  0.13673400  1
  H  106  1  0.16425600  0.05126000  0.17919000  1
  H  107  1  0.24787700  0.95663100  0.23192000  1
  H  108  1  0.30542400  0.96058600  0.18981500  1
  H  109  1  0.30469000  0.08245100  0.12821200  1
  H  110  1  0.36202100  0.08416200  0.08572700  1
  H  111  1  0.76771800  0.06814600  0.86662800  1
  H  112  1  0.82906200  0.06602600  0.82739900  1
  H  113  1  0.69696900  0.96318400  0.81418500  1
  H  114  1  0.75912500  0.96018300  0.77536600  1
  H  119  1  0.15307900  0.02972100  0.24129800  1
  H  120  1  0.82432700  0.02052700  0.25405000  1
  H  121  1  0.84824900  0.03825300  0.76549700  1
  H  122  1  0.17822300  0.01700200  0.74106300  1
  H  195  1  0.93646900  0.74505100  0.73722800  1
  H  196  1  0.94250100  0.68212800  0.69920400  1
  H  197  1  0.02553900  0.82539500  0.67752400  1
  H  198  1  0.03098700  0.76293100  0.63940900  1
  H  199  1  0.06059100  0.67868000  0.63418200  1
  H  200  1  0.05965600  0.62280700  0.59067300  1
  H  201  1  0.91418000  0.67273400  0.63933800  1
  H  202  1  0.91345800  0.61657600  0.59611600  1
  H  203  1  0.98618100  0.53588500  0.62570700  1
  H  204  1  0.98564700  0.44816900  0.62331800  1
  H  205  1  0.98546300  0.49722900  0.52930300  1
  H  206  1  0.98446400  0.50036500  0.47233700  1
  H  207  1  0.98448400  0.67406300  0.53682400  1
  H  208  1  0.98337800  0.67747600  0.47443900  1
  H  209  1  0.05666500  0.63115000  0.41547300  1
  H  210  1  0.05591600  0.68926100  0.37362000  1
  H  211  1  0.91024600  0.62666400  0.41387400  1
  H  212  1  0.90930600  0.68409200  0.37148600  1
  H  213  1  0.98621500  0.54940400  0.37831700  1
  H  214  1  0.98806100  0.46172600  0.37595200  1
  H  215  1  0.98673200  0.32009300  0.52716600  1
  H  216  1  0.98758600  0.32354800  0.46479400  1
  H  217  1  0.91583100  0.38014700  0.40491800  1
  H  218  1  0.91812700  0.32479300  0.36119500  1
  H  219  1  0.06202100  0.37605000  0.41150400  1
  H  220  1  0.06452700  0.32096400  0.36751900  1
  H  221  1  0.03613000  0.23618300  0.36044200  1
  H  222  1  0.03254800  0.17547800  0.32074200  1
  H  223  1  0.94392000  0.25753200  0.26187000  1
  H  224  1  0.94803800  0.31859300  0.30145700  1
  H  225  1  0.05949600  0.37242500  0.58847000  1
  H  226  1  0.06084600  0.31423700  0.63029600  1
  H  227  1  0.94286200  0.22300700  0.63519500  1
  H  228  1  0.94577600  0.16524400  0.67722500  1
  H  229  1  0.03841200  0.24900000  0.73162100  1
  H  230  1  0.03481100  0.30713800  0.68991000  1
  H  231  1  0.91437700  0.30670900  0.62730900  1
  H  232  1  0.91326400  0.36451500  0.58511900  1
  H  233  1  0.92957200  0.76893200  0.36511500  1
  H  234  1  0.93188900  0.82972500  0.32547200  1
  H  235  1  0.03546600  0.69792700  0.31379800  1
  H  236  1  0.03866000  0.75954100  0.27457400  1
  H  241  1  0.96646900  0.15262400  0.73893300  1
  H  242  1  0.97596100  0.82489200  0.75553000  1
  H  243  1  0.96114800  0.84883900  0.26369000  1
  H  244  1  0.98387000  0.17937000  0.24211900  1
  H  251  1  0.93358200  0.97942600  0.22060200  1
  H  260  1  0.07276600  0.02175700  0.22971200  1
  H  261  1  0.10989700  0.84457600  0.26307700  1
  H  262  1  0.15020000  0.88062300  0.24982800  1
  H  263  1  0.88647900  0.15264600  0.25747200  1
  H  264  1  0.85121200  0.11821700  0.23688400  1
  H  265  1  0.02326500  0.06678500  0.27361000  1
  H  266  1  0.97236300  0.93195200  0.26811300  1
  H  277  1  0.01883200  0.93307900  0.72271200  1
  H  286  1  0.97625200  0.07240200  0.72733100  1
  H  287  1  0.15091700  0.11488500  0.76373600  1
  H  288  1  0.11482400  0.15377100  0.74855900  1
  H  289  1  0.84260500  0.89178700  0.75594000  1
  H  290  1  0.87744900  0.85470900  0.73733900  1
  H  291  1  0.93221200  0.02617800  0.77284900  1
  H  292  1  0.06725900  0.97540200  0.76928700  1
  H  369  1  0.02215520  0.51087300  0.23634200  1
  H  370  1  0.95868400  0.50523600  0.19875800  1
  H  371  1  0.10127100  0.42156900  0.17599200  1
  H  372  1  0.03822320  0.41648700  0.13830500  1
  H  373  1  0.95360200  0.38737100  0.13368500  1
  H  374  1  0.89727800  0.38882400  0.09047100  1
  H  375  1  0.94893600  0.53382900  0.13893600  1
  H  376  1  0.89232700  0.53506900  0.09601600  1
  H  377  1  0.81093900  0.46250600  0.12565900  1
  H  378  1  0.72321900  0.46298300  0.12329700  1
  H  379  1  0.77223700  0.46346900  0.02926800  1
  H  380  1  0.77543200  0.46518700  0.97230400  1
  H  381  1  0.94909500  0.46435000  0.03680100  1
  H  382  1  0.95254700  0.46583300  0.97442800  1
  H  383  1  0.90588800  0.39275100  0.91537700  1
  H  384  1  0.96459900  0.39332400  0.87393500  1
  H  385  1  0.90237400  0.53920700  0.91411300  1
  H  386  1  0.96041900  0.53997800  0.87214200  1
  H  387  1  0.82452000  0.46358600  0.87828900  1
  H  388  1  0.73684900  0.46176200  0.87591000  1
  H  389  1  0.59512500  0.46209000  0.02711900  1
  H  390  1  0.59862300  0.46167000  0.96472900  1
  H  391  1  0.65506900  0.53368600  0.90482400  1
  H  392  1  0.60043400  0.53115900  0.86066900  1
  H  393  1  0.65167900  0.38747100  0.91125600  1
  H  394  1  0.59737000  0.38472700  0.86681400  1
  H  395  1  0.51281200  0.41214700  0.85882500  1
  H  396  1  0.45246800  0.41594600  0.81892400  1
  H  397  1  0.53418900  0.50640900  0.76125100  1
  H  398  1  0.59498500  0.50198500  0.80101200  1
  H  399  1  0.64754800  0.38889400  0.08804100  1
  H  400  1  0.58978100  0.38694100  0.13013400  1
  H  401  1  0.49887800  0.50544900  0.13673400  1
  H  402  1  0.44178300  0.50224200  0.17919000  1
  H  403  1  0.52540400  0.40761300  0.23192000  1
  H  404  1  0.58295100  0.41156800  0.18981500  1
  H  405  1  0.58221700  0.53343300  0.12821200  1
  H  406  1  0.63954800  0.53514400  0.08572700  1
  H  407  1  0.04524520  0.51912800  0.86662800  1
  H  408  1  0.10658900  0.51700800  0.82739900  1
  H  409  1  0.97449600  0.41416600  0.81418500  1
  H  410  1  0.03665220  0.41116500  0.77536600  1
  H  415  1  0.43060600  0.48070300  0.24129800  1
  H  416  1  0.10185400  0.47150900  0.25405000  1
  H  417  1  0.12577600  0.48923500  0.76549700  1
  H  418  1  0.45575000  0.46798400  0.74106300  1
  H  491  1  0.21399600  0.19603300  0.73722800  1
  H  492  1  0.22002800  0.13311000  0.69920400  1
  H  493  1  0.30306600  0.27637700  0.67752400  1
  H  494  1  0.30851400  0.21391300  0.63940900  1
  H  495  1  0.33811800  0.12966200  0.63418200  1
  H  496  1  0.33718300  0.07378880  0.59067300  1
  H  497  1  0.19170700  0.12371600  0.63933800  1
  H  498  1  0.19098500  0.06755780  0.59611600  1
  H  499  1  0.26370800  0.98686700  0.62570700  1
  H  500  1  0.26317400  0.89915100  0.62331800  1
  H  501  1  0.26299000  0.94821100  0.52930300  1
  H  502  1  0.26199100  0.95134700  0.47233700  1
  H  503  1  0.26201100  0.12504500  0.53682400  1
  H  504  1  0.26090500  0.12845800  0.47443900  1
  H  505  1  0.33419200  0.08213180  0.41547300  1
  H  506  1  0.33344300  0.14024300  0.37362000  1
  H  507  1  0.18777300  0.07764580  0.41387400  1
  H  508  1  0.18683300  0.13507400  0.37148600  1
  H  509  1  0.26374200  0.00038575  0.37831700  1
  H  510  1  0.26558800  0.91270800  0.37595200  1
  H  511  1  0.26425900  0.77107500  0.52716600  1
  H  512  1  0.26511300  0.77453000  0.46479400  1
  H  513  1  0.19335800  0.83112900  0.40491800  1
  H  514  1  0.19565400  0.77577500  0.36119500  1
  H  515  1  0.33954800  0.82703200  0.41150400  1
  H  516  1  0.34205400  0.77194600  0.36751900  1
  H  517  1  0.31365700  0.68716500  0.36044200  1
  H  518  1  0.31007500  0.62646000  0.32074200  1
  H  519  1  0.22144700  0.70851400  0.26187000  1
  H  520  1  0.22556500  0.76957500  0.30145700  1
  H  521  1  0.33702300  0.82340700  0.58847000  1
  H  522  1  0.33837300  0.76521900  0.63029600  1
  H  523  1  0.22038900  0.67398900  0.63519500  1
  H  524  1  0.22330300  0.61622600  0.67722500  1
  H  525  1  0.31593900  0.69998200  0.73162100  1
  H  526  1  0.31233800  0.75812000  0.68991000  1
  H  527  1  0.19190400  0.75769100  0.62730900  1
  H  528  1  0.19079100  0.81549700  0.58511900  1
  H  529  1  0.20709900  0.21991400  0.36511500  1
  H  530  1  0.20941600  0.28070700  0.32547200  1
  H  531  1  0.31299300  0.14890900  0.31379800  1
  H  532  1  0.31618700  0.21052300  0.27457400  1
  H  537  1  0.24399600  0.60360600  0.73893300  1
  H  538  1  0.25348800  0.27587400  0.75553000  1
  H  539  1  0.23867500  0.29982100  0.26369000  1
  H  540  1  0.26139700  0.63035200  0.24211900  1
  H  547  1  0.21110900  0.43040800  0.22060200  1
  H  556  1  0.35029300  0.47273900  0.22971200  1
  H  557  1  0.38742400  0.29555800  0.26307700  1
  H  558  1  0.42772700  0.33160500  0.24982800  1
  H  559  1  0.16400600  0.60362800  0.25747200  1
  H  560  1  0.12873900  0.56919900  0.23688400  1
  H  561  1  0.30079200  0.51776700  0.27361000  1
  H  562  1  0.24989000  0.38293400  0.26811300  1
  H  573  1  0.29635900  0.38406100  0.72271200  1
  H  582  1  0.25377900  0.52338400  0.72733100  1
  H  583  1  0.42844400  0.56586700  0.76373600  1
  H  584  1  0.39235100  0.60475300  0.74855900  1
  H  585  1  0.12013200  0.34276900  0.75594000  1
  H  586  1  0.15497600  0.30569100  0.73733900  1
  H  587  1  0.20973900  0.47716000  0.77284900  1
  H  588  1  0.34478600  0.42638400  0.76928700  1
  C  1  1  0.51456800  0.01186000  0.10442200  1
  C  2  1  0.46675600  0.01215300  0.10312900  1
  C  3  1  0.45334500  0.01234400  0.07017400  1
  C  5  1  0.53147200  0.01211600  0.07228700  1
  C  6  1  0.57921100  0.01195900  0.06351600  1
  C  7  1  0.59656300  0.01273700  0.03095100  1
  C  9  1  0.59961900  0.01407100  0.97613300  1
  C  10  1  0.64512000  0.01426200  0.98789800  1
  C  11  1  0.64323600  0.01336800  0.02172700  1
  C  12  1  0.58592300  0.01446800  0.94271800  1
  C  13  1  0.53927400  0.01373900  0.93140200  1
  C  15  1  0.46118900  0.01223700  0.92928500  1
  C  16  1  0.47812100  0.01180500  0.89715300  1
  C  17  1  0.52591100  0.01286500  0.89844800  1
  C  18  1  0.41345000  0.01138400  0.93804500  1
  C  19  1  0.39608400  0.01163900  0.97060600  1
  C  21  1  0.39299700  0.01212000  0.02543500  1
  C  22  1  0.34750600  0.01148200  0.01365500  1
  C  23  1  0.34940700  0.01119500  0.97981800  1
  C  24  1  0.40667200  0.01221800  0.05886000  1
  C  25  1  0.37092600  0.01118600  0.08289100  1
  C  26  1  0.35136000  0.05279700  0.09478000  1
  C  27  1  0.31755100  0.05165400  0.11965100  1
  C  28  1  0.30276800  0.00903500  0.13342300  1
  C  29  1  0.32249000  0.96750300  0.12116800  1
  C  30  1  0.35611300  0.96849200  0.09620000  1
  C  31  1  0.26909500  0.00785400  0.15902900  1
  C  32  1  0.27574800  0.97970000  0.18711400  1
  C  33  1  0.24207700  0.97756700  0.21203400  1
  C  34  1  0.20082300  0.00369900  0.20950200  1
  C  35  1  0.19411000  0.03234400  0.18179300  1
  C  36  1  0.22784700  0.03435300  0.15690600  1
  C  37  1  0.38049700  0.00985400  0.91213600  1
  C  38  1  0.36556300  0.05119600  0.89690800  1
  C  39  1  0.33388800  0.04954600  0.87071700  1
  C  40  1  0.31633000  0.00665800  0.85918300  1
  C  41  1  0.33155200  0.96539000  0.87463200  1
  C  42  1  0.36346400  0.96689300  0.90069800  1
  C  43  1  0.28248000  0.00546900  0.83376200  1
  C  44  1  0.28788000  0.03211900  0.80484400  1
  C  45  1  0.25233400  0.03434300  0.78124500  1
  C  46  1  0.21022600  0.01029300  0.78618300  1
  C  47  1  0.20529200  0.98233400  0.81446700  1
  C  48  1  0.24102000  0.97983600  0.83785600  1
  C  49  1  0.62164500  0.01494700  0.91868100  1
  C  50  1  0.63985700  0.97292500  0.90646700  1
  C  51  1  0.67396900  0.97339400  0.88182200  1
  C  52  1  0.69070700  0.01574300  0.86875200  1
  C  53  1  0.67219300  0.05769100  0.88125000  1
  C  54  1  0.63796700  0.05736900  0.90583200  1
  C  55  1  0.72607800  0.01600600  0.84428800  1
  C  56  1  0.76470300  0.04609200  0.84706700  1
  C  57  1  0.80098000  0.04476000  0.82404300  1
  C  58  1  0.79965100  0.01304800  0.79767800  1
  C  59  1  0.76088700  0.98351000  0.79427300  1
  C  60  1  0.72453100  0.98513000  0.81727100  1
  C  61  1  0.61227500  0.01109500  0.08936800  1
  C  62  1  0.63029300  0.96849500  0.10073200  1
  C  63  1  0.62729900  0.05282400  0.10401500  1
  C  64  1  0.66018600  0.05193600  0.12946700  1
  C  65  1  0.67893700  0.00944100  0.14076900  1
  C  66  1  0.66341300  0.96775600  0.12604900  1
  C  67  1  0.71456800  0.00911200  0.16493900  1
  C  68  1  0.75619400  0.98432100  0.15936100  1
  C  69  1  0.79350700  0.98760000  0.18141800  1
  C  70  1  0.79007600  0.01564100  0.20976000  1
  C  71  1  0.74795400  0.03895000  0.21617800  1
  C  72  1  0.71078700  0.03592100  0.19391100  1
  C  115  1  0.16728300  0.00031800  0.23340100  1
  C  116  1  0.17333100  0.01750900  0.76524000  1
  C  117  1  0.83709600  0.00985400  0.77690400  1
  C  118  1  0.82796600  0.02261800  0.22979900  1
  C  123  1  0.98592400  0.51705800  0.60446100  1
  C  124  1  0.98559800  0.46924700  0.60315900  1
  C  125  1  0.98551500  0.45586400  0.57020000  1
  C  127  1  0.98577100  0.53398400  0.57233200  1
  C  128  1  0.98592100  0.58172600  0.56357200  1
  C  129  1  0.98534100  0.59906100  0.53099800  1
  C  131  1  0.98432800  0.60208200  0.47616600  1
  C  132  1  0.98396100  0.64758700  0.48792100  1
  C  133  1  0.98465100  0.64572700  0.52175500  1
  C  134  1  0.98411300  0.58836900  0.44274800  1
  C  135  1  0.98496700  0.54171700  0.43143500  1
  C  137  1  0.98649600  0.46362700  0.42932300  1
  C  138  1  0.98702000  0.48054300  0.39719100  1
  C  139  1  0.98594500  0.52833600  0.39848100  1
  C  140  1  0.98725300  0.41589600  0.43808500  1
  C  141  1  0.98679100  0.39854700  0.47064400  1
  C  143  1  0.98592100  0.39550500  0.52545400  1
  C  144  1  0.98653500  0.34999700  0.51369700  1
  C  145  1  0.98706200  0.35187400  0.47986700  1
  C  146  1  0.98559800  0.40920100  0.55886900  1
  C  147  1  0.98628500  0.37344100  0.58287200  1
  C  148  1  0.94449300  0.35376800  0.59435000  1
  C  149  1  0.94528000  0.31969900  0.61904200  1
  C  150  1  0.98771800  0.30477300  0.63300200  1
  C  151  1  0.02943700  0.32459500  0.62116400  1
  C  152  1  0.02880400  0.35846900  0.59636900  1
  C  153  1  0.98854700  0.27080300  0.65837900  1
  C  154  1  0.01601200  0.27733800  0.68680700  1
  C  155  1  0.01792200  0.24332100  0.71148400  1
  C  156  1  0.99231400  0.20182200  0.70832200  1
  C  157  1  0.96427000  0.19527400  0.68028200  1
  C  158  1  0.96247300  0.22936700  0.65563600  1
  C  159  1  0.98869600  0.38288800  0.41221300  1
  C  160  1  0.94728900  0.36792500  0.39709000  1
  C  161  1  0.94879800  0.33577500  0.37118600  1
  C  162  1  0.99160600  0.31776000  0.35987800  1
  C  163  1  0.03294600  0.33302500  0.37519700  1
  C  164  1  0.03158500  0.36542400  0.40096600  1
  C  165  1  0.99264000  0.28347600  0.33476900  1
  C  166  1  0.96650100  0.28883800  0.30561900  1
  C  167  1  0.96439500  0.25310000  0.28216900  1
  C  168  1  0.98804400  0.21086200  0.28749400  1
  C  169  1  0.01533200  0.20585600  0.31608900  1
  C  170  1  0.01768400  0.24176100  0.33935100  1
  C  171  1  0.98351600  0.62405200  0.41868200  1
  C  172  1  0.02547600  0.64237900  0.40645300  1
  C  173  1  0.02490500  0.67611600  0.38155300  1
  C  174  1  0.98251700  0.69233400  0.36821300  1
  C  175  1  0.94063200  0.67377100  0.38077300  1
  C  176  1  0.94105500  0.63993400  0.40562200  1
  C  177  1  0.98215300  0.72720600  0.34338400  1
  C  178  1  0.95180200  0.76568800  0.34567500  1
  C  179  1  0.95322100  0.80162800  0.32238800  1
  C  180  1  0.98522300  0.80005700  0.29620200  1
  C  181  1  0.01495300  0.76136300  0.29324100  1
  C  182  1  0.01327500  0.72537100  0.31651600  1
  C  183  1  0.98646900  0.61477600  0.58945100  1
  C  184  1  0.02889800  0.63302300  0.60094600  1
  C  185  1  0.94460700  0.62930100  0.60416200  1
  C  186  1  0.94519000  0.66193100  0.62978600  1
  C  187  1  0.98751300  0.68089000  0.64124200  1
  C  188  1  0.02933400  0.66587900  0.62644300  1
  C  189  1  0.98752700  0.71621900  0.66565200  1
  C  190  1  0.01211500  0.75804600  0.66039700  1
  C  191  1  0.00859400  0.79503400  0.68270800  1
  C  192  1  0.98050500  0.79110700  0.71100300  1
  C  193  1  0.95738400  0.74878400  0.71708700  1
  C  194  1  0.96065200  0.71193100  0.69456300  1
  C  237  1  0.99573100  0.16797400  0.73201100  1
  C  238  1  0.98168100  0.17421400  0.26622900  1
  C  239  1  0.98911200  0.83757900  0.27554500  1
  C  240  1  0.97342100  0.82870800  0.73131900  1
  C  245  1  0.98381100  0.01789300  0.24683300  1
  C  246  1  0.94034700  0.01055200  0.23180700  1
  C  247  1  0.90584000  0.04518300  0.23208200  1
  C  248  1  0.91447800  0.08903600  0.24687900  1
  C  249  1  0.95862900  0.09658900  0.26155100  1
  C  250  1  0.99236300  0.06118600  0.26179400  1
  C  253  1  0.01747800  0.98185100  0.24807600  1
  C  254  1  0.00543000  0.93749500  0.25980400  1
  C  255  1  0.03847700  0.90141700  0.26204200  1
  C  256  1  0.08548900  0.90997900  0.25315700  1
  C  257  1  0.09811200  0.95499000  0.24178900  1
  C  258  1  0.06391700  0.98994800  0.23895000  1
  C  271  1  0.98062700  0.98495300  0.74737400  1
  C  272  1  0.98761300  0.94074900  0.73348800  1
  C  273  1  0.95214900  0.90708200  0.73378700  1
  C  274  1  0.90789700  0.91734000  0.74750400  1
  C  275  1  0.90056700  0.96211900  0.76126300  1
  C  276  1  0.93707200  0.99487100  0.76146700  1
  C  279  1  0.01658500  0.01872900  0.74772300  1
  C  280  1  0.06082400  0.00802400  0.76034800  1
  C  281  1  0.09580800  0.04206500  0.76220000  1
  C  282  1  0.08688500  0.08851000  0.75216700  1
  C  283  1  0.04208300  0.09956500  0.73974000  1
  C  284  1  0.00797900  0.06451300  0.73714500  1
  C  297  1  0.79209500  0.46284200  0.10442200  1
  C  298  1  0.74428300  0.46313500  0.10312900  1
  C  299  1  0.73087200  0.46332600  0.07017400  1
  C  301  1  0.80899900  0.46309800  0.07228700  1
  C  302  1  0.85673800  0.46294100  0.06351600  1
  C  303  1  0.87409000  0.46371900  0.03095100  1
  C  305  1  0.87714600  0.46505300  0.97613300  1
  C  306  1  0.92264700  0.46524400  0.98789800  1
  C  307  1  0.92076300  0.46435000  0.02172700  1
  C  308  1  0.86345000  0.46545000  0.94271800  1
  C  309  1  0.81680100  0.46472100  0.93140200  1
  C  311  1  0.73871600  0.46321900  0.92928500  1
  C  312  1  0.75564800  0.46278700  0.89715300  1
  C  313  1  0.80343800  0.46384700  0.89844800  1
  C  314  1  0.69097700  0.46236600  0.93804500  1
  C  315  1  0.67361100  0.46262100  0.97060600  1
  C  317  1  0.67052400  0.46310200  0.02543500  1
  C  318  1  0.62503300  0.46246400  0.01365500  1
  C  319  1  0.62693400  0.46217700  0.97981800  1
  C  320  1  0.68419900  0.46320000  0.05886000  1
  C  321  1  0.64845300  0.46216800  0.08289100  1
  C  322  1  0.62888700  0.50377900  0.09478000  1
  C  323  1  0.59507800  0.50263600  0.11965100  1
  C  324  1  0.58029500  0.46001700  0.13342300  1
  C  325  1  0.60001700  0.41848500  0.12116800  1
  C  326  1  0.63364000  0.41947400  0.09620000  1
  C  327  1  0.54662200  0.45883600  0.15902900  1
  C  328  1  0.55327500  0.43068200  0.18711400  1
  C  329  1  0.51960400  0.42854900  0.21203400  1
  C  330  1  0.47835000  0.45468100  0.20950200  1
  C  331  1  0.47163700  0.48332600  0.18179300  1
  C  332  1  0.50537400  0.48533500  0.15690600  1
  C  333  1  0.65802400  0.46083600  0.91213600  1
  C  334  1  0.64309000  0.50217800  0.89690800  1
  C  335  1  0.61141500  0.50052800  0.87071700  1
  C  336  1  0.59385700  0.45764000  0.85918300  1
  C  337  1  0.60907900  0.41637200  0.87463200  1
  C  338  1  0.64099100  0.41787500  0.90069800  1
  C  339  1  0.56000700  0.45645100  0.83376200  1
  C  340  1  0.56540700  0.48310100  0.80484400  1
  C  341  1  0.52986100  0.48532500  0.78124500  1
  C  342  1  0.48775300  0.46127500  0.78618300  1
  C  343  1  0.48281900  0.43331600  0.81446700  1
  C  344  1  0.51854700  0.43081800  0.83785600  1
  C  345  1  0.89917200  0.46592900  0.91868100  1
  C  346  1  0.91738400  0.42390700  0.90646700  1
  C  347  1  0.95149600  0.42437600  0.88182200  1
  C  348  1  0.96823400  0.46672500  0.86875200  1
  C  349  1  0.94972000  0.50867300  0.88125000  1
  C  350  1  0.91549400  0.50835100  0.90583200  1
  C  351  1  0.00360523  0.46698800  0.84428800  1
  C  352  1  0.04223020  0.49707400  0.84706700  1
  C  353  1  0.07850720  0.49574200  0.82404300  1
  C  354  1  0.07717820  0.46403000  0.79767800  1
  C  355  1  0.03841420  0.43449200  0.79427300  1
  C  356  1  0.00205823  0.43611200  0.81727100  1
  C  357  1  0.88980200  0.46207700  0.08936800  1
  C  358  1  0.90782000  0.41947700  0.10073200  1
  C  359  1  0.90482600  0.50380600  0.10401500  1
  C  360  1  0.93771300  0.50291800  0.12946700  1
  C  361  1  0.95646400  0.46042300  0.14076900  1
  C  362  1  0.94094000  0.41873800  0.12604900  1
  C  363  1  0.99209500  0.46009400  0.16493900  1
  C  364  1  0.03372120  0.43530300  0.15936100  1
  C  365  1  0.07103420  0.43858200  0.18141800  1
  C  366  1  0.06760320  0.46662300  0.20976000  1
  C  367  1  0.02548120  0.48993200  0.21617800  1
  C  368  1  0.98831400  0.48690300  0.19391100  1
  C  411  1  0.44481000  0.45130000  0.23340100  1
  C  412  1  0.45085800  0.46849100  0.76524000  1
  C  413  1  0.11462300  0.46083600  0.77690400  1
  C  414  1  0.10549300  0.47360000  0.22979900  1
  C  419  1  0.26345100  0.96804000  0.60446100  1
  C  420  1  0.26312500  0.92022900  0.60315900  1
  C  421  1  0.26304200  0.90684600  0.57020000  1
  C  423  1  0.26329800  0.98496600  0.57233200  1
  C  424  1  0.26344800  0.03270780  0.56357200  1
  C  425  1  0.26286800  0.05004280  0.53099800  1
  C  427  1  0.26185500  0.05306380  0.47616600  1
  C  428  1  0.26148800  0.09856880  0.48792100  1
  C  429  1  0.26217800  0.09670880  0.52175500  1
  C  430  1  0.26164000  0.03935080  0.44274800  1
  C  431  1  0.26249400  0.99269900  0.43143500  1
  C  433  1  0.26402300  0.91460900  0.42932300  1
  C  434  1  0.26454700  0.93152500  0.39719100  1
  C  435  1  0.26347200  0.97931800  0.39848100  1
  C  436  1  0.26478000  0.86687800  0.43808500  1
  C  437  1  0.26431800  0.84952900  0.47064400  1
  C  439  1  0.26344800  0.84648700  0.52545400  1
  C  440  1  0.26406200  0.80097900  0.51369700  1
  C  441  1  0.26458900  0.80285600  0.47986700  1
  C  442  1  0.26312500  0.86018300  0.55886900  1
  C  443  1  0.26381200  0.82442300  0.58287200  1
  C  444  1  0.22202000  0.80475000  0.59435000  1
  C  445  1  0.22280700  0.77068100  0.61904200  1
  C  446  1  0.26524500  0.75575500  0.63300200  1
  C  447  1  0.30696400  0.77557700  0.62116400  1
  C  448  1  0.30633100  0.80945100  0.59636900  1
  C  449  1  0.26607400  0.72178500  0.65837900  1
  C  450  1  0.29353900  0.72832000  0.68680700  1
  C  451  1  0.29544900  0.69430300  0.71148400  1
  C  452  1  0.26984100  0.65280400  0.70832200  1
  C  453  1  0.24179700  0.64625600  0.68028200  1
  C  454  1  0.24000000  0.68034900  0.65563600  1
  C  455  1  0.26622300  0.83387000  0.41221300  1
  C  456  1  0.22481600  0.81890700  0.39709000  1
  C  457  1  0.22632500  0.78675700  0.37118600  1
  C  458  1  0.26913300  0.76874200  0.35987800  1
  C  459  1  0.31047300  0.78400700  0.37519700  1
  C  460  1  0.30911200  0.81640600  0.40096600  1
  C  461  1  0.27016700  0.73445800  0.33476900  1
  C  462  1  0.24402800  0.73982000  0.30561900  1
  C  463  1  0.24192200  0.70408200  0.28216900  1
  C  464  1  0.26557100  0.66184400  0.28749400  1
  C  465  1  0.29285900  0.65683800  0.31608900  1
  C  466  1  0.29521100  0.69274300  0.33935100  1
  C  467  1  0.26104300  0.07503380  0.41868200  1
  C  468  1  0.30300300  0.09336080  0.40645300  1
  C  469  1  0.30243200  0.12709800  0.38155300  1
  C  470  1  0.26004400  0.14331600  0.36821300  1
  C  471  1  0.21815900  0.12475300  0.38077300  1
  C  472  1  0.21858200  0.09091580  0.40562200  1
  C  473  1  0.25968000  0.17818800  0.34338400  1
  C  474  1  0.22932900  0.21667000  0.34567500  1
  C  475  1  0.23074800  0.25261000  0.32238800  1
  C  476  1  0.26275000  0.25103900  0.29620200  1
  C  477  1  0.29248000  0.21234500  0.29324100  1
  C  478  1  0.29080200  0.17635300  0.31651600  1
  C  479  1  0.26399600  0.06575780  0.58945100  1
  C  480  1  0.30642500  0.08400480  0.60094600  1
  C  481  1  0.22213400  0.08028280  0.60416200  1
  C  482  1  0.22271700  0.11291300  0.62978600  1
  C  483  1  0.26504000  0.13187200  0.64124200  1
  C  484  1  0.30686100  0.11686100  0.62644300  1
  C  485  1  0.26505400  0.16720100  0.66565200  1
  C  486  1  0.28964200  0.20902800  0.66039700  1
  C  487  1  0.28612100  0.24601600  0.68270800  1
  C  488  1  0.25803200  0.24208900  0.71100300  1
  C  489  1  0.23491100  0.19976600  0.71708700  1
  C  490  1  0.23817900  0.16291300  0.69456300  1
  C  533  1  0.27325800  0.61895600  0.73201100  1
  C  534  1  0.25920800  0.62519600  0.26622900  1
  C  535  1  0.26663900  0.28856100  0.27554500  1
  C  536  1  0.25094800  0.27969000  0.73131900  1
  C  541  1  0.26133800  0.46887500  0.24683300  1
  C  542  1  0.21787400  0.46153400  0.23180700  1
  C  543  1  0.18336700  0.49616500  0.23208200  1
  C  544  1  0.19200500  0.54001800  0.24687900  1
  C  545  1  0.23615600  0.54757100  0.26155100  1
  C  546  1  0.26989000  0.51216800  0.26179400  1
  C  549  1  0.29500500  0.43283300  0.24807600  1
  C  550  1  0.28295700  0.38847700  0.25980400  1
  C  551  1  0.31600400  0.35239900  0.26204200  1
  C  552  1  0.36301600  0.36096100  0.25315700  1
  C  553  1  0.37563900  0.40597200  0.24178900  1
  C  554  1  0.34144400  0.44093000  0.23895000  1
  C  567  1  0.25815400  0.43593500  0.74737400  1
  C  568  1  0.26514000  0.39173100  0.73348800  1
  C  569  1  0.22967600  0.35806400  0.73378700  1
  C  570  1  0.18542400  0.36832200  0.74750400  1
  C  571  1  0.17809400  0.41310100  0.76126300  1
  C  572  1  0.21459900  0.44585300  0.76146700  1
  C  575  1  0.29411200  0.46971100  0.74772300  1
  C  576  1  0.33835100  0.45900600  0.76034800  1
  C  577  1  0.37333500  0.49304700  0.76220000  1
  C  578  1  0.36441200  0.53949200  0.75216700  1
  C  579  1  0.31961000  0.55054700  0.73974000  1
  C  580  1  0.28550600  0.51549500  0.73714500  1
  N  4  1  0.49341300  0.01249200  0.05278700  1
  N  8  1  0.57186700  0.01319200  0.00281300  1
  N  14  1  0.49921700  0.01347200  0.94879200  1
  N  20  1  0.42076000  0.01224000  0.99875200  1
  N  126  1  0.98547300  0.49593200  0.55282000  1
  N  130  1  0.98512300  0.57435400  0.50285900  1
  N  136  1  0.98523700  0.50166300  0.44882400  1
  N  142  1  0.98606300  0.42325400  0.49877500  1
  N  252  1  0.88130300  0.12274100  0.24712500  1
  N  259  1  0.11791400  0.87563100  0.25571800  1
  N  267  1  0.14178400  0.96330600  0.23280100  1
  N  268  1  0.02679900  0.86137000  0.27604100  1
  N  269  1  0.96873800  0.13490600  0.27788100  1
  N  270  1  0.86655600  0.03530900  0.21685400  1
  N  278  1  0.87319900  0.88518100  0.74706800  1
  N  285  1  0.12028500  0.12180900  0.75509100  1
  N  293  1  0.03287900  0.14273900  0.73012900  1
  N  294  1  0.13443200  0.03036500  0.77757300  1
  N  295  1  0.86079400  0.97209300  0.77627300  1
  N  296  1  0.96125500  0.86760000  0.71859300  1
  N  300  1  0.77094000  0.46347400  0.05278700  1
  N  304  1  0.84939400  0.46417400  0.00281300  1
  N  310  1  0.77674400  0.46445400  0.94879200  1
  N  316  1  0.69828700  0.46322200  0.99875200  1
  N  422  1  0.26300000  0.94691400  0.55282000  1
  N  426  1  0.26265000  0.02533580  0.50285900  1
  N  432  1  0.26276400  0.95264500  0.44882400  1
  N  438  1  0.26359000  0.87423600  0.49877500  1
  N  548  1  0.15883000  0.57372300  0.24712500  1
  N  555  1  0.39544100  0.32661300  0.25571800  1
  N  563  1  0.41931100  0.41428800  0.23280100  1
  N  564  1  0.30432600  0.31235200  0.27604100  1
  N  565  1  0.24626500  0.58588800  0.27788100  1
  N  566  1  0.14408300  0.48629100  0.21685400  1
  N  574  1  0.15072600  0.33616300  0.74706800  1
  N  581  1  0.39781200  0.57279100  0.75509100  1
  N  589  1  0.31040600  0.59372100  0.73012900  1
  N  590  1  0.41195900  0.48134700  0.77757300  1
  N  591  1  0.13832100  0.42307500  0.77627300  1
  N  592  1  0.23878200  0.31858200  0.71859300  1
