# generated using pymatgen
data_H7C12(N2O)2
_symmetry_space_group_name_H-M   'P 1'
_cell_length_a   28.91555000
_cell_length_b   28.91560000
_cell_length_c   36.56120000
_cell_angle_alpha   90.00000000
_cell_angle_beta   90.00000000
_cell_angle_gamma   120.00017160
_symmetry_Int_Tables_number   1
_chemical_formula_structural   H7C12(N2O)2
_chemical_formula_sum   'H84 C144 N48 O24'
_cell_volume   26473.66006805
_cell_formula_units_Z   12
loop_
 _symmetry_equiv_pos_site_id
 _symmetry_equiv_pos_as_xyz
  1  'x, y, z'
loop_
 _atom_site_type_symbol
 _atom_site_label
 _atom_site_symmetry_multiplicity
 _atom_site_fract_x
 _atom_site_fract_y
 _atom_site_fract_z
 _atom_site_occupancy
  H  7  1  0.73468400  0.15094700  0.96802000  1
  H  16  1  0.85524100  0.26609300  0.03216700  1
  H  19  1  0.86398400  0.15316100  0.05102500  1
  H  20  1  0.83955600  0.12881500  0.94963000  1
  H  21  1  0.65389100  0.06115700  0.08962700  1
  H  22  1  0.95086200  0.34779400  0.91930300  1
  H  33  1  0.41517700  0.26456000  0.30141400  1
  H  42  1  0.40997500  0.14408600  0.36547400  1
  H  45  1  0.28818800  0.13500300  0.38434400  1
  H  46  1  0.28816800  0.15952600  0.28300400  1
  H  47  1  0.40585300  0.34510600  0.42304300  1
  H  48  1  0.39614800  0.04856300  0.25257800  1
  H  59  1  0.84830700  0.58375500  0.63465900  1
  H  68  1  0.73318100  0.58931300  0.69873800  1
  H  71  1  0.84609200  0.71076500  0.71776600  1
  H  72  1  0.87075900  0.71090100  0.61639600  1
  H  73  1  0.93783200  0.59241500  0.75630100  1
  H  74  1  0.65181800  0.60401800  0.58592700  1
  H  85  1  0.26557000  0.85664300  0.96654200  1
  H  94  1  0.15133600  0.73512900  0.03049600  1
  H  97  1  0.12793400  0.83864000  0.04965800  1
  H  98  1  0.15154300  0.86424900  0.94835700  1
  H  99  1  0.34705700  0.95147500  0.07967100  1
  H  100  1  0.06096600  0.65458600  0.90902300  1
  H  111  1  0.59006400  0.73371700  0.29993200  1
  H  120  1  0.58293700  0.84801400  0.36395300  1
  H  123  1  0.70980700  0.87110100  0.38314300  1
  H  124  1  0.71176000  0.84760400  0.28178700  1
  H  125  1  0.60291100  0.65193900  0.41306000  1
  H  126  1  0.59281500  0.93835200  0.24249100  1
  H  137  1  0.14265600  0.40913700  0.63325800  1
  H  146  1  0.26427400  0.41663300  0.69730400  1
  H  149  1  0.16093300  0.28966200  0.71636800  1
  H  150  1  0.13546800  0.28774400  0.61499000  1
  H  151  1  0.04754700  0.39541800  0.74629100  1
  H  152  1  0.34512400  0.40754500  0.57580900  1
  H  163  1  0.04789500  0.50976300  0.94629700  1
  H  164  1  0.97434200  0.47851100  0.06758700  1
  H  166  1  0.08215600  0.60322500  0.95424200  1
  H  168  1  0.92291400  0.37576100  0.05045100  1
  H  175  1  0.46116600  0.95147000  0.27965600  1
  H  176  1  0.50340000  0.02510400  0.40092400  1
  H  178  1  0.52026300  0.91710900  0.28768700  1
  H  180  1  0.45197300  0.07642200  0.38377800  1
  H  187  1  0.48959900  0.53942100  0.61324000  1
  H  188  1  0.52106000  0.49614200  0.73417500  1
  H  190  1  0.39616000  0.48006800  0.62116900  1
  H  192  1  0.62374100  0.54747600  0.71693500  1
  H  199  1  0.53718400  0.48954400  0.38594700  1
  H  200  1  0.49641000  0.52172300  0.26446800  1
  H  202  1  0.47788700  0.39627500  0.37775500  1
  H  204  1  0.54828000  0.62441300  0.28176500  1
  H  211  1  0.50962200  0.04831000  0.05246100  1
  H  212  1  0.47735900  0.97497100  0.93109800  1
  H  214  1  0.60286500  0.08216800  0.04429200  1
  H  216  1  0.37470700  0.92414500  0.94845700  1
  H  223  1  0.95039500  0.46079400  0.71898300  1
  H  224  1  0.02441300  0.50256100  0.59781900  1
  H  226  1  0.91672300  0.52037500  0.71088700  1
  H  228  1  0.07516900  0.45066600  0.61517100  1
  H  235  1  0.72149700  0.94363600  0.11454100  1
  H  236  1  0.77004800  0.05896900  0.21930000  1
  H  238  1  0.75889300  0.02595300  0.07606600  1
  H  240  1  0.73205000  0.97618300  0.25768700  1
  H  247  1  0.22172800  0.27810700  0.44782900  1
  H  248  1  0.28793100  0.22900500  0.55262900  1
  H  250  1  0.26542400  0.23926000  0.40940900  1
  H  252  1  0.24436800  0.26821500  0.59100000  1
  H  259  1  0.05549800  0.77821200  0.78117200  1
  H  260  1  0.94039300  0.71081500  0.88600900  1
  H  262  1  0.97317200  0.73274400  0.74273000  1
  H  264  1  0.02328400  0.75634400  0.92435000  1
  H  271  1  0.26897900  0.05879700  0.11588700  1
  H  272  1  0.21633500  0.93797800  0.21771300  1
  H  274  1  0.23181300  0.97871800  0.07543700  1
  H  276  1  0.25401600  0.01844000  0.25809800  1
  H  283  1  0.78959700  0.73078700  0.44933400  1
  H  284  1  0.72050500  0.78229700  0.55123700  1
  H  286  1  0.74541700  0.76648400  0.40894900  1
  H  288  1  0.76484700  0.74603900  0.59156600  1
  H  295  1  0.94046700  0.21043600  0.78253400  1
  H  296  1  0.06126700  0.27833600  0.88438400  1
  H  298  1  0.02053800  0.25309200  0.74213000  1
  H  300  1  0.98080600  0.23573500  0.92475300  1
  C  1  1  0.79152200  0.16614700  0.00967600  1
  C  2  1  0.74005100  0.13927800  0.99337900  1
  C  3  1  0.69438600  0.10385300  0.01380800  1
  C  4  1  0.70190900  0.08877200  0.04930200  1
  C  5  1  0.75379900  0.11028700  0.06414600  1
  C  6  1  0.79794200  0.15142900  0.04557200  1
  C  9  1  0.83558400  0.20739300  0.99073000  1
  C  10  1  0.85051800  0.19867500  0.95543300  1
  C  11  1  0.89622900  0.23974100  0.93790100  1
  C  12  1  0.92357800  0.29122500  0.95366300  1
  C  13  1  0.90879400  0.30063600  0.98838400  1
  C  14  1  0.86634200  0.25832500  0.00736200  1
  C  27  1  0.37354700  0.20766300  0.34302900  1
  C  28  1  0.39792800  0.25911100  0.32670100  1
  C  29  1  0.40818800  0.30472800  0.34720100  1
  C  30  1  0.38557000  0.29714100  0.38269400  1
  C  31  1  0.35527800  0.24523300  0.39751300  1
  C  32  1  0.35239200  0.20115200  0.37892500  1
  C  35  1  0.37081800  0.16365100  0.32406700  1
  C  36  1  0.34715400  0.14870000  0.28877500  1
  C  37  1  0.34259200  0.10303500  0.27122600  1
  C  38  1  0.36680600  0.07575000  0.28696700  1
  C  39  1  0.39098700  0.09053500  0.32169300  1
  C  40  1  0.39108200  0.13296000  0.34067700  1
  C  53  1  0.83313000  0.62538000  0.67632900  1
  C  54  1  0.86010400  0.60091900  0.65996700  1
  C  55  1  0.89534200  0.59046900  0.68045300  1
  C  56  1  0.91035800  0.61297700  0.71598000  1
  C  57  1  0.88888000  0.64336500  0.73083700  1
  C  58  1  0.84780400  0.64645500  0.71224100  1
  C  61  1  0.79197200  0.62832900  0.65736000  1
  C  62  1  0.80081700  0.65210100  0.62209900  1
  C  63  1  0.75986500  0.65693600  0.60456700  1
  C  64  1  0.70837400  0.63296000  0.62030200  1
  C  65  1  0.69881800  0.60861200  0.65497800  1
  C  66  1  0.74099700  0.60817000  0.67392700  1
  C  79  1  0.20687700  0.83615400  0.00808100  1
  C  80  1  0.25775500  0.86737700  0.99146800  1
  C  81  1  0.29990000  0.90986500  0.01055100  1
  C  82  1  0.29034300  0.92412500  0.04541800  1
  C  83  1  0.23895700  0.89612000  0.06125200  1
  C  84  1  0.19807400  0.85048900  0.04355000  1
  C  87  1  0.16583200  0.79202600  0.98906100  1
  C  88  1  0.15064600  0.79855200  0.95333800  1
  C  89  1  0.10949300  0.75436000  0.93479400  1
  C  90  1  0.08854400  0.70241500  0.94943100  1
  C  91  1  0.10397000  0.69483900  0.98479000  1
  C  92  1  0.13933000  0.74047400  0.00525300  1
  C  105  1  0.62831900  0.79234800  0.34151400  1
  C  106  1  0.60853500  0.74146900  0.32488400  1
  C  107  1  0.60871300  0.69922900  0.34395400  1
  C  108  1  0.63247800  0.70867600  0.37883200  1
  C  109  1  0.65599600  0.76005900  0.39469100  1
  C  110  1  0.65139500  0.80103600  0.37700000  1
  C  113  1  0.62535000  0.83347300  0.32252100  1
  C  114  1  0.64702400  0.84862100  0.28678700  1
  C  115  1  0.64405000  0.88981600  0.26825300  1
  C  116  1  0.61308300  0.91079000  0.28290300  1
  C  117  1  0.59009000  0.89537000  0.31826500  1
  C  118  1  0.60042300  0.86006900  0.33875400  1
  C  131  1  0.16321700  0.37098000  0.67479700  1
  C  132  1  0.13187700  0.39046400  0.65814300  1
  C  133  1  0.08933300  0.39003600  0.67720900  1
  C  134  1  0.07505400  0.36617600  0.71206300  1
  C  135  1  0.10314100  0.34289600  0.72792000  1
  C  136  1  0.14887400  0.34782000  0.71026100  1
  C  139  1  0.20744100  0.37421800  0.65581000  1
  C  140  1  0.20105000  0.35264500  0.62005300  1
  C  141  1  0.24533000  0.35585500  0.60152800  1
  C  142  1  0.29724200  0.38695900  0.61619900  1
  C  143  1  0.30465400  0.40980700  0.65160000  1
  C  144  1  0.25894200  0.39924500  0.67208100  1
  C  157  1  0.03355300  0.50435800  0.97245200  1
  C  159  1  0.97916200  0.44161300  0.01842500  1
  C  160  1  0.99055200  0.48482200  0.04198000  1
  C  162  1  0.04369700  0.54763100  0.99546700  1
  C  165  1  0.07143000  0.59968300  0.98122700  1
  C  167  1  0.94414200  0.38744000  0.02659500  1
  C  169  1  0.47012700  0.96587400  0.30579600  1
  C  171  1  0.46177300  0.02032000  0.35172400  1
  C  172  1  0.49347300  0.00884400  0.37533400  1
  C  174  1  0.50317800  0.95567700  0.32885600  1
  C  177  1  0.52744600  0.92787200  0.31466600  1
  C  179  1  0.44269400  0.05541500  0.35983400  1
  C  181  1  0.49505100  0.53028900  0.63933000  1
  C  183  1  0.55787700  0.53823400  0.68510800  1
  C  184  1  0.51470700  0.50626500  0.70865200  1
  C  186  1  0.45181600  0.49697600  0.66231600  1
  C  189  1  0.39974400  0.47271400  0.64811300  1
  C  191  1  0.61205500  0.55724200  0.69316900  1
  C  193  1  0.52850500  0.49513700  0.35976300  1
  C  195  1  0.53782100  0.55825500  0.31379600  1
  C  196  1  0.50603000  0.51521400  0.29010700  1
  C  198  1  0.49536800  0.45202800  0.33662400  1
  C  201  1  0.47073600  0.39990600  0.35078100  1
  C  203  1  0.55734000  0.61252300  0.30572800  1
  C  205  1  0.50401900  0.03400500  0.02628900  1
  C  207  1  0.44086700  0.98004200  0.98038500  1
  C  208  1  0.48389500  0.99115500  0.95672000  1
  C  210  1  0.54711100  0.04386100  0.00316900  1
  C  213  1  0.59923000  0.07132900  0.01732900  1
  C  215  1  0.38658700  0.94528900  0.97234300  1
  C  217  1  0.96489700  0.46968900  0.69286500  1
  C  219  1  0.01905300  0.46069400  0.64701900  1
  C  220  1  0.00806100  0.49273500  0.62338700  1
  C  222  1  0.95518900  0.50307300  0.66979200  1
  C  225  1  0.92767300  0.52767900  0.68394600  1
  C  227  1  0.05381300  0.44118100  0.63896900  1
  C  229  1  0.73395900  0.96885200  0.13654000  1
  C  231  1  0.73466100  0.97792000  0.20157300  1
  C  232  1  0.76131000  0.03399900  0.19736700  1
  C  234  1  0.75834000  0.02480000  0.13226700  1
  C  237  1  0.76221000  0.04735400  0.09833000  1
  C  239  1  0.71554900  0.95454300  0.23522100  1
  C  241  1  0.23442000  0.26563700  0.46985500  1
  C  243  1  0.24290500  0.26509200  0.53488900  1
  C  244  1  0.27172000  0.23780100  0.53071200  1
  C  246  1  0.26535500  0.24057200  0.46561000  1
  C  249  1  0.28360300  0.23608200  0.43165900  1
  C  251  1  0.23913800  0.28460200  0.56850100  1
  C  253  1  0.03031700  0.76530200  0.80318800  1
  C  255  1  0.02137100  0.75690700  0.86822400  1
  C  256  1  0.96529800  0.72715800  0.86405900  1
  C  258  1  0.97439200  0.73343300  0.79895300  1
  C  261  1  0.95185200  0.71467100  0.76502600  1
  C  263  1  0.04485200  0.76142000  0.90186000  1
  C  265  1  0.25572300  0.03246300  0.13726200  1
  C  267  1  0.25295100  0.02000300  0.20203000  1
  C  268  1  0.22583400  0.96414200  0.19642800  1
  C  270  1  0.23075800  0.97670900  0.13160000  1
  C  273  1  0.22756600  0.95593400  0.09709400  1
  C  275  1  0.27139800  0.04134900  0.23626600  1
  C  277  1  0.77636100  0.74388700  0.47070600  1
  C  279  1  0.76669000  0.74656800  0.53548000  1
  C  280  1  0.73723500  0.77295400  0.52990800  1
  C  282  1  0.74486000  0.76809900  0.46507400  1
  C  285  1  0.72689500  0.77080600  0.43059200  1
  C  287  1  0.77025500  0.72858900  0.56973500  1
  C  289  1  0.96679100  0.22345800  0.80391500  1
  C  291  1  0.97923400  0.23309600  0.86868600  1
  C  292  1  0.03509800  0.26173200  0.86309200  1
  C  294  1  0.02255600  0.25413300  0.79826300  1
  C  297  1  0.04338100  0.27166000  0.76375300  1
  C  299  1  0.95789200  0.23021100  0.90292200  1
  N  23  1  0.93590200  0.35159800  0.00017600  1
  N  24  1  0.91435800  0.23174100  0.90652600  1
  N  25  1  0.75977200  0.09044000  0.09535100  1
  N  26  1  0.64525900  0.08675200  0.99872100  1
  N  49  1  0.41499000  0.06354700  0.33343500  1
  N  50  1  0.31645900  0.08488900  0.23985700  1
  N  51  1  0.32944400  0.23921000  0.42871600  1
  N  52  1  0.44020100  0.35388500  0.33215200  1
  N  75  1  0.64784200  0.58489500  0.66673100  1
  N  76  1  0.76796800  0.68315700  0.57323000  1
  N  77  1  0.90874000  0.66916300  0.76204900  1
  N  78  1  0.91240800  0.55842100  0.66535800  1
  N  101  1  0.08697600  0.64572200  0.99982900  1
  N  102  1  0.08877600  0.76040700  0.90400500  1
  N  103  1  0.23092300  0.91347100  0.09293100  1
  N  104  1  0.35093000  0.93713900  0.99888800  1
  N  127  1  0.55795800  0.91236700  0.33333333  1
  N  128  1  0.67076100  0.91047400  0.23743600  1
  N  129  1  0.68133500  0.76801000  0.42638600  1
  N  130  1  0.58485500  0.64821300  0.33225600  1
  N  153  1  0.35373300  0.44197800  0.66666667  1
  N  154  1  0.23936200  0.32914900  0.57071600  1
  N  155  1  0.08581000  0.31751000  0.75960000  1
  N  156  1  0.06197400  0.41369400  0.66552700  1
  N  158  1  0.00194000  0.45406400  0.98466800  1
  N  161  1  0.02176200  0.53584700  0.02960700  1
  N  170  1  0.45147700  0.99753200  0.31797000  1
  N  173  1  0.51328000  0.97760700  0.36299600  1
  N  182  1  0.54536800  0.54884200  0.65145800  1
  N  185  1  0.46366300  0.48655400  0.69635300  1
  N  194  1  0.54766400  0.54553200  0.34760800  1
  N  197  1  0.48571600  0.46408400  0.30242300  1
  N  206  1  0.45361400  0.00272800  0.01416100  1
  N  209  1  0.53502900  0.02201100  0.96900800  1
  N  218  1  0.99618500  0.45056900  0.68073800  1
  N  221  1  0.97719500  0.51300000  0.63567900  1
  N  230  1  0.72197000  0.94772400  0.17068800  1
  N  233  1  0.77079300  0.05494600  0.16317200  1
  N  242  1  0.22560600  0.27797100  0.50398400  1
  N  245  1  0.28286500  0.22794100  0.49652600  1
  N  254  1  0.05150900  0.77458600  0.83732100  1
  N  257  1  0.94430900  0.71557800  0.82987600  1
  N  266  1  0.26693500  0.05181300  0.17190200  1
  N  269  1  0.21712900  0.94493800  0.16174400  1
  N  278  1  0.78483600  0.73295500  0.50534100  1
  N  281  1  0.72644000  0.78138000  0.49523500  1
  N  290  1  0.94743000  0.21534400  0.83855200  1
  N  293  1  0.05432100  0.27220100  0.82841100  1
  O  8  1  0.66031900  0.04697300  0.06691400  1
  O  15  1  0.96592200  0.33176300  0.93572700  1
  O  17  1  0.84717200  0.17258400  0.06135900  1
  O  18  1  0.82428200  0.14963900  0.93925900  1
  O  34  1  0.38525600  0.33866600  0.40032200  1
  O  41  1  0.36507000  0.03345000  0.26901400  1
  O  43  1  0.32441200  0.15190300  0.39470200  1
  O  44  1  0.32426500  0.17486200  0.27262100  1
  O  60  1  0.95207500  0.61302300  0.73359500  1
  O  67  1  0.66798900  0.63506800  0.60238100  1
  O  69  1  0.82662600  0.67449900  0.72804700  1
  O  70  1  0.84987800  0.67484900  0.60596400  1
  O  86  1  0.33066200  0.96646000  0.06350900  1
  O  93  1  0.04680700  0.66071400  0.93185700  1
  O  95  1  0.14913700  0.82365500  0.05981600  1
  O  96  1  0.17125500  0.84788500  0.93779600  1
  O  112  1  0.63430400  0.66825100  0.39691200  1
  O  119  1  0.61310600  0.95251800  0.26532400  1
  O  121  1  0.67360500  0.84996000  0.39329600  1
  O  122  1  0.67568600  0.82796300  0.27121600  1
  O  138  1  0.03265100  0.36404800  0.73012500  1
  O  145  1  0.33906600  0.38720200  0.59860900  1
  O  147  1  0.17577700  0.32581500  0.72656100  1
  O  148  1  0.15176700  0.32383200  0.60445400  1
