# generated using pymatgen
data_H38C59(N3O2)2
_symmetry_space_group_name_H-M   'P 1'
_cell_length_a   21.67225000
_cell_length_b   21.67225000
_cell_length_c   65.01690000
_cell_angle_alpha   90.00170000
_cell_angle_beta   90.00080000
_cell_angle_gamma   60.00000000
_symmetry_Int_Tables_number   1
_chemical_formula_structural   H38C59(N3O2)2
_chemical_formula_sum   'H114 C177 N18 O12'
_cell_volume   26446.29839176
_cell_formula_units_Z   3
loop_
 _symmetry_equiv_pos_site_id
 _symmetry_equiv_pos_as_xyz
  1  'x, y, z'
loop_
 _atom_site_type_symbol
 _atom_site_label
 _atom_site_symmetry_multiplicity
 _atom_site_fract_x
 _atom_site_fract_y
 _atom_site_fract_z
 _atom_site_occupancy
  C  1  1  0.07211400  0.90928300  0.00167300  1
  C  2  1  0.14797600  0.87466350  0.00134700  1
  C  3  1  0.14761400  0.99000200  0.00084400  1
  C  4  1  0.07172700  0.02718550  0.00073600  1
  C  5  1  0.03670300  0.10244950  0.00051400  1
  C  6  1  0.07525400  0.13862750  0.00064400  1
  C  7  1  0.15016400  0.10136150  0.00070400  1
  C  8  1  0.18630000  0.02682050  0.00077900  1
  C  9  1  0.18940500  0.80008400  0.00198600  1
  C  10  1  0.15666700  0.75937800  0.00392900  1
  C  11  1  0.08164600  0.79035650  0.00355200  1
  C  12  1  0.03980000  0.86565350  0.00247200  1
  C  13  1  0.98467400  0.01269450  0.02134100  1
  C  14  1  0.90872900  0.04985050  0.02106600  1
  C  15  1  0.90759600  0.04863100  0.98269200  1
  C  16  1  0.98347800  0.01041750  0.98178600  1
  C  17  1  0.86625200  0.06586000  0.96467200  1
  C  18  1  0.89924900  0.04273200  0.94566500  1
  C  19  1  0.97420300  0.00760850  0.94376200  1
  C  20  1  0.01580400  0.99168200  0.96188100  1
  C  21  1  0.01842900  0.99815650  0.04099300  1
  C  22  1  0.97834000  0.01999550  0.05941500  1
  C  23  1  0.90321100  0.05692900  0.05833200  1
  C  24  1  0.86874200  0.07045700  0.03942800  1
  C  37  1  0.02790400  0.99000050  0.00141200  1
  C  38  1  0.86676000  0.07012350  0.00200000  1
  C  41  1  0.18924700  0.91197750  0.00123600  1
  C  48  1  0.91076900  0.02467000  0.33500500  1
  C  49  1  0.87615300  0.98342000  0.33468300  1
  C  50  1  0.99149900  0.86844300  0.33417600  1
  C  51  1  0.02868400  0.90713750  0.33406500  1
  C  52  1  0.10396400  0.86676950  0.33384500  1
  C  53  1  0.14012000  0.79192050  0.33395600  1
  C  54  1  0.10284000  0.75441100  0.33401300  1
  C  55  1  0.02831100  0.79293150  0.33411000  1
  C  56  1  0.80157200  0.01657400  0.33532000  1
  C  57  1  0.76085500  0.09001750  0.33726400  1
  C  58  1  0.79182200  0.13406900  0.33689500  1
  C  59  1  0.86712700  0.10061400  0.33580900  1
  C  60  1  0.01418700  0.00869200  0.35467200  1
  C  61  1  0.05133900  0.04748450  0.35439800  1
  C  62  1  0.05009200  0.04986450  0.31602500  1
  C  63  1  0.01190900  0.01216350  0.31511900  1
  C  64  1  0.06735500  0.07394300  0.29800500  1
  C  65  1  0.04423200  0.06406750  0.27899800  1
  C  66  1  0.00911500  0.02423300  0.27709500  1
  C  67  1  0.99318400  0.99856100  0.29521300  1
  C  68  1  0.99963900  0.98947800  0.37432200  1
  C  69  1  0.02148000  0.00772950  0.39274400  1
  C  70  1  0.05844100  0.04589800  0.39166200  1
  C  71  1  0.07195300  0.06685800  0.37276000  1
  C  84  1  0.99148900  0.98815850  0.33474300  1
  C  85  1  0.07161700  0.06917600  0.33533200  1
  C  88  1  0.91347100  0.90483700  0.33457100  1
  C  95  1  0.02616800  0.07061450  0.66834100  1
  C  96  1  0.98491800  0.14648000  0.66803200  1
  C  97  1  0.86994000  0.14611150  0.66750600  1
  C  98  1  0.90861100  0.07024050  0.66740000  1
  C  99  1  0.86814500  0.03543500  0.66717400  1
  C  100  1  0.79325900  0.07416200  0.66727900  1
  C  101  1  0.75579800  0.14892100  0.66736500  1
  C  102  1  0.79442000  0.18483200  0.66745500  1
  C  103  1  0.01807500  0.18790250  0.66867400  1
  C  104  1  0.09152200  0.15517950  0.67059500  1
  C  105  1  0.13557400  0.08016000  0.67022900  1
  C  106  1  0.10211900  0.03831000  0.66914000  1
  C  107  1  0.01018400  0.98317650  0.68800600  1
  C  108  1  0.04897700  0.90722900  0.68773000  1
  C  109  1  0.05133200  0.90609400  0.64936000  1
  C  110  1  0.01365800  0.98197900  0.64845700  1
  C  111  1  0.07542600  0.86475900  0.63133700  1
  C  112  1  0.06561700  0.89776300  0.61233400  1
  C  113  1  0.02571600  0.97271750  0.61043800  1
  C  114  1  0.00004900  0.01431500  0.62855500  1
  C  115  1  0.99096600  0.01693400  0.70765600  1
  C  116  1  0.00920900  0.97684400  0.72607700  1
  C  117  1  0.04742200  0.90171350  0.72499400  1
  C  118  1  0.06835800  0.86724050  0.70609200  1
  C  131  1  0.98965000  0.02640500  0.66808000  1
  C  132  1  0.07066800  0.86525350  0.66866500  1
  C  135  1  0.90633600  0.18774150  0.66790300  1
  C  142  1  0.98365900  0.03215900  0.88972100  1
  C  143  1  0.92639500  0.08344300  0.87774600  1
  C  144  1  0.92658000  0.08336800  0.85597700  1
  C  145  1  0.98579200  0.02593300  0.84564300  1
  C  146  1  0.04301000  0.97239000  0.85774300  1
  C  147  1  0.04124600  0.97550050  0.87948200  1
  C  149  1  0.99488700  0.02259200  0.82348600  1
  C  150  1  0.93780300  0.04715100  0.80918000  1
  C  151  1  0.94984900  0.04097500  0.78778100  1
  C  152  1  0.01999800  0.00766150  0.77985100  1
  C  153  1  0.07709300  0.97884250  0.79403300  1
  C  154  1  0.06552000  0.98673550  0.81540300  1
  C  159  1  0.12769300  0.95167650  0.82960900  1
  C  160  1  0.10867700  0.91640650  0.84730000  1
  C  168  1  0.03673300  0.99255700  0.75915600  1
  C  169  1  0.98039500  0.04275150  0.91086900  1
  C  172  1  0.03366600  0.99021550  0.22305200  1
  C  173  1  0.08492700  0.99623400  0.21107800  1
  C  174  1  0.08485800  0.99610800  0.18930900  1
  C  175  1  0.02743800  0.99429800  0.17897400  1
  C  176  1  0.97387400  0.99067100  0.19107700  1
  C  177  1  0.97699600  0.98930300  0.21281600  1
  C  179  1  0.02405500  0.98861200  0.15681600  1
  C  180  1  0.04864400  0.02111350  0.14251300  1
  C  181  1  0.04250000  0.01521450  0.12111200  1
  C  182  1  0.00922700  0.97834050  0.11318200  1
  C  183  1  0.98035400  0.95011300  0.12736300  1
  C  184  1  0.98821200  0.95382200  0.14873500  1
  C  189  1  0.95316500  0.92669150  0.16293900  1
  C  190  1  0.91789800  0.98097200  0.18063200  1
  C  198  1  0.99407900  0.97669800  0.09248800  1
  C  199  1  0.04425300  0.98290250  0.24420100  1
  C  202  1  0.99162700  0.98221350  0.55637700  1
  C  203  1  0.99764700  0.92492850  0.54440700  1
  C  204  1  0.99757900  0.92508900  0.52263900  1
  C  205  1  0.99582400  0.98429000  0.51230300  1
  C  206  1  0.99213900  0.04151100  0.52440500  1
  C  207  1  0.99081600  0.03974700  0.54614400  1
  C  209  1  0.99004300  0.99338000  0.49014900  1
  C  210  1  0.02265200  0.93630350  0.47584500  1
  C  211  1  0.01671200  0.94833600  0.45444500  1
  C  212  1  0.97982600  0.01848300  0.44651700  1
  C  213  1  0.95158200  0.07558400  0.46069800  1
  C  214  1  0.95530100  0.06401550  0.48207000  1
  C  219  1  0.92818500  0.12619350  0.49627200  1
  C  220  1  0.98246800  0.10717550  0.51396400  1
  C  228  1  0.97826300  0.03524400  0.42582700  1
  C  229  1  0.98454600  0.97886650  0.57752600  1
  C  232  1  0.07615300  0.62782950  0.00252200  1
  C  233  1  0.13983800  0.56112500  0.00335700  1
  C  234  1  0.14058400  0.49538650  0.00406300  1
  C  235  1  0.07360000  0.49732300  0.00422400  1
  C  236  1  0.00928600  0.56554050  0.00509300  1
  C  237  1  0.01079600  0.62981050  0.00424700  1
  C  239  1  0.06648200  0.43427750  0.00571800  1
  C  240  1  0.11241200  0.36731100  0.99624000  1
  C  241  1  0.09792000  0.31036950  0.99707000  1
  C  242  1  0.03529800  0.31951800  0.00691350  1
  C  243  1  0.99036600  0.38573600  0.01626300  1
  C  244  1  0.00457600  0.44205350  0.01577700  1
  C  249  1  0.94867900  0.51278200  0.02362700  1
  C  250  1  0.93902900  0.56962000  0.00768800  1
  C  258  1  0.00713700  0.27377450  0.00629050  1
  C  259  1  0.08100600  0.68624650  0.99641500  1
  C  262  1  0.62941300  0.30199550  0.33591400  1
  C  263  1  0.56266500  0.30506450  0.33670600  1
  C  264  1  0.49691500  0.37005850  0.33740100  1
  C  265  1  0.49883300  0.43511200  0.33755600  1
  C  266  1  0.56704500  0.43121050  0.33842500  1
  C  267  1  0.63131600  0.36542600  0.33760400  1
  C  269  1  0.43580300  0.50528950  0.33903800  1
  C  270  1  0.36878800  0.52630500  0.32959400  1
  C  271  1  0.31184700  0.59773850  0.33042100  1
  C  272  1  0.32111200  0.65115950  0.34020500  1
  C  273  1  0.38726000  0.62994550  0.34959000  1
  C  274  1  0.44353400  0.55940750  0.34912100  1
  C  279  1  0.51428500  0.54458050  0.35695900  1
  C  280  1  0.57111900  0.49739650  0.34101700  1
  C  288  1  0.27525400  0.72480050  0.33961900  1
  C  289  1  0.68779200  0.23880150  0.32969800  1
  C  292  1  0.30352300  0.07464400  0.66923800  1
  C  293  1  0.30655500  0.13833600  0.67004600  1
  C  294  1  0.37156200  0.13907350  0.67073200  1
  C  295  1  0.43661200  0.07209350  0.67089600  1
  C  296  1  0.43270100  0.00778450  0.67175700  1
  C  297  1  0.36691600  0.00929500  0.67093800  1
  C  299  1  0.50680200  0.06493450  0.67235600  1
  C  300  1  0.52780000  0.11095750  0.66292000  1
  C  301  1  0.59919300  0.09652500  0.66376600  1
  C  302  1  0.65251400  0.03397450  0.67358900  1
  C  303  1  0.63141400  0.98887800  0.68293500  1
  C  304  1  0.56089300  0.00310100  0.68245000  1
  C  309  1  0.54608700  0.94717200  0.69028800  1
  C  310  1  0.49889100  0.93752350  0.67434900  1
  C  318  1  0.72605200  0.00627550  0.67296600  1
  C  319  1  0.24030600  0.07946750  0.66303200  1
  H  25  1  0.87276500  0.07371200  0.07140500  1
  H  26  1  0.81412500  0.09691500  0.03920300  1
  H  27  1  0.81166100  0.09317900  0.96525500  1
  H  28  1  0.86739300  0.05470000  0.93293100  1
  H  29  1  0.07010700  0.96574600  0.96054900  1
  H  30  1  0.07284900  0.97127300  0.04193000  1
  H  31  1  0.98227100  0.13144400  0.00106100  1
  H  32  1  0.17840000  0.12768150  0.00158400  1
  H  33  1  0.24088100  0.99966550  0.00132300  1
  H  34  1  0.98545900  0.88887000  0.00272300  1
  H  35  1  0.24398000  0.77470400  0.00215400  1
  H  36  1  0.18933300  0.70558650  0.00570500  1
  H  39  1  0.83259400  0.04620200  0.00234000  1
  H  40  1  0.83254400  0.12819900  0.00186800  1
  H  42  1  0.22401200  0.89439500  0.98770700  1
  H  43  1  0.22275300  0.89608650  0.01503400  1
  H  72  1  0.07520300  0.05958350  0.40473700  1
  H  73  1  0.09841200  0.09501450  0.37253500  1
  H  74  1  0.09467700  0.10121250  0.29858800  1
  H  75  1  0.05620400  0.08395150  0.26626400  1
  H  76  1  0.96724700  0.97019700  0.29388200  1
  H  77  1  0.97276100  0.96193700  0.37525900  1
  H  78  1  0.13292700  0.89229850  0.33439700  1
  H  79  1  0.12917000  0.69992250  0.33493100  1
  H  80  1  0.00114900  0.76552000  0.33466300  1
  H  81  1  0.89033600  0.13174400  0.33605700  1
  H  82  1  0.77619900  0.98737050  0.33548500  1
  H  83  1  0.70706300  0.11114400  0.33903600  1
  H  86  1  0.04771600  0.12725900  0.33567500  1
  H  87  1  0.12969300  0.04529600  0.33519700  1
  H  89  1  0.89588800  0.88765350  0.32104200  1
  H  90  1  0.89758200  0.88721900  0.34836700  1
  H  119  1  0.06107200  0.87126500  0.73806800  1
  H  120  1  0.09651400  0.81262450  0.70586500  1
  H  121  1  0.10268400  0.81016800  0.63191900  1
  H  122  1  0.08542700  0.86590400  0.59959900  1
  H  123  1  0.97168300  0.06861700  0.62722400  1
  H  124  1  0.96342000  0.07135550  0.70859400  1
  H  125  1  0.89373900  0.98091700  0.66772500  1
  H  126  1  0.70132500  0.17703900  0.66826000  1
  H  127  1  0.76702900  0.23940050  0.66798000  1
  H  128  1  0.13324000  0.98397250  0.66939300  1
  H  129  1  0.98887200  0.24248150  0.66881000  1
  H  130  1  0.11264700  0.18785000  0.67236000  1
  H  133  1  0.12875100  0.83108200  0.66900400  1
  H  134  1  0.04679300  0.83105200  0.66853200  1
  H  136  1  0.88917900  0.22249100  0.65437100  1
  H  137  1  0.88869300  0.22126900  0.68169600  1
  H  148  1  0.08328900  0.93790950  0.88788100  1
  H  155  1  0.88656700  0.06708300  0.81409400  1
  H  156  1  0.90705400  0.05840100  0.77810100  1
  H  157  1  0.12856200  0.95035750  0.78880700  1
  H  158  1  0.88395700  0.12426250  0.88518700  1
  H  161  1  0.13883900  0.99205350  0.83579800  1
  H  162  1  0.17596200  0.91112450  0.82191800  1
  H  163  1  0.15417300  0.89013050  0.85775100  1
  H  164  1  0.09828200  0.87555100  0.84107700  1
  H  170  1  0.08819100  0.96090800  0.75566900  1
  H  171  1  0.94874400  0.09304200  0.91548800  1
  H  178  1  0.93940200  0.98485600  0.22121600  1
  H  185  1  0.06857000  0.05242550  0.14742700  1
  H  186  1  0.05988600  0.04061000  0.11143000  1
  H  187  1  0.95186000  0.92713200  0.12213800  1
  H  188  1  0.12576600  0.99782850  0.21851600  1
  H  191  1  0.99355000  0.87516900  0.16912500  1
  H  192  1  0.91261300  0.91897400  0.15524800  1
  H  193  1  0.89163200  0.96174200  0.19108400  1
  H  194  1  0.87703400  0.03222100  0.17441100  1
  H  200  1  0.96237200  0.95694950  0.08900800  1
  H  201  1  0.09454400  0.96426750  0.24881900  1
  H  208  1  0.98636200  0.08179550  0.55454000  1
  H  215  1  0.05390600  0.88505500  0.48075900  1
  H  216  1  0.04212600  0.90555500  0.44476400  1
  H  217  1  0.92865900  0.12705550  0.45547300  1
  H  218  1  0.99931900  0.88246200  0.55184800  1
  H  221  1  0.87665900  0.13733900  0.50246000  1
  H  222  1  0.92047000  0.17446150  0.48858300  1
  H  223  1  0.96324800  0.15267150  0.52441600  1
  H  224  1  0.03371800  0.09678050  0.50774100  1
  H  230  1  0.95848100  0.08670800  0.42234400  1
  H  231  1  0.96588500  0.94721500  0.58215000  1
  H  238  1  0.96428500  0.67784200  0.00383500  1
  H  245  1  0.15462600  0.36041200  0.98752400  1
  H  246  1  0.13085700  0.26404100  0.98942100  1
  H  247  1  0.94373500  0.39491450  0.02301900  1
  H  248  1  0.18738000  0.56042700  0.00246500  1
  H  251  1  0.96592100  0.52324100  0.03839100  1
  H  252  1  0.89720400  0.51592700  0.02604300  1
  H  253  1  0.89734500  0.62188000  0.01305300  1
  H  254  1  0.92197100  0.55891200  0.99291600  1
  H  260  1  0.95558900  0.29286800  0.00904700  1
  H  261  1  0.11740900  0.67570600  0.98548900  1
  H  268  1  0.67933600  0.36392350  0.33715300  1
  H  275  1  0.36189300  0.49103050  0.32085600  1
  H  276  1  0.26554600  0.61113700  0.32275600  1
  H  277  1  0.39643400  0.66740750  0.35634700  1
  H  278  1  0.56196900  0.25822350  0.33579800  1
  H  281  1  0.52476000  0.51687900  0.37172300  1
  H  282  1  0.51742700  0.59291350  0.35937500  1
  H  283  1  0.62337600  0.48682950  0.34637900  1
  H  284  1  0.56039500  0.52516700  0.32624500  1
  H  290  1  0.29448300  0.75713300  0.34235500  1
  H  291  1  0.67709200  0.21300350  0.31880000  1
  H  298  1  0.36540300  0.96278150  0.67048400  1
  H  305  1  0.49253600  0.15310200  0.65417400  1
  H  306  1  0.61265600  0.12935600  0.65608800  1
  H  307  1  0.66889700  0.94224000  0.68969000  1
  H  308  1  0.25972200  0.18587550  0.66912400  1
  H  311  1  0.51839600  0.96439150  0.70505300  1
  H  312  1  0.59442700  0.89569550  0.69270000  1
  H  313  1  0.48832100  0.89583750  0.67971200  1
  H  314  1  0.52665400  0.92047100  0.65957700  1
  H  320  1  0.75820700  0.95466100  0.67566400  1
  H  321  1  0.21450800  0.11596200  0.65213500  1
  N  44  1  0.99938400  0.99293300  0.92446400  1
  N  45  1  0.05636400  0.74553350  0.00643100  1
  N  46  1  0.04282100  0.20693150  0.00343250  1
  N  47  1  0.00747200  0.00917350  0.07807100  1
  N  91  1  0.99443500  0.01372800  0.25779700  1
  N  92  1  0.74696500  0.20417350  0.33976700  1
  N  93  1  0.20838800  0.75726400  0.33679300  1
  N  94  1  0.01067000  0.98940700  0.41140000  1
  N  138  1  0.01522000  0.99793750  0.59114800  1
  N  139  1  0.20568000  0.05491200  0.67309700  1
  N  140  1  0.75958100  0.03961000  0.67015900  1
  N  141  1  0.99088500  0.00596250  0.74473400  1
  N  165  1  0.86967100  0.14184150  0.84512000  1
  N  195  1  0.14332800  0.99454450  0.17845000  1
  N  225  1  0.99604300  0.86816600  0.51178200  1
  N  255  1  0.20724300  0.42965400  0.00401800  1
  N  285  1  0.43117800  0.36913900  0.33734400  1
  N  315  1  0.37065100  0.20572550  0.67067500  1
  O  166  1  0.81564500  0.18603050  0.85518200  1
  O  167  1  0.89146500  0.17854850  0.83604600  1
  O  196  1  0.18751800  0.00438500  0.18851300  1
  O  197  1  0.18004300  0.93603450  0.16937800  1
  O  226  1  0.00587400  0.81414700  0.52184700  1
  O  227  1  0.93754200  0.88995550  0.50270700  1
  O  256  1  0.26349800  0.43218250  0.00098000  1
  O  257  1  0.21704700  0.39678000  0.02069700  1
  O  286  1  0.43370900  0.31035300  0.33431000  1
  O  287  1  0.39828000  0.39222050  0.35402100  1
  O  316  1  0.31187200  0.26198500  0.66764200  1
  O  317  1  0.39373200  0.21553800  0.68735200  1
