# generated using pymatgen
data_Cr3H35C30BrO13
_symmetry_space_group_name_H-M   'P 1'
_cell_length_a   11.29120000
_cell_length_b   18.70657000
_cell_length_c   19.77610000
_cell_angle_alpha   89.20087000
_cell_angle_beta   90.00786000
_cell_angle_gamma   90.04063000
_symmetry_Int_Tables_number   1
_chemical_formula_structural   Cr3H35C30BrO13
_chemical_formula_sum   'Cr12 H140 C120 Br4 O52'
_cell_volume   4176.69302415
_cell_formula_units_Z   4
loop_
 _symmetry_equiv_pos_site_id
 _symmetry_equiv_pos_as_xyz
  1  'x, y, z'
loop_
 _atom_site_type_symbol
 _atom_site_label
 _atom_site_symmetry_multiplicity
 _atom_site_fract_x
 _atom_site_fract_y
 _atom_site_fract_z
 _atom_site_occupancy
  Cr  Cr0  1  0.50714000  0.74531000  0.11431000  1
  Cr  Cr1  1  0.50714000  0.25469000  0.88569000  1
  Cr  Cr2  1  0.00714000  0.74531000  0.61431000  1
  Cr  Cr3  1  0.00714000  0.25469000  0.38569000  1
  Cr  Cr4  1  0.66773000  0.74819000  0.27012000  1
  Cr  Cr5  1  0.66773000  0.25181000  0.72988000  1
  Cr  Cr6  1  0.16773000  0.74819000  0.77012000  1
  Cr  Cr7  1  0.16773000  0.25181000  0.22988000  1
  Cr  Cr8  1  0.82141000  0.75301000  0.11188000  1
  Cr  Cr9  1  0.82141000  0.24699000  0.88812000  1
  Cr  Cr10  1  0.32141000  0.75301000  0.61188000  1
  Cr  Cr11  1  0.32141000  0.24699000  0.38812000  1
  H  H12  1  0.90946000  0.44949000  0.36375000  1
  H  H13  1  0.90946000  0.55049000  0.63622000  1
  H  H14  1  0.40946000  0.44949000  0.86375000  1
  H  H15  1  0.40946000  0.55049000  0.13622000  1
  H  H16  1  0.93398000  0.54474000  0.14153000  1
  H  H17  1  0.93395000  0.45524000  0.85847000  1
  H  H18  1  0.43398000  0.54474000  0.64153000  1
  H  H19  1  0.43395000  0.45524000  0.35847000  1
  H  H20  1  0.09234000  0.47170000  0.19246000  1
  H  H21  1  0.09221000  0.52846000  0.80757000  1
  H  H22  1  0.59234000  0.47170000  0.69246000  1
  H  H23  1  0.59221000  0.52846000  0.30757000  1
  H  H24  1  0.09429000  0.59102000  0.20862000  1
  H  H25  1  0.09431000  0.40915000  0.79137000  1
  H  H26  1  0.59429000  0.59102000  0.70862000  1
  H  H27  1  0.59431000  0.40915000  0.29137000  1
  H  H28  1  0.82023000  0.47020000  0.93481000  1
  H  H29  1  0.82032000  0.53007000  0.06511000  1
  H  H30  1  0.32024000  0.47019000  0.43481000  1
  H  H31  1  0.32032000  0.53007000  0.56511000  1
  H  H32  1  0.10883000  0.45852000  0.38412000  1
  H  H33  1  0.10886000  0.54144000  0.61588000  1
  H  H34  1  0.60883000  0.45853000  0.88412000  1
  H  H35  1  0.60886000  0.54144000  0.11588000  1
  H  H36  1  0.18256000  0.57521000  0.40258000  1
  H  H37  1  0.18278000  0.42487000  0.59740000  1
  H  H38  1  0.68256000  0.57521000  0.90258000  1
  H  H39  1  0.68278000  0.42487000  0.09740000  1
  H  H40  1  0.53560000  0.41290000  0.06541000  1
  H  H41  1  0.53540000  0.58697000  0.93464000  1
  H  H42  1  0.03560000  0.41290000  0.56541000  1
  H  H43  1  0.03540000  0.58697000  0.43464000  1
  H  H44  1  0.50107000  0.53220000  0.05001000  1
  H  H45  1  0.50107000  0.46762000  0.95001000  1
  H  H46  1  0.00107000  0.53220000  0.55001000  1
  H  H47  1  0.00107000  0.46762000  0.45001000  1
  H  H48  1  0.06394000  0.06563000  0.16616000  1
  H  H49  1  0.08047000  0.93886000  0.82030000  1
  H  H50  1  0.56150000  0.06406000  0.66723000  1
  H  H51  1  0.56493000  0.93460000  0.33373000  1
  H  H52  1  0.78261000  0.44032000  0.31645000  1
  H  H53  1  0.78255000  0.55955000  0.68349000  1
  H  H54  1  0.28261000  0.44032000  0.81645000  1
  H  H55  1  0.28255000  0.55955000  0.18349000  1
  H  H56  1  0.91471000  0.06688000  0.14182000  1
  H  H57  1  0.94194000  0.93259000  0.85720000  1
  H  H58  1  0.41402000  0.07322000  0.64046000  1
  H  H59  1  0.41673000  0.93266000  0.35861000  1
  H  H60  1  0.95733000  0.94911000  0.13049000  1
  H  H61  1  0.95928000  0.04986000  0.86720000  1
  H  H62  1  0.42832000  0.95341000  0.62904000  1
  H  H63  1  0.45539000  0.05063000  0.36989000  1
  H  H64  1  0.07021000  0.94737000  0.19102000  1
  H  H65  1  0.07250000  0.05900000  0.80694000  1
  H  H66  1  0.55532000  0.94646000  0.67729000  1
  H  H67  1  0.56976000  0.05331000  0.30983000  1
  H  H68  1  0.07680000  0.03677000  0.30139000  1
  H  H69  1  0.05228000  0.95550000  0.66169000  1
  H  H70  1  0.57758000  0.04532000  0.80101000  1
  H  H71  1  0.57667000  0.96255000  0.19869000  1
  H  H72  1  0.04014000  0.91633000  0.30889000  1
  H  H73  1  0.04390000  0.07847000  0.68936000  1
  H  H74  1  0.56025000  0.92227000  0.79377000  1
  H  H75  1  0.53962000  0.08335000  0.18975000  1
  H  H76  1  0.76583000  0.07305000  0.30814000  1
  H  H77  1  0.75056000  0.91785000  0.70948000  1
  H  H78  1  0.26145000  0.08346000  0.80322000  1
  H  H79  1  0.26539000  0.92644000  0.19273000  1
  H  H80  1  0.74931000  0.09513000  0.21977000  1
  H  H81  1  0.76610000  0.90779000  0.79882000  1
  H  H82  1  0.24789000  0.08761000  0.71270000  1
  H  H83  1  0.24971000  0.90443000  0.28121000  1
  H  H84  1  0.75100000  0.97990000  0.19006000  1
  H  H85  1  0.75108000  0.02670000  0.81151000  1
  H  H86  1  0.20515000  0.96423000  0.72077000  1
  H  H87  1  0.25123000  0.01930000  0.31089000  1
  H  H88  1  0.71776000  0.95649000  0.27683000  1
  H  H89  1  0.71991000  0.03957000  0.72297000  1
  H  H90  1  0.25238000  0.96313000  0.80586000  1
  H  H91  1  0.21714000  0.04295000  0.22406000  1
  H  H92  1  0.95837000  0.04992000  0.35953000  1
  H  H93  1  0.90028000  0.95693000  0.64326000  1
  H  H94  1  0.45350000  0.04714000  0.85684000  1
  H  H95  1  0.45742000  0.94951000  0.14142000  1
  H  H96  1  0.76437000  0.56211000  0.31520000  1
  H  H97  1  0.76432000  0.43776000  0.68478000  1
  H  H98  1  0.26437000  0.56211000  0.81520000  1
  H  H99  1  0.26432000  0.43776000  0.18478000  1
  H  H100  1  0.89934000  0.93154000  0.34881000  1
  H  H101  1  0.89915000  0.07673000  0.65166000  1
  H  H102  1  0.43127000  0.92452000  0.84558000  1
  H  H103  1  0.39693000  0.06747000  0.15221000  1
  H  H104  1  0.45366000  0.06018000  0.96368000  1
  H  H105  1  0.45310000  0.93962000  0.03667000  1
  H  H106  1  0.95482000  0.05953000  0.46666000  1
  H  H107  1  0.96353000  0.94298000  0.54933000  1
  H  H108  1  0.48510000  0.05898000  0.05080000  1
  H  H109  1  0.48415000  0.94145000  0.95032000  1
  H  H110  1  0.98676000  0.06415000  0.55329000  1
  H  H111  1  0.97489000  0.94093000  0.46226000  1
  H  H112  1  0.15392000  0.04518000  0.39109000  1
  H  H113  1  0.21776000  0.95469000  0.61488000  1
  H  H114  1  0.64813000  0.03635000  0.89261000  1
  H  H115  1  0.65370000  0.96129000  0.10834000  1
  H  H116  1  0.14942000  0.92095000  0.40229000  1
  H  H117  1  0.17860000  0.07855000  0.60024000  1
  H  H118  1  0.67775000  0.91647000  0.90270000  1
  H  H119  1  0.68218000  0.08300000  0.09774000  1
  H  H120  1  0.81144000  0.06974000  0.04595000  1
  H  H121  1  0.81040000  0.92968000  0.95159000  1
  H  H122  1  0.30966000  0.07859000  0.54854000  1
  H  H123  1  0.29196000  0.92345000  0.44062000  1
  H  H124  1  0.79929000  0.95055000  0.07539000  1
  H  H125  1  0.79663000  0.04917000  0.92206000  1
  H  H126  1  0.32064000  0.95876000  0.54826000  1
  H  H127  1  0.29784000  0.04575000  0.42706000  1
  H  H128  1  0.90033000  0.57255000  0.35466000  1
  H  H129  1  0.90028000  0.42743000  0.64531000  1
  H  H130  1  0.40033000  0.57255000  0.85466000  1
  H  H131  1  0.40028000  0.42743000  0.14531000  1
  H  H132  1  0.13248000  0.46273000  0.27829000  1
  H  H133  1  0.13242000  0.53752000  0.72175000  1
  H  H134  1  0.63248000  0.46273000  0.77829000  1
  H  H135  1  0.63242000  0.53752000  0.22175000  1
  H  H136  1  0.07922000  0.58313000  0.29851000  1
  H  H137  1  0.07923000  0.41706000  0.70147000  1
  H  H138  1  0.57922000  0.58313000  0.79851000  1
  H  H139  1  0.57923000  0.41706000  0.20147000  1
  H  H140  1  0.90589000  0.42540000  0.14972000  1
  H  H141  1  0.90577000  0.57455000  0.85026000  1
  H  H142  1  0.40589000  0.42540000  0.64972000  1
  H  H143  1  0.40577000  0.57455000  0.35026000  1
  H  H144  1  0.77777000  0.43142000  0.20102000  1
  H  H145  1  0.77766000  0.56839000  0.79895000  1
  H  H146  1  0.27777000  0.43142000  0.70101000  1
  H  H147  1  0.27766000  0.56839000  0.29895000  1
  H  H148  1  0.78130000  0.55254000  0.16538000  1
  H  H149  1  0.78130000  0.44726000  0.83460000  1
  H  H150  1  0.28130000  0.55253000  0.66538000  1
  H  H151  1  0.28130000  0.44726000  0.33460000  1
  C  C152  1  0.47718000  0.63876000  0.23826000  1
  C  C153  1  0.47728000  0.36125000  0.76175000  1
  C  C154  1  0.97718000  0.63876000  0.73826000  1
  C  C155  1  0.97728000  0.36125000  0.26175000  1
  C  C156  1  0.86847000  0.45234000  0.19369000  1
  C  C157  1  0.86838000  0.54758000  0.80629000  1
  C  C158  1  0.36847000  0.45234000  0.69369000  1
  C  C159  1  0.36837000  0.54758000  0.30629000  1
  C  C160  1  0.94501000  0.43788000  0.25515000  1
  C  C161  1  0.94491000  0.56213000  0.74484000  1
  C  C162  1  0.44501000  0.43788000  0.75515000  1
  C  C163  1  0.44491000  0.56213000  0.24484000  1
  C  C164  1  0.91289000  0.57603000  0.24370000  1
  C  C165  1  0.91291000  0.42396000  0.75629000  1
  C  C166  1  0.41289000  0.57603000  0.74370000  1
  C  C167  1  0.41291000  0.42396000  0.25629000  1
  C  C168  1  0.04544000  0.56278000  0.24982000  1
  C  C169  1  0.04544000  0.43735000  0.75017000  1
  C  C170  1  0.54544000  0.56278000  0.74982000  1
  C  C171  1  0.54544000  0.43735000  0.25017000  1
  C  C172  1  0.86813000  0.53333000  0.18220000  1
  C  C173  1  0.86811000  0.46659000  0.81778000  1
  C  C174  1  0.36813000  0.53333000  0.68220000  1
  C  C175  1  0.36811000  0.46659000  0.31778000  1
  C  C176  1  0.79884000  0.46224000  0.98602000  1
  C  C177  1  0.79881000  0.53795000  0.01391000  1
  C  C178  1  0.29884000  0.46224000  0.48602000  1
  C  C179  1  0.29881000  0.53795000  0.51391000  1
  C  C180  1  0.59511000  0.47611000  0.93608000  1
  C  C181  1  0.59514000  0.52384000  0.06392000  1
  C  C182  1  0.09511000  0.47611000  0.43608000  1
  C  C183  1  0.09514000  0.52384000  0.56392000  1
  C  C184  1  0.61917000  0.44328000  0.05824000  1
  C  C185  1  0.61902000  0.55670000  0.94176000  1
  C  C186  1  0.11916000  0.44328000  0.55824000  1
  C  C187  1  0.11902000  0.55670000  0.44176000  1
  C  C188  1  0.67060000  0.43116000  0.98783000  1
  C  C189  1  0.67052000  0.56887000  0.01216000  1
  C  C190  1  0.17060000  0.43116000  0.48783000  1
  C  C191  1  0.17052000  0.56887000  0.51216000  1
  C  C192  1  0.97511000  0.04704000  0.18195000  1
  C  C193  1  0.98917000  0.95551000  0.81249000  1
  C  C194  1  0.46958000  0.04878000  0.68042000  1
  C  C195  1  0.47592000  0.95294000  0.31827000  1
  C  C196  1  0.88174000  0.65101000  0.22743000  1
  C  C197  1  0.88180000  0.34897000  0.77255000  1
  C  C198  1  0.38174000  0.65101000  0.72743000  1
  C  C199  1  0.38180000  0.34897000  0.27256000  1
  C  C200  1  0.97871000  0.96633000  0.18213000  1
  C  C201  1  0.98387000  0.03568000  0.81500000  1
  C  C202  1  0.46383000  0.96851000  0.67765000  1
  C  C203  1  0.47844000  0.03373000  0.31833000  1
  C  C204  1  0.98493000  0.02937000  0.30986000  1
  C  C205  1  0.96656000  0.97069000  0.68194000  1
  C  C206  1  0.48699000  0.03068000  0.80709000  1
  C  C207  1  0.48468000  0.97028000  0.19066000  1
  C  C208  1  0.79841000  0.06076000  0.25654000  1
  C  C209  1  0.79991000  0.93782000  0.75405000  1
  C  C210  1  0.29541000  0.06111000  0.75522000  1
  C  C211  1  0.29836000  0.93887000  0.24424000  1
  C  C212  1  0.93008000  0.07477000  0.25215000  1
  C  C213  1  0.93206000  0.92609000  0.74636000  1
  C  C214  1  0.42730000  0.07558000  0.75071000  1
  C  C215  1  0.43006000  0.92502000  0.24831000  1
  C  C216  1  0.89628000  0.93588000  0.23902000  1
  C  C217  1  0.89781000  0.06472000  0.76011000  1
  C  C218  1  0.39420000  0.93643000  0.73871000  1
  C  C219  1  0.39615000  0.06393000  0.26134000  1
  C  C220  1  0.95764000  0.94833000  0.30612000  1
  C  C221  1  0.95575000  0.05249000  0.69180000  1
  C  C222  1  0.47301000  0.94850000  0.79991000  1
  C  C223  1  0.45713000  0.05125000  0.19414000  1
  C  C224  1  0.78092000  0.98060000  0.24106000  1
  C  C225  1  0.78238000  0.01954000  0.76161000  1
  C  C226  1  0.27778000  0.97887000  0.75391000  1
  C  C227  1  0.28077000  0.01898000  0.25972000  1
  C  C228  1  0.51865000  0.04065000  0.00139000  1
  C  C229  1  0.51853000  0.95945000  0.99956000  1
  C  C230  1  0.01999000  0.04243000  0.50529000  1
  C  C231  1  0.01979000  0.96155000  0.50815000  1
  C  C232  1  0.70785000  0.02751000  0.93335000  1
  C  C233  1  0.70993000  0.97190000  0.06625000  1
  C  C234  1  0.20514000  0.02864000  0.43372000  1
  C  C235  1  0.22906000  0.97277000  0.56264000  1
  C  C236  1  0.71777000  0.05337000  0.05389000  1
  C  C237  1  0.71629000  0.94615000  0.94567000  1
  C  C238  1  0.22020000  0.05481000  0.55507000  1
  C  C239  1  0.20165000  0.94634000  0.44276000  1
  C  C240  1  0.65836000  0.64443000  0.03229000  1
  C  C241  1  0.65841000  0.35558000  0.96770000  1
  C  C242  1  0.15836000  0.64443000  0.53229000  1
  C  C243  1  0.15841000  0.35557000  0.46770000  1
  C  C244  1  0.64739000  0.06952000  0.99043000  1
  C  C245  1  0.64747000  0.93026000  0.00970000  1
  C  C246  1  0.14770000  0.07055000  0.49201000  1
  C  C247  1  0.14826000  0.93152000  0.51197000  1
  C  C248  1  0.46609000  0.84865000  0.23941000  1
  C  C249  1  0.46402000  0.15210000  0.75998000  1
  C  C250  1  0.96790000  0.84951000  0.73862000  1
  C  C251  1  0.96628000  0.15120000  0.26074000  1
  C  C252  1  0.86679000  0.85902000  0.22515000  1
  C  C253  1  0.86785000  0.14144000  0.77439000  1
  C  C254  1  0.36635000  0.85921000  0.72510000  1
  C  C255  1  0.36663000  0.14088000  0.27494000  1
  C  C256  1  0.64662000  0.85356000  0.03072000  1
  C  C257  1  0.64660000  0.14630000  0.96920000  1
  C  C258  1  0.14665000  0.85450000  0.53210000  1
  C  C259  1  0.14675000  0.14710000  0.47028000  1
  C  C260  1  0.87136000  0.46565000  0.31567000  1
  C  C261  1  0.87131000  0.53430000  0.68429000  1
  C  C262  1  0.37136000  0.46565000  0.81567000  1
  C  C263  1  0.37131000  0.53430000  0.18429000  1
  C  C264  1  0.85745000  0.54725000  0.31072000  1
  C  C265  1  0.85742000  0.45269000  0.68925000  1
  C  C266  1  0.35745000  0.54725000  0.81072000  1
  C  C267  1  0.35742000  0.45269000  0.18925000  1
  C  C268  1  0.06288000  0.48137000  0.24491000  1
  C  C269  1  0.06282000  0.51877000  0.75509000  1
  C  C270  1  0.56288000  0.48137000  0.74491000  1
  C  C271  1  0.56282000  0.51877000  0.25509000  1
  Br  Br272  1  0.92840000  0.40327000  0.02097000  1
  Br  Br273  1  0.92828000  0.59708000  0.97890000  1
  Br  Br274  1  0.42840000  0.40327000  0.52098000  1
  Br  Br275  1  0.42828000  0.59708000  0.47890000  1
  O  O276  1  0.55059000  0.66548000  0.04279000  1
  O  O277  1  0.55059000  0.33452000  0.95721000  1
  O  O278  1  0.05059000  0.66548000  0.54279000  1
  O  O279  1  0.05059000  0.33452000  0.45721000  1
  O  O280  1  0.78799000  0.82656000  0.26374000  1
  O  O281  1  0.78799000  0.17344000  0.73626000  1
  O  O282  1  0.28799000  0.82656000  0.76374000  1
  O  O283  1  0.28799000  0.17344000  0.23626000  1
  O  O284  1  0.90470000  0.83600000  0.16748000  1
  O  O285  1  0.90470000  0.16400000  0.83252000  1
  O  O286  1  0.40470000  0.83600000  0.66748000  1
  O  O287  1  0.40470000  0.16400000  0.33252000  1
  O  O288  1  0.74606000  0.82694000  0.05362000  1
  O  O289  1  0.74606000  0.17306000  0.94638000  1
  O  O290  1  0.24606000  0.82694000  0.55362000  1
  O  O291  1  0.24606000  0.17306000  0.44638000  1
  O  O292  1  0.66543000  0.74884000  0.16544000  1
  O  O293  1  0.66543000  0.25116000  0.83456000  1
  O  O294  1  0.16543000  0.74884000  0.66544000  1
  O  O295  1  0.16543000  0.25116000  0.33456000  1
  O  O296  1  0.45876000  0.66825000  0.17927000  1
  O  O297  1  0.45876000  0.33175000  0.82073000  1
  O  O298  1  0.95876000  0.66825000  0.67927000  1
  O  O299  1  0.95876000  0.33175000  0.32073000  1
  O  O300  1  0.54494000  0.66371000  0.28576000  1
  O  O301  1  0.54494000  0.33629000  0.71424000  1
  O  O302  1  0.04494000  0.66371000  0.78576000  1
  O  O303  1  0.04494000  0.33629000  0.21424000  1
  O  O304  1  0.79513000  0.67591000  0.26322000  1
  O  O305  1  0.79513000  0.32409000  0.73678000  1
  O  O306  1  0.29513000  0.67591000  0.76322000  1
  O  O307  1  0.29513000  0.32409000  0.23678000  1
  O  O308  1  0.91241000  0.67349000  0.16693000  1
  O  O309  1  0.91241000  0.32651000  0.83307000  1
  O  O310  1  0.41241000  0.67349000  0.66693000  1
  O  O311  1  0.41241000  0.32651000  0.33307000  1
  O  O312  1  0.75320000  0.67630000  0.05311000  1
  O  O313  1  0.75320000  0.32370000  0.94689000  1
  O  O314  1  0.25320000  0.67630000  0.55311000  1
  O  O315  1  0.25320000  0.32370000  0.44689000  1
  O  O316  1  0.54288000  0.82798000  0.04335000  1
  O  O317  1  0.54288000  0.17202000  0.95665000  1
  O  O318  1  0.04288000  0.82798000  0.54335000  1
  O  O319  1  0.04288000  0.17202000  0.45665000  1
  O  O320  1  0.45161000  0.81889000  0.17978000  1
  O  O321  1  0.45161000  0.18111000  0.82022000  1
  O  O322  1  0.95161000  0.81889000  0.67978000  1
  O  O323  1  0.95161000  0.18111000  0.32022000  1
  O  O324  1  0.53723000  0.82621000  0.28632000  1
  O  O325  1  0.53723000  0.17379000  0.71368000  1
  O  O326  1  0.03723000  0.82621000  0.78632000  1
  O  O327  1  0.03723000  0.17379000  0.21368000  1
