# generated using pymatgen
data_H32C53(N3O2)4
_symmetry_space_group_name_H-M   'P 1'
_cell_length_a   51.07713919
_cell_length_b   51.07803060
_cell_length_c   51.07624766
_cell_angle_alpha   70.53029052
_cell_angle_beta   70.53305848
_cell_angle_gamma   109.47701099
_symmetry_Int_Tables_number   1
_chemical_formula_structural   H32C53(N3O2)4
_chemical_formula_sum   'H192 C318 N72 O48'
_cell_volume   102578.84358099
_cell_formula_units_Z   6
loop_
 _symmetry_equiv_pos_site_id
 _symmetry_equiv_pos_as_xyz
  1  'x, y, z'
loop_
 _atom_site_type_symbol
 _atom_site_label
 _atom_site_symmetry_multiplicity
 _atom_site_fract_x
 _atom_site_fract_y
 _atom_site_fract_z
 _atom_site_occupancy
  C  1  1  0.78678350  0.24161300  0.49017350  1
  C  2  1  0.76430900  0.22689550  0.48251350  1
  C  3  1  0.76428550  0.25038950  0.45905900  1
  C  4  1  0.78666750  0.28051500  0.45141550  1
  C  5  1  0.79131750  0.30868400  0.42799050  1
  C  6  1  0.77318100  0.30636400  0.41219800  1
  C  7  1  0.75037500  0.27523200  0.42080300  1
  C  8  1  0.74591150  0.24726850  0.44396500  1
  C  9  1  0.74606900  0.19343000  0.49761000  1
  C  10  1  0.75083600  0.17471350  0.52079550  1
  C  11  1  0.77335750  0.18889550  0.52941500  1
  C  12  1  0.79149800  0.22282050  0.51361750  1
  C  13  1  0.83783450  0.29304300  0.45145550  1
  C  14  1  0.85299950  0.31589600  0.45854450  1
  C  15  1  0.82930700  0.31501800  0.48311000  1
  C  16  1  0.79936700  0.29280000  0.49016400  1
  C  17  1  0.83113550  0.33066900  0.50102450  1
  C  18  1  0.80245000  0.32369250  0.52587150  1
  C  19  1  0.77184400  0.30226850  0.53229750  1
  C  20  1  0.77073950  0.28674400  0.51401750  1
  C  21  1  0.85563300  0.28831650  0.42755650  1
  C  22  1  0.88942900  0.30774950  0.40923150  1
  C  23  1  0.90442450  0.33192000  0.41567150  1
  C  24  1  0.88655850  0.33568950  0.44058300  1
  C  37  1  0.80265050  0.27698000  0.47079950  1
  C  38  1  0.74299300  0.29465450  0.55654350  1
  C  39  1  0.90606150  0.30321800  0.38492150  1
  C  40  1  0.77813850  0.16999300  0.55213150  1
  C  41  1  0.77698650  0.33387050  0.38950500  1
  C  46  1  0.32304400  0.81678200  0.45132300  1
  C  47  1  0.34540400  0.83153450  0.45908050  1
  C  48  1  0.34539700  0.80806500  0.48259300  1
  C  49  1  0.32294500  0.77792650  0.49033650  1
  C  50  1  0.31824000  0.74977400  0.51384200  1
  C  51  1  0.33637100  0.75212850  0.52963650  1
  C  52  1  0.35887100  0.78327300  0.52131000  1
  C  53  1  0.36362550  0.81121900  0.49782850  1
  C  54  1  0.36373550  0.86500100  0.44385150  1
  C  55  1  0.35925750  0.88368500  0.42035250  1
  C  56  1  0.33648550  0.86946450  0.41200000  1
  C  57  1  0.31837900  0.83553650  0.42780650  1
  C  58  1  0.31036200  0.76534000  0.45173000  1
  C  59  1  0.28042050  0.74248150  0.45942500  1
  C  60  1  0.25673000  0.74336300  0.48223300  1
  C  61  1  0.27189350  0.76558300  0.48995350  1
  C  62  1  0.22316350  0.72770350  0.49606500  1
  C  63  1  0.20529600  0.73471200  0.51774100  1
  C  64  1  0.22029650  0.75615000  0.52691050  1
  C  65  1  0.25409600  0.77164800  0.51251600  1
  C  66  1  0.33899100  0.77010450  0.42916750  1
  C  67  1  0.33788500  0.75070700  0.41476400  1
  C  68  1  0.30727600  0.72653100  0.42394200  1
  C  69  1  0.27859300  0.72271850  0.44562450  1
  C  82  1  0.30707750  0.78141900  0.47083450  1
  C  83  1  0.20367150  0.76381850  0.54809000  1
  C  84  1  0.36673100  0.75527350  0.39356250  1
  C  85  1  0.33268750  0.88833200  0.38827650  1
  C  86  1  0.33160500  0.72463250  0.55330350  1
  C  91  1  0.57438650  0.29746000  0.18322250  1
  C  92  1  0.56663700  0.31983600  0.16849000  1
  C  93  1  0.54311700  0.31980450  0.19197150  1
  C  94  1  0.53536100  0.29732700  0.22210300  1
  C  95  1  0.51183850  0.29259400  0.25026250  1
  C  96  1  0.49603150  0.31071200  0.24792550  1
  C  97  1  0.50437200  0.33323650  0.21678750  1
  C  98  1  0.52787100  0.33802100  0.18883500  1
  C  99  1  0.58187750  0.33820100  0.13502550  1
  C  100  1  0.60536000  0.33372400  0.11632100  1
  C  101  1  0.61368850  0.31092100  0.13051750  1
  C  102  1  0.59789550  0.29280350  0.16444300  1
  C  103  1  0.57397900  0.28475750  0.23466750  1
  C  104  1  0.56629850  0.25481750  0.25750900  1
  C  105  1  0.54346250  0.23112450  0.25665100  1
  C  106  1  0.53576750  0.24628950  0.23440700  1
  C  107  1  0.52966350  0.19756350  0.27227300  1
  C  108  1  0.50796050  0.17969050  0.26528800  1
  C  109  1  0.49875800  0.19468350  0.24388450  1
  C  110  1  0.51318300  0.22848700  0.22836300  1
  C  111  1  0.59652550  0.31338500  0.22992550  1
  C  112  1  0.61089900  0.31227800  0.24934900  1
  C  113  1  0.60170900  0.28167000  0.27353000  1
  C  114  1  0.58003500  0.25298750  0.27732950  1
  C  127  1  0.55487350  0.28147400  0.21858650  1
  C  128  1  0.47754750  0.17805650  0.23624200  1
  C  129  1  0.63208050  0.34112200  0.24480550  1
  C  130  1  0.63737350  0.30709950  0.11163000  1
  C  131  1  0.47233750  0.30592200  0.27542050  1
  C  136  1  0.53546150  0.76114950  0.75838900  1
  C  137  1  0.54306250  0.73864300  0.77315550  1
  C  138  1  0.56652400  0.73858800  0.74969900  1
  C  139  1  0.57422150  0.76097600  0.71955150  1
  C  140  1  0.59767200  0.76561100  0.69141100  1
  C  141  1  0.61343950  0.74745600  0.69378450  1
  C  142  1  0.60478750  0.72465050  0.72493400  1
  C  143  1  0.58159300  0.72019550  0.75287050  1
  C  144  1  0.52791650  0.72041200  0.80662450  1
  C  145  1  0.50475950  0.72523700  0.82529250  1
  C  146  1  0.49621800  0.74781200  0.81105800  1
  C  147  1  0.51204550  0.76592200  0.77713150  1
  C  148  1  0.57423900  0.81217450  0.70694750  1
  C  149  1  0.56717250  0.82733900  0.68407550  1
  C  150  1  0.54261550  0.80364950  0.68493400  1
  C  151  1  0.53552800  0.77370750  0.70718350  1
  C  152  1  0.52465000  0.80547550  0.66933950  1
  C  153  1  0.49977450  0.77679050  0.67634200  1
  C  154  1  0.49333800  0.74618450  0.69777450  1
  C  155  1  0.51164400  0.74508050  0.71326750  1
  C  156  1  0.59808450  0.82997300  0.71173450  1
  C  157  1  0.61637900  0.86377350  0.69234250  1
  C  158  1  0.60994500  0.87877500  0.66817200  1
  C  159  1  0.58509450  0.86090350  0.66433200  1
  C  172  1  0.55486850  0.77699050  0.72302800  1
  C  173  1  0.46904250  0.71733300  0.70544050  1
  C  174  1  0.64064500  0.88040500  0.69693000  1
  C  175  1  0.47355750  0.75268000  0.82991050  1
  C  176  1  0.63617450  0.75126900  0.66630050  1
  C  181  1  0.30614950  0.54857050  0.23905000  1
  C  182  1  0.27602550  0.54092900  0.26142450  1
  C  183  1  0.25252950  0.51747850  0.26139400  1
  C  184  1  0.26724850  0.50982500  0.23891450  1
  C  185  1  0.24845750  0.48639200  0.23418850  1
  C  186  1  0.21453200  0.47059400  0.25232100  1
  C  187  1  0.20034800  0.47920500  0.27484800  1
  C  188  1  0.21906500  0.50238550  0.27962250  1
  C  189  1  0.27290650  0.55602500  0.27979550  1
  C  190  1  0.30087200  0.57920400  0.27531900  1
  C  191  1  0.33200300  0.58780700  0.25251900  1
  C  192  1  0.33432100  0.57200150  0.23439650  1
  C  193  1  0.31842350  0.50981750  0.22634700  1
  C  194  1  0.34063900  0.51687500  0.19640600  1
  C  195  1  0.34153950  0.54146200  0.17271550  1
  C  196  1  0.31869200  0.54855450  0.18787750  1
  C  197  1  0.36133700  0.55942800  0.13915700  1
  C  198  1  0.35754000  0.58431100  0.12128300  1
  C  199  1  0.33336950  0.59074700  0.13627650  1
  C  200  1  0.31395250  0.57243800  0.17007250  1
  C  201  1  0.31236800  0.48595900  0.25497400  1
  C  202  1  0.32789500  0.46768500  0.25386600  1
  C  203  1  0.34932750  0.47412300  0.22325950  1
  C  204  1  0.35629800  0.49897000  0.19457700  1
  C  217  1  0.30261450  0.52919250  0.22306100  1
  C  218  1  0.32882100  0.61504250  0.11964250  1
  C  219  1  0.32028250  0.44342550  0.28270800  1
  C  220  1  0.35951200  0.61051600  0.24869700  1
  C  221  1  0.19563250  0.44787900  0.24753350  1
  C  226  1  0.80354750  0.50972150  0.70275900  1
  C  227  1  0.83366350  0.51747900  0.68025350  1
  C  228  1  0.85717050  0.54099750  0.68020600  1
  C  229  1  0.84246550  0.54874600  0.70259550  1
  C  230  1  0.86127150  0.57225450  0.70723900  1
  C  231  1  0.89519650  0.58804700  0.68909350  1
  C  232  1  0.90936550  0.57971500  0.66628050  1
  C  233  1  0.89063400  0.55623050  0.66181950  1
  C  234  1  0.83676450  0.50223900  0.66202650  1
  C  235  1  0.80878900  0.47873300  0.66684600  1
  C  236  1  0.77766450  0.47038050  0.68941200  1
  C  237  1  0.77536600  0.48619500  0.70752700  1
  C  238  1  0.79128150  0.51013650  0.75378800  1
  C  239  1  0.76903600  0.51782900  0.76895200  1
  C  240  1  0.76815400  0.54063850  0.74526250  1
  C  241  1  0.79102000  0.54834750  0.71532250  1
  C  242  1  0.74841400  0.55446250  0.74709150  1
  C  243  1  0.75223900  0.57616150  0.71840650  1
  C  244  1  0.77640800  0.58533600  0.68780100  1
  C  245  1  0.79579300  0.57092050  0.68669650  1
  C  246  1  0.79734050  0.48756850  0.77158600  1
  C  247  1  0.78183750  0.47316400  0.80538650  1
  C  248  1  0.76041200  0.48234300  0.82038500  1
  C  249  1  0.75340950  0.50402700  0.80251550  1
  C  262  1  0.80709600  0.52923900  0.71860500  1
  C  263  1  0.78098600  0.60654700  0.65895200  1
  C  264  1  0.78949400  0.45197250  0.82201450  1
  C  265  1  0.75014550  0.44664950  0.69427200  1
  C  266  1  0.91410850  0.61171650  0.69291700  1
  C  541  1  0.73872900  0.32853750  0.58417750  1
  C  542  1  0.71137150  0.31610450  0.61369300  1
  C  543  1  0.71196300  0.33466950  0.62896250  1
  C  544  1  0.73925150  0.36468600  0.61590050  1
  C  545  1  0.76726250  0.37632300  0.58672650  1
  C  546  1  0.76588000  0.35843950  0.57074650  1
  C  548  1  0.73746450  0.38209900  0.63262150  1
  C  549  1  0.72800400  0.36755750  0.66554850  1
  C  550  1  0.72888550  0.38515150  0.68186400  1
  C  551  1  0.73974250  0.41841650  0.66419200  1
  C  552  1  0.74828600  0.43324600  0.63145400  1
  C  553  1  0.74568100  0.41451700  0.61644800  1
  C  571  1  0.14216100  0.72993250  0.58627250  1
  C  572  1  0.12508300  0.74238350  0.60116750  1
  C  573  1  0.09125000  0.72380200  0.61918200  1
  C  574  1  0.07429500  0.69376000  0.62195900  1
  C  575  1  0.09182450  0.68211350  0.60559200  1
  C  576  1  0.12568900  0.70000000  0.58908300  1
  C  578  1  0.04015950  0.67632900  0.64119750  1
  C  579  1  0.02175450  0.69084200  0.63610650  1
  C  580  1  0.98784750  0.67322450  0.65282800  1
  C  581  1  0.97228400  0.63999200  0.67528800  1
  C  582  1  0.99021050  0.62515800  0.68153250  1
  C  583  1  0.02396533  0.64394533  0.66542000  1
  C  601  1  0.37101800  0.73193900  0.35538300  1
  C  602  1  0.39836200  0.72975950  0.34047250  1
  C  603  1  0.39777850  0.71392300  0.32247450  1
  C  604  1  0.37049750  0.69972450  0.31972400  1
  C  605  1  0.34249000  0.70089200  0.33609600  1
  C  606  1  0.34386700  0.71822250  0.35263050  1
  C  608  1  0.37228650  0.68480500  0.30050750  1
  C  609  1  0.38170550  0.66130700  0.30560550  1
  C  610  1  0.38087300  0.64415600  0.28884700  1
  C  611  1  0.37012500  0.65105650  0.26636650  1
  C  612  1  0.36149250  0.67519450  0.26014000  1
  C  613  1  0.36404500  0.69275100  0.27632500  1
  C  631  1  0.96756350  0.32648650  0.35735200  1
  C  632  1  0.98465750  0.32863100  0.32784850  1
  C  633  1  0.01849000  0.34446600  0.31260400  1
  C  634  1  0.03543100  0.35866600  0.32568900  1
  C  635  1  0.01788700  0.35751350  0.35485450  1
  C  636  1  0.98402450  0.34019700  0.37079550  1
  C  638  1  0.06956650  0.37357750  0.30898800  1
  C  639  1  0.08797150  0.39707450  0.27607000  1
  C  640  1  0.12187950  0.41423500  0.25976450  1
  C  641  1  0.13744700  0.40733850  0.27742750  1
  C  642  1  0.11952750  0.38318100  0.31019450  1
  C  643  1  0.08578950  0.36559750  0.32518000  1
  C  661  1  0.43939550  0.11653850  0.27012800  1
  C  662  1  0.42446300  0.09943850  0.25770950  1
  C  663  1  0.40649150  0.06560450  0.27628500  1
  C  664  1  0.40377150  0.04866700  0.30630050  1
  C  665  1  0.42015050  0.06622200  0.31792450  1
  C  666  1  0.43664900  0.10008500  0.30002900  1
  C  668  1  0.38457300  0.01453100  0.32372300  1
  C  669  1  0.38965100  0.99614200  0.30918500  1
  C  670  1  0.37293250  0.96223150  0.32678300  1
  C  671  1  0.35052300  0.94664350  0.36004550  1
  C  672  1  0.34424400  0.96455850  0.37487050  1
  C  673  1  0.36037400  0.99829300  0.35613800  1
  C  691  1  0.44142150  0.71305100  0.67154850  1
  C  692  1  0.41188700  0.68571300  0.68398800  1
  C  693  1  0.39664150  0.68629500  0.66540050  1
  C  694  1  0.40974050  0.71356600  0.63536250  1
  C  695  1  0.43892500  0.74157200  0.62372500  1
  C  696  1  0.45489550  0.74018000  0.64161850  1
  C  698  1  0.39304350  0.71176950  0.61792300  1
  C  699  1  0.36012700  0.70234850  0.63242850  1
  C  700  1  0.34384000  0.70324150  0.61480750  1
  C  701  1  0.36151150  0.71400350  0.58157800  1
  C  702  1  0.39427350  0.72259750  0.56674900  1
  C  703  1  0.40924000  0.71995200  0.58552000  1
  C  721  1  0.66827700  0.94191950  0.67358550  1
  C  722  1  0.69780750  0.95902050  0.67139200  1
  C  723  1  0.71305700  0.99285250  0.65555050  1
  C  724  1  0.69996600  0.00979050  0.64135950  1
  C  725  1  0.67078250  0.99223900  0.64253950  1
  C  726  1  0.65483150  0.95837400  0.65987650  1
  C  728  1  0.71667400  0.04392700  0.62643300  1
  C  729  1  0.74958800  0.06232750  0.60292850  1
  C  730  1  0.76590300  0.09623600  0.58576700  1
  C  731  1  0.74825100  0.11181100  0.59266400  1
  C  732  1  0.71548300  0.09389850  0.61681450  1
  C  733  1  0.70048500  0.06016000  0.63438200  1
  C  751  1  0.67029750  0.34541550  0.26809800  1
  C  752  1  0.68524000  0.37276900  0.27025400  1
  C  753  1  0.70322750  0.37217650  0.28610000  1
  C  754  1  0.70596800  0.34489250  0.30030050  1
  C  755  1  0.68957950  0.31688200  0.29913750  1
  C  756  1  0.67304450  0.31826150  0.28180900  1
  C  758  1  0.72518700  0.34667900  0.31521800  1
  C  759  1  0.72009800  0.35610600  0.33871100  1
  C  760  1  0.73685200  0.35526400  0.35586700  1
  C  761  1  0.75931950  0.34450250  0.34897000  1
  C  762  1  0.76554900  0.33588250  0.32482050  1
  C  763  1  0.74938900  0.33846900  0.30724200  1
  C  781  1  0.35213050  0.64262400  0.05813450  1
  C  782  1  0.35427700  0.67212800  0.04103600  1
  C  783  1  0.37012250  0.68737150  0.00720400  1
  C  784  1  0.38434100  0.67429650  0.99026750  1
  C  785  1  0.38317750  0.64512700  0.00782150  1
  C  786  1  0.36583200  0.62917200  0.04168400  1
  C  788  1  0.39927400  0.69100600  0.95613100  1
  C  789  1  0.42273750  0.72393550  0.93774000  1
  C  790  1  0.43991700  0.74025000  0.90383100  1
  C  791  1  0.43308700  0.72257400  0.88824400  1
  C  792  1  0.40890350  0.68982900  0.90615950  1
  C  793  1  0.39131150  0.67482250  0.93989600  1
  C  811  1  0.75762300  0.64469750  0.65466950  1
  C  812  1  0.75542300  0.65957750  0.62732950  1
  C  813  1  0.73959200  0.67757850  0.62789750  1
  C  814  1  0.72541750  0.68035700  0.65516050  1
  C  815  1  0.72658950  0.66399800  0.68317250  1
  C  816  1  0.74395850  0.64750500  0.68179150  1
  C  818  1  0.71052000  0.69959200  0.65335300  1
  C  819  1  0.68701850  0.69449500  0.64393850  1
  C  820  1  0.66982200  0.71120550  0.64484750  1
  C  821  1  0.67671600  0.73365750  0.65563050  1
  C  822  1  0.70089800  0.73991400  0.66420800  1
  C  823  1  0.71855833  0.72381400  0.66150767  1
  C  841  1  0.75559850  0.41379500  0.88352750  1
  C  842  1  0.76801800  0.39888550  0.90063750  1
  C  843  1  0.74942400  0.38089500  0.93447000  1
  C  844  1  0.71939700  0.37815400  0.95139700  1
  C  845  1  0.70777350  0.39452400  0.93383550  1
  C  846  1  0.72569600  0.41105000  0.89997300  1
  C  848  1  0.70195950  0.35894350  0.98553400  1
  C  849  1  0.71647450  0.36403850  0.00393900  1
  C  850  1  0.69888350  0.34727250  0.03784700  1
  C  851  1  0.66565750  0.32478850  0.05342000  1
  C  852  1  0.65079850  0.31856900  0.03550250  1
  C  853  1  0.66953650  0.33476200  0.00176250  1
  C  871  1  0.35416800  0.41580050  0.28700250  1
  C  872  1  0.34171950  0.38628050  0.31436300  1
  C  873  1  0.36027200  0.37099850  0.31379050  1
  C  874  1  0.39030200  0.38406550  0.28652250  1
  C  875  1  0.40195300  0.41324000  0.25850400  1
  C  876  1  0.38406900  0.42921750  0.25986250  1
  C  878  1  0.40772000  0.36734900  0.28832800  1
  C  879  1  0.39319650  0.33443100  0.29774550  1
  C  880  1  0.41079600  0.31812350  0.29687850  1
  C  881  1  0.44403000  0.33578350  0.28610350  1
  C  882  1  0.45888200  0.36854450  0.27750750  1
  C  883  1  0.44013300  0.38353100  0.28012200  1
  H  25  1  0.92847050  0.34768300  0.40176250  1
  H  26  1  0.89776100  0.35339550  0.44461650  1
  H  27  1  0.85287350  0.34596000  0.49694850  1
  H  28  1  0.80430100  0.33390200  0.53972300  1
  H  29  1  0.74930500  0.27038950  0.51838050  1
  H  30  1  0.84363950  0.27128800  0.42314950  1
  H  31  1  0.80781400  0.33055400  0.42264500  1
  H  32  1  0.73637750  0.27235600  0.41043050  1
  H  33  1  0.72941950  0.22521900  0.44974250  1
  H  34  1  0.80801600  0.23395800  0.51897700  1
  H  35  1  0.72978600  0.18273000  0.49183500  1
  H  36  1  0.73755950  0.15034700  0.53117950  1
  H  42  1  0.89430600  0.29078000  0.37723100  1
  H  43  1  0.72284600  0.27525600  0.56418200  1
  H  44  1  0.79809150  0.17868700  0.55314250  1
  H  45  1  0.78658600  0.35479400  0.38859400  1
  H  70  1  0.30542400  0.71081050  0.41560650  1
  H  71  1  0.25685550  0.70504750  0.45208200  1
  H  72  1  0.21195050  0.71244000  0.48959150  1
  H  73  1  0.18124100  0.72453250  0.52607050  1
  H  74  1  0.26609400  0.78803600  0.51756100  1
  H  75  1  0.36042500  0.78714950  0.42411750  1
  H  76  1  0.30173950  0.72789450  0.51921200  1
  H  77  1  0.37213550  0.78616750  0.53241200  1
  H  78  1  0.37988800  0.83327900  0.49225800  1
  H  79  1  0.30190000  0.82437150  0.42242050  1
  H  80  1  0.38020500  0.87572950  0.44942750  1
  H  81  1  0.37322400  0.90805450  0.40925150  1
  H  87  1  0.38687200  0.76775750  0.39283550  1
  H  88  1  0.21543600  0.78324900  0.54878900  1
  H  89  1  0.32301200  0.87961000  0.37701500  1
  H  90  1  0.31155350  0.70372550  0.56471700  1
  H  115  1  0.61000750  0.27981800  0.28928050  1
  H  116  1  0.57356400  0.23124850  0.29500650  1
  H  117  1  0.53612050  0.18634950  0.28755100  1
  H  118  1  0.49961700  0.15563250  0.27547750  1
  H  119  1  0.50811600  0.24048050  0.21199550  1
  H  120  1  0.60156650  0.33481900  0.21289250  1
  H  121  1  0.50645750  0.27607500  0.27213650  1
  H  122  1  0.49326850  0.34649700  0.21389850  1
  H  123  1  0.53345100  0.35430250  0.16677850  1
  H  124  1  0.60326800  0.27630600  0.17559000  1
  H  125  1  0.57629950  0.35467350  0.12431400  1
  H  126  1  0.61645700  0.34769900  0.09195500  1
  H  132  1  0.63278400  0.36125600  0.23235100  1
  H  133  1  0.47681300  0.18982400  0.21683800  1
  H  134  1  0.64874450  0.29755800  0.12029450  1
  H  135  1  0.46112550  0.28599650  0.29639700  1
  H  160  1  0.62382850  0.90282800  0.65244350  1
  H  161  1  0.58104250  0.87211800  0.64665050  1
  H  162  1  0.52872050  0.82721250  0.65406100  1
  H  163  1  0.48588900  0.77863900  0.66617400  1
  H  164  1  0.50724950  0.72364800  0.72965650  1
  H  165  1  0.60246600  0.81797550  0.72878450  1
  H  166  1  0.60305850  0.78211450  0.66952700  1
  H  167  1  0.61514700  0.71064700  0.72784400  1
  H  168  1  0.57578600  0.70371050  0.77493550  1
  H  169  1  0.50673850  0.78247150  0.76595600  1
  H  170  1  0.53365050  0.70410900  0.81736150  1
  H  171  1  0.49434850  0.71197600  0.84966450  1
  H  177  1  0.64829300  0.86864350  0.70942150  1
  H  178  1  0.46138250  0.69720400  0.72486650  1
  H  179  1  0.47269700  0.77271950  0.82120350  1
  H  180  1  0.63715750  0.76091800  0.64534550  1
  H  205  1  0.35955300  0.46028700  0.22140600  1
  H  206  1  0.37161600  0.50307300  0.17283800  1
  H  207  1  0.37899700  0.55534950  0.12794950  1
  H  208  1  0.37328400  0.59820100  0.09723500  1
  H  209  1  0.29692500  0.57684450  0.18206650  1
  H  210  1  0.29600450  0.48158400  0.27640950  1
  H  211  1  0.25959550  0.48103450  0.21767000  1
  H  212  1  0.17598250  0.46882300  0.28811550  1
  H  213  1  0.20836550  0.50815500  0.29590750  1
  H  214  1  0.35619000  0.57735150  0.21789950  1
  H  215  1  0.25085650  0.55026350  0.29626800  1
  H  216  1  0.29799800  0.58959050  0.28930050  1
  H  222  1  0.30088350  0.43577300  0.30285650  1
  H  223  1  0.31636050  0.62271250  0.13140200  1
  H  224  1  0.38041950  0.61138050  0.23916600  1
  H  225  1  0.20430950  0.44694950  0.22753100  1
  H  250  1  0.75025350  0.47403150  0.84443600  1
  H  251  1  0.73815350  0.51050500  0.81372350  1
  H  252  1  0.73076150  0.54802550  0.76882700  1
  H  253  1  0.73654150  0.58452500  0.72025750  1
  H  254  1  0.81284600  0.57598350  0.66526150  1
  H  255  1  0.81372200  0.48251900  0.75959200  1
  H  256  1  0.85014400  0.57762800  0.72374600  1
  H  257  1  0.93372900  0.59081700  0.65228400  1
  H  258  1  0.90132300  0.55065750  0.64533150  1
  H  259  1  0.75350400  0.48080950  0.72407350  1
  H  260  1  0.85880900  0.50781800  0.64572400  1
  H  261  1  0.81165300  0.46762750  0.65358250  1
  H  267  1  0.80891600  0.45126250  0.81024950  1
  H  268  1  0.79347650  0.60728050  0.63881100  1
  H  269  1  0.72919550  0.43542600  0.71422850  1
  H  270  1  0.90545600  0.62308400  0.70247500  1
  H  547  1  0.78555300  0.36679450  0.54955150  1
  H  554  1  0.72217250  0.34410050  0.67746300  1
  H  555  1  0.75238450  0.42547100  0.59265450  1
  H  556  1  0.69199750  0.32586700  0.65016450  1
  H  558  1  0.71349400  0.34716200  0.72474400  1
  H  559  1  0.72035800  0.38079850  0.72559350  1
  H  563  1  0.81479500  0.40937800  0.55477900  1
  H  564  1  0.79946500  0.41411600  0.58570300  1
  H  577  1  0.13852300  0.69164150  0.57776250  1
  H  584  1  0.03328200  0.71428250  0.61844950  1
  H  585  1  0.03679250  0.63296400  0.66961750  1
  H  586  1  0.07885300  0.73261350  0.63033550  1
  H  588  1  0.98291900  0.71115200  0.63014900  1
  H  589  1  0.94845150  0.67751700  0.65697050  1
  H  593  1  0.09071850  0.64918200  0.59097550  1
  H  594  1  0.05506700  0.64448700  0.61104100  1
  H  607  1  0.32420300  0.71976700  0.36392800  1
  H  614  1  0.38757850  0.65524650  0.32320200  1
  H  615  1  0.35736700  0.70985950  0.27205450  1
  H  616  1  0.41774200  0.71268300  0.31131300  1
  H  618  1  0.39610550  0.61654350  0.31154900  1
  H  619  1  0.38934750  0.60891500  0.28469350  1
  H  623  1  0.29495200  0.68523400  0.35067300  1
  H  624  1  0.31027200  0.66964950  0.33058150  1
  H  637  1  0.97117750  0.33870200  0.39197450  1
  H  644  1  0.07643350  0.40316200  0.26414950  1
  H  645  1  0.07293200  0.34850550  0.34897350  1
  H  646  1  0.03089400  0.34569400  0.29140800  1
  H  648  1  0.12680050  0.44188700  0.21692550  1
  H  649  1  0.16127600  0.44952650  0.21607550  1
  H  653  1  0.01898800  0.37311200  0.38679400  1
  H  654  1  0.05465850  0.38866400  0.35590150  1
  H  667  1  0.44796800  0.11293800  0.30837700  1
  H  674  1  0.40727450  0.00768100  0.28572950  1
  H  675  1  0.35612500  0.01113500  0.36708800  1
  H  676  1  0.39532350  0.05319250  0.26749100  1
  H  678  1  0.39552850  0.95733650  0.28879700  1
  H  679  1  0.36875300  0.92285300  0.32243400  1
  H  683  1  0.43463600  0.06514000  0.35097100  1
  H  684  1  0.41456600  0.02946900  0.35572400  1
  H  697  1  0.47609500  0.75985150  0.63326650  1
  H  704  1  0.34821050  0.69656400  0.65586950  1
  H  705  1  0.43304800  0.72671200  0.57456400  1
  H  706  1  0.37542950  0.66633400  0.67420350  1
  H  708  1  0.30098050  0.68798800  0.65273150  1
  H  709  1  0.30014850  0.69479100  0.61909650  1
  H  713  1  0.47076700  0.78911950  0.59080350  1
  H  714  1  0.43981100  0.77376400  0.58609800  1
  H  727  1  0.63361500  0.94552600  0.66143200  1
  H  734  1  0.76152300  0.05079350  0.59686750  1
  H  735  1  0.67670050  0.04731850  0.65149800  1
  H  736  1  0.73426700  0.00526400  0.65430100  1
  H  738  1  0.80875300  0.10116050  0.55814850  1
  H  739  1  0.80961100  0.13563800  0.55051800  1
  H  743  1  0.63889250  0.99330250  0.62689100  1
  H  744  1  0.66979900  0.02898450  0.61129650  1
  H  757  1  0.66169850  0.29858200  0.28030450  1
  H  764  1  0.70247250  0.36193850  0.34479800  1
  H  765  1  0.75362250  0.33176350  0.29015200  1
  H  766  1  0.71440050  0.39214250  0.28733600  1
  H  768  1  0.71412150  0.37044800  0.38352050  1
  H  769  1  0.74096250  0.36367000  0.39115450  1
  H  773  1  0.67508350  0.26934700  0.31472450  1
  H  774  1  0.69518800  0.28468150  0.33029250  1
  H  787  1  0.36431600  0.60798500  0.05453600  1
  H  794  1  0.42882500  0.73585350  0.94927850  1
  H  795  1  0.37422350  0.65102750  0.95274000  1
  H  796  1  0.37135600  0.70857050  0.99479150  1
  H  798  1  0.46741200  0.78313100  0.89894000  1
  H  799  1  0.47511050  0.78398400  0.86445550  1
  H  803  1  0.39875000  0.61316900  0.00674000  1
  H  804  1  0.41433150  0.64407200  0.97106750  1
  H  817  1  0.74548400  0.63619600  0.70146700  1
  H  824  1  0.68088850  0.67683950  0.63815100  1
  H  825  1  0.73558250  0.72801800  0.66829250  1
  H  826  1  0.73834150  0.68872250  0.60793600  1
  H  828  1  0.64221450  0.68853350  0.62959200  1
  H  829  1  0.63456350  0.71534700  0.63642350  1
  H  833  1  0.71087200  0.64938400  0.73071900  1
  H  834  1  0.69527150  0.66943150  0.71535100  1
  H  847  1  0.71733700  0.42234350  0.88711650  1
  H  854  1  0.73994300  0.38163500  0.99240900  1
  H  855  1  0.65859150  0.33049250  0.98892000  1
  H  856  1  0.75821750  0.36973250  0.94688600  1
  H  858  1  0.73681500  0.36997150  0.04276850  1
  H  859  1  0.70320300  0.34310850  0.07724650  1
  H  863  1  0.67482400  0.40910850  0.93488350  1
  H  864  1  0.67003500  0.38902150  0.97057050  1
  H  877  1  0.39242950  0.45040800  0.24017750  1
  H  884  1  0.36973700  0.32251450  0.30357750  1
  H  885  1  0.45107650  0.40732550  0.27342200  1
  H  886  1  0.35145600  0.34979350  0.33376050  1
  H  888  1  0.37287550  0.27528350  0.31206500  1
  H  889  1  0.40650550  0.27443850  0.30526100  1
  H  893  1  0.43501050  0.44517100  0.21096950  1
  H  894  1  0.43974100  0.41424700  0.22632100  1
  N  557  1  0.72101250  0.37000150  0.71316100  1
  N  560  1  0.76103050  0.46690900  0.61382350  1
  N  561  1  0.68524550  0.28484750  0.62781600  1
  N  562  1  0.79591050  0.40288700  0.57411150  1
  N  569  1  0.75291500  0.43792600  0.67321300  1
  N  570  1  0.74034350  0.31100150  0.57050000  1
  N  587  1  0.97167950  0.68832700  0.64550950  1
  N  590  1  0.97423400  0.59149300  0.70244500  1
  N  591  1  0.14221850  0.77365250  0.59600500  1
  N  592  1  0.07784850  0.65549150  0.60359800  1
  N  599  1  0.94386550  0.62033100  0.68148250  1
  N  600  1  0.17337200  0.74747250  0.56710250  1
  N  617  1  0.38874150  0.62073000  0.29610750  1
  N  620  1  0.34879350  0.68015500  0.23918150  1
  N  621  1  0.42448850  0.74176000  0.34560450  1
  N  622  1  0.31385400  0.68488450  0.33814550  1
  N  629  1  0.35672500  0.62885250  0.26012250  1
  N  630  1  0.36937650  0.74397850  0.37455600  1
  N  647  1  0.13804600  0.43769300  0.22848300  1
  N  650  1  0.13551400  0.37822800  0.32786800  1
  N  651  1  0.96753400  0.31665900  0.31370400  1
  N  652  1  0.03183250  0.37354400  0.36747350  1
  N  659  1  0.16586950  0.42955900  0.26865550  1
  N  660  1  0.93635600  0.31448000  0.37100300  1
  N  677  1  0.38020650  0.94608250  0.31163500  1
  N  680  1  0.32332350  0.94853200  0.40853050  1
  N  681  1  0.42958500  0.11655400  0.22645500  1
  N  682  1  0.42223950  0.05228850  0.34448800  1
  N  689  1  0.34417250  0.91811000  0.37956150  1
  N  690  1  0.45853850  0.14775450  0.25257000  1
  N  707  1  0.31256650  0.69544700  0.62990750  1
  N  710  1  0.41196750  0.73534300  0.53308750  1
  N  711  1  0.39774150  0.65959700  0.71525350  1
  N  712  1  0.45158400  0.77019250  0.59710650  1
  N  719  1  0.35275500  0.72745150  0.56191050  1
  N  720  1  0.45508300  0.71465850  0.68910150  1
  N  737  1  0.79719600  0.11240900  0.56233300  1
  N  740  1  0.69782400  0.10989500  0.62176900  1
  N  741  1  0.71194300  0.94189950  0.68338250  1
  N  742  1  0.65814800  0.00618750  0.62653450  1
  N  749  1  0.75702850  0.14022450  0.57042900  1
  N  750  1  0.65460100  0.91070500  0.68563700  1
  N  767  1  0.72956350  0.36308950  0.37932300  1
  N  770  1  0.78648650  0.32316050  0.31987100  1
  N  771  1  0.68008950  0.39888400  0.25828450  1
  N  772  1  0.68749100  0.28823300  0.31516600  1
  N  779  1  0.76554300  0.33107950  0.37118250  1
  N  780  1  0.65110650  0.34377450  0.25607900  1
  N  797  1  0.46333700  0.77155000  0.88768400  1
  N  800  1  0.40400350  0.67219450  0.89013400  1
  N  801  1  0.34228450  0.68626900  0.05814750  1
  N  802  1  0.39919750  0.63249750  0.99388700  1
  N  809  1  0.45524450  0.73161300  0.85968750  1
  N  810  1  0.34009150  0.62898400  0.08934650  1
  N  827  1  0.64633100  0.70388550  0.63706850  1
  N  830  1  0.70583650  0.76082400  0.67696150  1
  N  831  1  0.76739600  0.65441250  0.60122450  1
  N  832  1  0.71061950  0.66200050  0.71178800  1
  N  839  1  0.65447600  0.73981100  0.66913600  1
  N  840  1  0.76968050  0.62554300  0.65629850  1
  N  857  1  0.71401000  0.35452800  0.05401800  1
  N  860  1  0.61714150  0.29760600  0.05149650  1
  N  861  1  0.79927350  0.40400850  0.88353000  1
  N  862  1  0.68118850  0.39657950  0.94777500  1
  N  869  1  0.64601400  0.31853650  0.08186850  1
  N  870  1  0.77315300  0.43295750  0.85231350  1
  N  887  1  0.39568200  0.28684400  0.30469400  1
  N  890  1  0.49254500  0.38621650  0.26477750  1
  N  891  1  0.31045050  0.37215600  0.34045850  1
  N  892  1  0.42851350  0.42584100  0.22986350  1
  N  899  1  0.46366700  0.32702200  0.27261400  1
  N  900  1  0.33665200  0.42949350  0.28534250  1
  O  565  1  0.78926350  0.48092600  0.59103450  1
  O  566  1  0.65807800  0.28167500  0.64234500  1
  O  567  1  0.74403250  0.47349100  0.60277550  1
  O  568  1  0.68797850  0.26460000  0.64724350  1
  O  595  1  0.98301150  0.57750500  0.68819350  1
  O  596  1  0.13090250  0.77683200  0.62000450  1
  O  597  1  0.97875550  0.58492600  0.72598950  1
  O  598  1  0.14298250  0.79387450  0.57305300  1
  O  625  1  0.32053900  0.67465800  0.25339500  1
  O  626  1  0.45165550  0.75442350  0.32160000  1
  O  627  1  0.36577900  0.70823650  0.21566550  1
  O  628  1  0.42176900  0.71959200  0.36856600  1
  O  655  1  0.12676300  0.38370150  0.35063850  1
  O  656  1  0.97881900  0.30390150  0.29929450  1
  O  657  1  0.13097550  0.35015650  0.33894900  1
  O  658  1  0.96686100  0.33886800  0.29416500  1
  O  685  1  0.33754200  0.95730600  0.42254700  1
  O  686  1  0.40557950  0.10518800  0.22329450  1
  O  687  1  0.29974750  0.95300200  0.41510950  1
  O  688  1  0.45255800  0.11736400  0.20621000  1
  O  715  1  0.43473300  0.76358550  0.51909550  1
  O  716  1  0.38324800  0.63242500  0.71841800  1
  O  717  1  0.42305900  0.71836650  0.52652650  1
  O  718  1  0.37827750  0.66232250  0.73547400  1
  O  745  1  0.67504850  0.10115250  0.61629800  1
  O  746  1  0.72644250  0.95324400  0.69605050  1
  O  747  1  0.68675000  0.10535600  0.64984200  1
  O  748  1  0.73140300  0.94112450  0.66120550  1
  O  775  1  0.77225550  0.29491200  0.32535750  1
  O  776  1  0.70413300  0.42605250  0.24553250  1
  O  777  1  0.81001600  0.34014400  0.29179600  1
  O  778  1  0.65720450  0.39621100  0.28049050  1
  O  805  1  0.40946750  0.64941750  0.89889000  1
  O  806  1  0.32963650  0.70078150  0.04678700  1
  O  807  1  0.37594800  0.66112450  0.89462550  1
  O  808  1  0.36445150  0.70571600  0.05894750  1
  O  835  1  0.70039000  0.74657700  0.70519300  1
  O  836  1  0.78007600  0.67841050  0.57404750  1
  O  837  1  0.73389450  0.78438550  0.65997200  1
  O  838  1  0.74520450  0.63145850  0.60395600  1
  O  865  1  0.60310050  0.31181800  0.04277950  1
  O  866  1  0.80241100  0.37998600  0.89487200  1
  O  867  1  0.61061350  0.27409050  0.04692700  1
  O  868  1  0.81950900  0.42694750  0.88277250  1
  O  895  1  0.50655450  0.40899500  0.23654050  1
  O  896  1  0.30729550  0.35772350  0.36763700  1
  O  897  1  0.49910100  0.39728750  0.28177150  1
  O  898  1  0.29023200  0.35263900  0.33777100  1
