# generated using pymatgen
data_H20C41(N2O)2
_symmetry_space_group_name_H-M   'P 1'
_cell_length_a   24.67410000
_cell_length_b   24.67410000
_cell_length_c   47.77730000
_cell_angle_alpha   90.00000000
_cell_angle_beta   90.00000000
_cell_angle_gamma   90.00000000
_symmetry_Int_Tables_number   1
_chemical_formula_structural   H20C41(N2O)2
_chemical_formula_sum   'H160 C328 N32 O16'
_cell_volume   29087.35586223
_cell_formula_units_Z   8
loop_
 _symmetry_equiv_pos_site_id
 _symmetry_equiv_pos_as_xyz
  1  'x, y, z'
loop_
 _atom_site_type_symbol
 _atom_site_label
 _atom_site_symmetry_multiplicity
 _atom_site_fract_x
 _atom_site_fract_y
 _atom_site_fract_z
 _atom_site_occupancy
  C  1  1  0.11773600  0.26916200  0.13465700  1
  C  2  1  0.17121200  0.26203600  0.12564600  1
  C  3  1  0.17177100  0.24480100  0.09805600  1
  C  4  1  0.11866700  0.23776000  0.08846900  1
  C  5  1  0.11111300  0.21594700  0.06108400  1
  C  6  1  0.15615200  0.20507900  0.04296000  1
  C  7  1  0.20863700  0.21742200  0.05342900  1
  C  8  1  0.21692000  0.23579400  0.08082700  1
  C  9  1  0.21566500  0.27084900  0.14337400  1
  C  10  1  0.20629700  0.28900400  0.17071500  1
  C  11  1  0.15341600  0.30134400  0.18064600  1
  C  12  1  0.10911000  0.29077600  0.16199800  1
  C  13  1  0.04087400  0.29813800  0.10392000  1
  C  14  1  0.98726600  0.27999500  0.10610500  1
  C  15  1  0.98699300  0.22700100  0.11487300  1
  C  16  1  0.04043200  0.20902100  0.11823800  1
  C  17  1  0.94177000  0.19362000  0.11937800  1
  C  18  1  0.95050000  0.13939300  0.12641500  1
  C  19  1  0.00375000  0.11864800  0.12897600  1
  C  20  1  0.04892100  0.15366700  0.12480000  1
  C  21  1  0.04972500  0.35367500  0.09792100  1
  C  22  1  0.00483000  0.38883000  0.09325400  1
  C  23  1  0.95147200  0.36791300  0.09461600  1
  C  24  1  0.94234000  0.31343800  0.10097900  1
  C  37  1  0.07959500  0.25353700  0.11134100  1
  C  38  1  0.39442300  0.23143300  0.63464500  1
  C  39  1  0.34094400  0.23840800  0.62560500  1
  C  40  1  0.34039000  0.25564100  0.59801400  1
  C  41  1  0.39349400  0.26275800  0.58844300  1
  C  42  1  0.40104800  0.28460300  0.56106600  1
  C  43  1  0.35601400  0.29544900  0.54293800  1
  C  44  1  0.30352900  0.28307900  0.55339500  1
  C  45  1  0.29524300  0.26464200  0.58078200  1
  C  46  1  0.29648600  0.22955700  0.64332700  1
  C  47  1  0.30585600  0.21146000  0.67067900  1
  C  48  1  0.35873800  0.19915700  0.68061700  1
  C  49  1  0.40304600  0.20975100  0.66197200  1
  C  50  1  0.47127200  0.20238600  0.60391300  1
  C  51  1  0.52488400  0.22050300  0.60612100  1
  C  52  1  0.52517000  0.27351800  0.61485300  1
  C  53  1  0.47173600  0.29151600  0.61821000  1
  C  54  1  0.57040400  0.30686900  0.61937600  1
  C  55  1  0.56169400  0.36110800  0.62640200  1
  C  56  1  0.50844400  0.38185500  0.62897300  1
  C  57  1  0.46326400  0.34687100  0.62477000  1
  C  58  1  0.46240800  0.14685500  0.59790100  1
  C  59  1  0.50729800  0.11170400  0.59320500  1
  C  60  1  0.56065700  0.13261300  0.59456100  1
  C  61  1  0.56980000  0.18705800  0.60098500  1
  C  74  1  0.43256200  0.24700400  0.61132000  1
  C  75  1  0.73732600  0.61195000  0.38468100  1
  C  76  1  0.74436400  0.66541800  0.37564100  1
  C  77  1  0.76152400  0.66595800  0.34804000  1
  C  78  1  0.76855200  0.61284600  0.33846000  1
  C  79  1  0.79037200  0.60527800  0.31107900  1
  C  80  1  0.80122100  0.65030200  0.29294300  1
  C  81  1  0.78886800  0.70279400  0.30339900  1
  C  82  1  0.77049000  0.71109400  0.33079300  1
  C  83  1  0.73562200  0.70988600  0.39337100  1
  C  84  1  0.71753200  0.70053600  0.42072700  1
  C  85  1  0.70524600  0.64766400  0.43068000  1
  C  86  1  0.71578400  0.60334200  0.41203700  1
  C  87  1  0.70819600  0.53508000  0.35403400  1
  C  88  1  0.72631600  0.48146000  0.35619400  1
  C  89  1  0.77934400  0.48116400  0.36489900  1
  C  90  1  0.79740000  0.53459800  0.36817100  1
  C  91  1  0.81269600  0.43593100  0.36942500  1
  C  92  1  0.86693800  0.44463600  0.37644300  1
  C  93  1  0.88772000  0.49787800  0.37897500  1
  C  94  1  0.85273000  0.54306800  0.37478700  1
  C  95  1  0.65269500  0.54397800  0.34796500  1
  C  96  1  0.61751400  0.49908600  0.34333500  1
  C  97  1  0.63838200  0.44571800  0.34468100  1
  C  98  1  0.69283000  0.43655600  0.35109400  1
  C  111  1  0.75286200  0.57379200  0.36135600  1
  C  112  1  0.77497900  0.88854800  0.88462400  1
  C  113  1  0.76789000  0.83509400  0.87556900  1
  C  114  1  0.75067000  0.83460400  0.84797600  1
  C  115  1  0.74359000  0.88773700  0.83843600  1
  C  116  1  0.72172000  0.89536000  0.81107000  1
  C  117  1  0.71084100  0.85037400  0.79291500  1
  C  118  1  0.72323400  0.79786200  0.80333000  1
  C  119  1  0.74162800  0.78950200  0.83071900  1
  C  120  1  0.77671000  0.79059800  0.89327000  1
  C  121  1  0.79482200  0.79990400  0.92062400  1
  C  122  1  0.80709000  0.85276500  0.93060100  1
  C  123  1  0.79655600  0.89711600  0.91197500  1
  C  124  1  0.80397900  0.96545800  0.85393700  1
  C  125  1  0.78591000  0.01907700  0.85622900  1
  C  126  1  0.73290600  0.01935700  0.86498200  1
  C  127  1  0.71486200  0.96591600  0.86825600  1
  C  128  1  0.69952400  0.06458600  0.86946800  1
  C  129  1  0.64525600  0.05587300  0.87642900  1
  C  130  1  0.62448500  0.00262600  0.87892600  1
  C  131  1  0.65948200  0.95743800  0.87476500  1
  C  132  1  0.85950500  0.95659800  0.84791400  1
  C  133  1  0.89465100  0.00148000  0.84320800  1
  C  134  1  0.87377900  0.05485200  0.84460500  1
  C  135  1  0.81935400  0.06399400  0.85108500  1
  C  148  1  0.75936000  0.92674600  0.86133400  1
  C  149  1  0.62784900  0.76289800  0.63549500  1
  C  150  1  0.68090000  0.75606800  0.62575600  1
  C  151  1  0.68033400  0.73792800  0.59835100  1
  C  152  1  0.62689000  0.73135600  0.58913600  1
  C  153  1  0.61854000  0.70806600  0.56207100  1
  C  154  1  0.66338000  0.69284400  0.54467900  1
  C  155  1  0.71611800  0.70640100  0.55430500  1
  C  156  1  0.72507000  0.72753200  0.58106100  1
  C  157  1  0.72630800  0.76641200  0.64258800  1
  C  158  1  0.71843000  0.78785000  0.66936800  1
  C  159  1  0.66611800  0.80180600  0.67945300  1
  C  160  1  0.62059000  0.78649800  0.66257200  1
  C  161  1  0.54958800  0.79180600  0.60609400  1
  C  162  1  0.49620000  0.77351600  0.60926200  1
  C  163  1  0.49658200  0.72029400  0.61762400  1
  C  164  1  0.55021300  0.70210100  0.61961300  1
  C  165  1  0.45168000  0.68686800  0.62283400  1
  C  166  1  0.46076700  0.63206800  0.62838200  1
  C  167  1  0.51397600  0.61067300  0.62803700  1
  C  168  1  0.55901600  0.64606200  0.62438700  1
  C  169  1  0.55787600  0.84769900  0.60068100  1
  C  170  1  0.51250600  0.88287000  0.59757700  1
  C  171  1  0.45937200  0.86135300  0.59859000  1
  C  172  1  0.45085000  0.80670400  0.60473700  1
  C  185  1  0.58882800  0.74705500  0.61254200  1
  C  186  1  0.88440200  0.73758400  0.13546600  1
  C  187  1  0.83133800  0.74454600  0.12577100  1
  C  188  1  0.83187200  0.76263800  0.09835900  1
  C  189  1  0.88530600  0.76930500  0.08914800  1
  C  190  1  0.89364800  0.79225800  0.06200700  1
  C  191  1  0.84879000  0.80743600  0.04461700  1
  C  192  1  0.79605800  0.79397400  0.05428500  1
  C  193  1  0.78712600  0.77291200  0.08105500  1
  C  194  1  0.78595400  0.73426000  0.14262700  1
  C  195  1  0.79386200  0.71279200  0.16939900  1
  C  196  1  0.84619200  0.69892000  0.17948800  1
  C  197  1  0.89170400  0.71417000  0.16258100  1
  C  198  1  0.96263400  0.70875200  0.10604800  1
  C  199  1  0.01602900  0.72700600  0.10925200  1
  C  200  1  0.01566800  0.78021600  0.11764000  1
  C  201  1  0.96205000  0.79846600  0.11953100  1
  C  202  1  0.06057000  0.81360600  0.12291300  1
  C  203  1  0.05148800  0.86842200  0.12842600  1
  C  204  1  0.99828600  0.88984400  0.12809300  1
  C  205  1  0.95324700  0.85447400  0.12440500  1
  C  206  1  0.95434200  0.65285500  0.10063500  1
  C  207  1  0.99970000  0.61763400  0.09763500  1
  C  208  1  0.05284200  0.63914000  0.09863900  1
  C  209  1  0.06137600  0.69379200  0.10476300  1
  C  222  1  0.92340800  0.75350700  0.11251900  1
  C  223  1  0.24338700  0.12204800  0.88546500  1
  C  224  1  0.25036800  0.17510400  0.87576400  1
  C  225  1  0.26851700  0.17454900  0.84836200  1
  C  226  1  0.27518300  0.12110800  0.83916100  1
  C  227  1  0.29828400  0.11275800  0.81205300  1
  C  228  1  0.31348800  0.15759800  0.79465800  1
  C  229  1  0.29994600  0.21033300  0.80429700  1
  C  230  1  0.27886300  0.21928400  0.83106000  1
  C  231  1  0.24009000  0.22049500  0.89261500  1
  C  232  1  0.21865900  0.21260000  0.91939700  1
  C  233  1  0.20473500  0.16028200  0.92948400  1
  C  234  1  0.22000000  0.11475900  0.91258700  1
  C  235  1  0.21457000  0.04384900  0.85602400  1
  C  236  1  0.23277800  0.99043600  0.85920400  1
  C  237  1  0.28598400  0.99075000  0.86760500  1
  C  238  1  0.30423400  0.04435900  0.86962300  1
  C  239  1  0.31935600  0.94580200  0.87281000  1
  C  240  1  0.37417800  0.95482000  0.87832800  1
  C  241  1  0.39563500  0.00800400  0.87800100  1
  C  242  1  0.36029300  0.05308800  0.87438600  1
  C  243  1  0.15869000  0.05220100  0.85058600  1
  C  244  1  0.12343900  0.00688200  0.84753100  1
  C  245  1  0.14489800  0.95372200  0.84853900  1
  C  246  1  0.19955500  0.94512500  0.85463600  1
  C  259  1  0.25933800  0.08302600  0.86253100  1
  C  260  1  0.26878900  0.37862800  0.38545900  1
  C  261  1  0.26187900  0.32557700  0.37573500  1
  C  262  1  0.24375800  0.32616000  0.34832700  1
  C  263  1  0.23720500  0.37960900  0.33911300  1
  C  264  1  0.21394900  0.38797400  0.31204200  1
  C  265  1  0.19872300  0.34314500  0.29464600  1
  C  266  1  0.21224900  0.29039800  0.30427200  1
  C  267  1  0.23339400  0.28143300  0.33102400  1
  C  268  1  0.27214100  0.28016900  0.39257800  1
  C  269  1  0.29357900  0.28803900  0.41936000  1
  C  270  1  0.30745700  0.34035100  0.42947200  1
  C  271  1  0.29218600  0.38588300  0.41258300  1
  C  272  1  0.29762100  0.45692400  0.35609800  1
  C  273  1  0.27933800  0.51030400  0.35931900  1
  C  274  1  0.22612000  0.50990400  0.36768700  1
  C  275  1  0.20789500  0.45626800  0.36955900  1
  C  276  1  0.19271600  0.55478400  0.37298100  1
  C  277  1  0.13789900  0.54567800  0.37846900  1
  C  278  1  0.11650000  0.49247000  0.37810000  1
  C  279  1  0.15189300  0.44743700  0.37444000  1
  C  280  1  0.35351200  0.44865700  0.35066500  1
  C  281  1  0.38867900  0.49403600  0.34757900  1
  C  282  1  0.36715800  0.54716600  0.34864500  1
  C  283  1  0.31251900  0.55566800  0.35482100  1
  C  296  1  0.25287700  0.41766500  0.36252800  1
  C  297  1  0.99397800  0.94707800  0.12889000  1
  C  298  1  0.97762900  0.97567000  0.15327500  1
  C  299  1  0.98432000  0.03306800  0.15408700  1
  C  300  1  0.00828400  0.06161900  0.13146900  1
  C  301  1  0.02400900  0.03238200  0.10746600  1
  C  302  1  0.01710000  0.97606400  0.10626900  1
  C  304  1  0.94475600  0.03547800  0.19970800  1
  C  305  1  0.93864800  0.97896200  0.19921000  1
  C  312  1  0.51828800  0.55343500  0.62880700  1
  C  313  1  0.53462200  0.52487000  0.65320200  1
  C  314  1  0.52791400  0.46747800  0.65401800  1
  C  315  1  0.50399400  0.43889800  0.63139200  1
  C  316  1  0.48830600  0.46813900  0.60738500  1
  C  317  1  0.49522000  0.52445300  0.60617500  1
  C  319  1  0.56739700  0.46508600  0.69966300  1
  C  320  1  0.57352000  0.52159600  0.69915900  1
  C  327  1  0.05926400  0.48815600  0.37888100  1
  C  328  1  0.03068500  0.47177000  0.40326500  1
  C  329  1  0.97328400  0.47843800  0.40407300  1
  C  330  1  0.94476400  0.50237800  0.38143900  1
  C  331  1  0.97397800  0.51815100  0.35744200  1
  C  332  1  0.03029600  0.51125300  0.35624900  1
  C  334  1  0.97087600  0.43888200  0.44969700  1
  C  335  1  0.02739500  0.43280200  0.44920300  1
  C  342  1  0.45287200  0.01224400  0.87879900  1
  C  343  1  0.48144800  0.02869400  0.90317400  1
  C  344  1  0.53885200  0.02205600  0.90399700  1
  C  345  1  0.56744200  0.99810400  0.88138800  1
  C  346  1  0.53823600  0.98235000  0.85738000  1
  C  347  1  0.48191400  0.98920400  0.85617700  1
  C  349  1  0.54121200  0.06165700  0.94961300  1
  C  350  1  0.48469000  0.06771500  0.94910600  1
  C  357  1  0.51660600  0.94005900  0.59583600  1
  C  358  1  0.53227100  0.96724800  0.57089900  1
  C  359  1  0.52574600  0.02461000  0.56930000  1
  C  360  1  0.50274600  0.05451400  0.59173100  1
  C  361  1  0.48765000  0.02665600  0.61626400  1
  C  362  1  0.49444200  0.97041000  0.61823300  1
  C  364  1  0.56369800  0.02434200  0.52329100  1
  C  365  1  0.56963800  0.96786200  0.52456700  1
  C  372  1  0.99557400  0.56043800  0.09588600  1
  C  373  1  0.97988600  0.53328800  0.07094400  1
  C  374  1  0.98638300  0.47592400  0.06934300  1
  C  375  1  0.00938600  0.44602600  0.09177300  1
  C  376  1  0.02449500  0.47384600  0.11631700  1
  C  377  1  0.01772300  0.53009400  0.11829000  1
  C  379  1  0.94842000  0.47620800  0.02333900  1
  C  380  1  0.94251500  0.53269400  0.02461300  1
  C  387  1  0.44587200  0.48995600  0.34584200  1
  C  388  1  0.47305900  0.47420600  0.32092200  1
  C  389  1  0.53042700  0.48070200  0.31934000  1
  C  390  1  0.56035500  0.50377200  0.34174000  1
  C  391  1  0.53247400  0.51876700  0.36629300  1
  C  392  1  0.47621800  0.51206400  0.36825300  1
  C  394  1  0.53020400  0.44262600  0.27335800  1
  C  395  1  0.47372000  0.43672200  0.27461600  1
  C  402  1  0.06625300  0.01108400  0.84579800  1
  C  403  1  0.03907000  0.02657000  0.82083400  1
  C  404  1  0.98172200  0.01994400  0.81923100  1
  C  405  1  0.95183200  0.99690800  0.84164700  1
  C  406  1  0.97968800  0.98205000  0.86623000  1
  C  407  1  0.03592400  0.98892200  0.86820800  1
  C  409  1  0.98194500  0.05779000  0.77320200  1
  C  410  1  0.03841800  0.06381600  0.77447700  1
  C  417  1  0.14970100  0.32190500  0.20907800  1
  C  418  1  0.11998100  0.29587800  0.23091700  1
  C  419  1  0.13077700  0.30988800  0.25952100  1
  C  420  1  0.17307300  0.34621400  0.26740300  1
  C  421  1  0.19841900  0.37492900  0.24551200  1
  C  422  1  0.18596400  0.36396500  0.21725400  1
  C  424  1  0.06373100  0.24632400  0.27484200  1
  C  425  1  0.05479900  0.23038400  0.24709700  1
  C  432  1  0.36245000  0.17865800  0.70905900  1
  C  433  1  0.39212800  0.20477100  0.73089100  1
  C  434  1  0.38131900  0.19085500  0.75950500  1
  C  435  1  0.33898800  0.15455600  0.76736900  1
  C  436  1  0.31374200  0.12566200  0.74552200  1
  C  437  1  0.32622500  0.13658000  0.71726200  1
  C  439  1  0.44835900  0.25445400  0.77478700  1
  C  440  1  0.45729800  0.27032000  0.74703100  1
  C  447  1  0.68470600  0.64399200  0.45912200  1
  C  448  1  0.71071000  0.61419500  0.48094200  1
  C  449  1  0.69665800  0.62492300  0.50954600  1
  C  450  1  0.66034800  0.66723000  0.51742400  1
  C  451  1  0.63162600  0.69262200  0.49555200  1
  C  452  1  0.64259200  0.68019600  0.46728900  1
  C  454  1  0.76016000  0.55781200  0.52485000  1
  C  455  1  0.77615400  0.54895400  0.49710700  1
  C  462  1  0.82760500  0.85639200  0.95904400  1
  C  463  1  0.80154200  0.88611200  0.98087900  1
  C  464  1  0.81552400  0.87534800  0.00948800  1
  C  465  1  0.85180800  0.83301000  0.01734800  1
  C  466  1  0.88063600  0.80770600  0.99549200  1
  C  467  1  0.86971400  0.82018800  0.96723200  1
  C  469  1  0.75201200  0.94245800  0.02478300  1
  C  470  1  0.73607600  0.95135200  0.99703300  1
  C  477  1  0.35857500  0.31647500  0.51456500  1
  C  478  1  0.38755700  0.29088400  0.49232400  1
  C  479  1  0.37595000  0.30562900  0.46390500  1
  C  480  1  0.33356100  0.34233600  0.45662900  1
  C  481  1  0.30903800  0.37064700  0.47889700  1
  C  482  1  0.32228500  0.35891200  0.50697500  1
  C  484  1  0.44233600  0.24224900  0.44763800  1
  C  485  1  0.45203900  0.22559800  0.47520100  1
  C  492  1  0.15359400  0.18411300  0.01457300  1
  C  493  1  0.12461700  0.20972700  0.99233800  1
  C  494  1  0.13624300  0.19501400  0.96391600  1
  C  495  1  0.17860400  0.15827500  0.95663500  1
  C  496  1  0.20307600  0.12987900  0.97889200  1
  C  497  1  0.18992800  0.14172900  0.00696900  1
  C  499  1  0.06987500  0.25841700  0.94765800  1
  C  500  1  0.06015600  0.27503800  0.97522300  1
  C  507  1  0.82228800  0.64769600  0.26458000  1
  C  508  1  0.79671800  0.61873000  0.24232700  1
  C  509  1  0.81148300  0.63033000  0.21390700  1
  C  510  1  0.84819800  0.67269000  0.20660900  1
  C  511  1  0.87633200  0.69736400  0.22890000  1
  C  512  1  0.86464000  0.68407400  0.25697800  1
  C  514  1  0.74812900  0.56393600  0.19763100  1
  C  515  1  0.73145800  0.55423400  0.22519100  1
  C  522  1  0.68983500  0.85307700  0.76454100  1
  C  523  1  0.71552800  0.88197600  0.74230500  1
  C  524  1  0.70086500  0.87034600  0.71387700  1
  C  525  1  0.66415800  0.82798400  0.70659500  1
  C  526  1  0.63578400  0.80344200  0.72883800  1
  C  527  1  0.64748100  0.81670100  0.75692300  1
  C  529  1  0.76433600  0.93666200  0.69763900  1
  C  530  1  0.78090400  0.94639600  0.72521500  1
  H  25  1  0.91845000  0.39278000  0.09258400  1
  H  26  1  0.90354300  0.29965900  0.10315800  1
  H  27  1  0.90312600  0.20737200  0.11653600  1
  H  28  1  0.91738000  0.11458300  0.12821600  1
  H  29  1  0.08755900  0.13880100  0.12568000  1
  H  30  1  0.08835600  0.36865800  0.09805400  1
  H  31  1  0.07260700  0.20752100  0.05455000  1
  H  32  1  0.24231100  0.21245900  0.04117000  1
  H  33  1  0.25541800  0.24294300  0.08777200  1
  H  34  1  0.07036100  0.29920800  0.16813100  1
  H  35  1  0.25442100  0.26362600  0.13684500  1
  H  36  1  0.23946700  0.29372200  0.18335700  1
  H  62  1  0.59368800  0.10777000  0.59247200  1
  H  63  1  0.60860400  0.20087900  0.60306300  1
  H  64  1  0.60904400  0.29314200  0.61647900  1
  H  65  1  0.59482600  0.38591900  0.62813800  1
  H  66  1  0.42463200  0.36176500  0.62560900  1
  H  67  1  0.42377600  0.13188100  0.59802900  1
  H  68  1  0.43955000  0.29307200  0.55454200  1
  H  69  1  0.26985900  0.28805500  0.54113400  1
  H  70  1  0.25674400  0.25750500  0.58772500  1
  H  71  1  0.44180000  0.20135000  0.66811100  1
  H  72  1  0.25772800  0.23673100  0.63678800  1
  H  73  1  0.27267900  0.20670700  0.68331200  1
  H  99  1  0.61351400  0.41270800  0.34259000  1
  H  100  1  0.70664800  0.39774700  0.35315300  1
  H  101  1  0.79889000  0.39728300  0.36666200  1
  H  102  1  0.89171900  0.41150000  0.37826600  1
  H  103  1  0.86761800  0.58170000  0.37566000  1
  H  104  1  0.63776600  0.58263200  0.34802500  1
  H  105  1  0.79884600  0.56677200  0.30455900  1
  H  106  1  0.79383400  0.73645700  0.29113400  1
  H  107  1  0.76337800  0.74959600  0.33773800  1
  H  108  1  0.70736600  0.56459600  0.41818400  1
  H  109  1  0.74278000  0.74864000  0.38682000  1
  H  110  1  0.71282400  0.73372200  0.43336100  1
  H  136  1  0.89866000  0.08787000  0.84260100  1
  H  137  1  0.80560600  0.10279300  0.85330700  1
  H  138  1  0.71330700  0.10323100  0.86666700  1
  H  139  1  0.62045400  0.08900100  0.87822300  1
  H  140  1  0.64457900  0.91880600  0.87557100  1
  H  141  1  0.87444600  0.91795100  0.84794300  1
  H  142  1  0.71326800  0.93388200  0.80456900  1
  H  143  1  0.71824400  0.76422400  0.79105000  1
  H  144  1  0.74878600  0.75098600  0.83763500  1
  H  145  1  0.80496600  0.93585200  0.91813700  1
  H  146  1  0.76952000  0.75185600  0.88670800  1
  H  147  1  0.79954400  0.76669900  0.93324500  1
  H  173  1  0.42613600  0.88588000  0.59637800  1
  H  174  1  0.41221400  0.79245000  0.60685500  1
  H  175  1  0.41287800  0.70102500  0.62148800  1
  H  176  1  0.42778100  0.60731000  0.63088200  1
  H  177  1  0.59753000  0.63086800  0.62355200  1
  H  178  1  0.59641200  0.86292200  0.60042100  1
  H  179  1  0.57988000  0.70012600  0.55560900  1
  H  180  1  0.74954000  0.69954800  0.54210700  1
  H  181  1  0.76381400  0.73446000  0.58767900  1
  H  182  1  0.58221000  0.79473600  0.66937100  1
  H  183  1  0.76477400  0.75928600  0.63559900  1
  H  184  1  0.75231800  0.79471600  0.68121700  1
  H  210  1  0.08606600  0.61457200  0.09648700  1
  H  211  1  0.10000800  0.70802200  0.10693400  1
  H  212  1  0.09936800  0.79942200  0.12162400  1
  H  213  1  0.08447400  0.89314200  0.13103800  1
  H  214  1  0.91471600  0.86965000  0.12366300  1
  H  215  1  0.91580900  0.63762400  0.10043700  1
  H  216  1  0.93230200  0.80021600  0.05553900  1
  H  217  1  0.76263000  0.80073000  0.04207400  1
  H  218  1  0.74838800  0.76595800  0.08768100  1
  H  219  1  0.93009300  0.70594700  0.16937600  1
  H  220  1  0.74748000  0.74138500  0.13565100  1
  H  221  1  0.75999200  0.70597000  0.18127000  1
  H  247  1  0.12031300  0.92051600  0.84635600  1
  H  248  1  0.21371800  0.90647600  0.85683800  1
  H  249  1  0.30516200  0.90702000  0.87141900  1
  H  250  1  0.39888700  0.92179300  0.88082300  1
  H  251  1  0.37550500  0.09159800  0.87359900  1
  H  252  1  0.14349500  0.09074700  0.85040400  1
  H  253  1  0.30615700  0.07409400  0.80557300  1
  H  254  1  0.30671000  0.24375100  0.79208400  1
  H  255  1  0.27186900  0.25802400  0.83767200  1
  H  256  1  0.21174100  0.07637200  0.91937200  1
  H  257  1  0.24726400  0.25896300  0.88564300  1
  H  258  1  0.21184300  0.24647800  0.93126100  1
  H  284  1  0.39168200  0.58041000  0.34645100  1
  H  285  1  0.29826400  0.59429800  0.35697300  1
  H  286  1  0.20689300  0.59359000  0.37171200  1
  H  287  1  0.11316300  0.57865200  0.38108300  1
  H  288  1  0.13670600  0.40892300  0.37359600  1
  H  289  1  0.36873500  0.41012200  0.35037400  1
  H  290  1  0.20596500  0.42663800  0.30560100  1
  H  291  1  0.20544600  0.25698700  0.29205700  1
  H  292  1  0.24032900  0.24268500  0.33763800  1
  H  293  1  0.30036900  0.42426500  0.41940200  1
  H  294  1  0.26501500  0.24170700  0.38558700  1
  H  295  1  0.30036500  0.25415400  0.43122400  1
  H  307  1  0.93272000  0.05783000  0.21658400  1
  H  308  1  0.02984200  0.95614400  0.08864200  1
  H  309  1  0.03893100  0.05199000  0.09021200  1
  H  311  1  0.95025600  0.91181000  0.17653900  1
  H  322  1  0.57939800  0.44273800  0.71654800  1
  H  323  1  0.48249000  0.54437200  0.58854600  1
  H  324  1  0.47340000  0.44852000  0.59013200  1
  H  326  1  0.56196600  0.58873500  0.67647400  1
  H  337  1  0.94852600  0.42684800  0.46657300  1
  H  338  1  0.05022800  0.52402000  0.33863200  1
  H  339  1  0.95436200  0.53307400  0.34018900  1
  H  341  1  0.09454500  0.44443000  0.42653800  1
  H  352  1  0.56354600  0.07371400  0.96649100  1
  H  353  1  0.46201300  0.97643000  0.83854900  1
  H  354  1  0.55787000  0.96744400  0.84013200  1
  H  356  1  0.41756400  0.05601800  0.92643600  1
  H  367  1  0.57522100  0.04571200  0.50598500  1
  H  368  1  0.48229200  0.95154400  0.63627500  1
  H  369  1  0.47341200  0.04726400  0.63335800  1
  H  371  1  0.55851300  0.90203800  0.54828800  1
  H  382  1  0.93688200  0.45484600  0.00603300  1
  H  383  1  0.02984200  0.54895400  0.13633900  1
  H  384  1  0.03868900  0.45321400  0.13341300  1
  H  386  1  0.95369200  0.59851400  0.04832900  1
  H  397  1  0.55159500  0.43104800  0.25606900  1
  H  398  1  0.45735000  0.52421000  0.38629500  1
  H  399  1  0.55306600  0.53303300  0.38338700  1
  H  401  1  0.40786600  0.44795400  0.29830300  1
  H  412  1  0.96056200  0.06924200  0.75588700  1
  H  413  1  0.05479400  0.97687700  0.88626700  1
  H  414  1  0.95909600  0.96784200  0.88333800  1
  H  416  1  0.10424800  0.05287300  0.79821800  1
  H  427  1  0.04359200  0.22844200  0.29106700  1
  H  428  1  0.20859200  0.38353200  0.20240800  1
  H  429  1  0.23012400  0.40036000  0.24978400  1
  H  431  1  0.07652200  0.24176400  0.20753900  1
  H  442  1  0.46849200  0.27238300  0.79100200  1
  H  443  1  0.30364200  0.11694100  0.70242000  1
  H  444  1  0.28206900  0.10020600  0.74981000  1
  H  446  1  0.43559400  0.25883400  0.70748300  1
  H  457  1  0.77807400  0.53768600  0.54107100  1
  H  458  1  0.62306600  0.70283000  0.45243100  1
  H  459  1  0.60619400  0.72431600  0.49983400  1
  H  461  1  0.76486300  0.57079400  0.45755900  1
  H  472  1  0.73407200  0.96256800  0.04100200  1
  H  473  1  0.88928600  0.79759800  0.95237300  1
  H  474  1  0.90608000  0.77601600  0.99977500  1
  H  476  1  0.74744800  0.92957600  0.95748700  1
  H  487  1  0.46199500  0.22476300  0.43114000  1
  H  488  1  0.30024700  0.37819800  0.52215200  1
  H  489  1  0.27738000  0.39638000  0.47504200  1
  H  491  1  0.43149800  0.23603300  0.51499800  1
  H  502  1  0.05022700  0.27591800  0.93116200  1
  H  503  1  0.21185100  0.12231800  0.02215000  1
  H  504  1  0.23474000  0.10416700  0.97501800  1
  H  506  1  0.08067300  0.26456100  0.01502100  1
  H  517  1  0.73066200  0.54427000  0.18113200  1
  H  518  1  0.88395200  0.70613800  0.27213800  1
  H  519  1  0.90213200  0.72895900  0.22502500  1
  H  521  1  0.74186800  0.57477100  0.26499000  1
  H  532  1  0.78188500  0.95629000  0.68115000  1
  H  533  1  0.62812200  0.79466400  0.77207600  1
  H  534  1  0.61005700  0.77178200  0.72497200  1
  H  536  1  0.77029800  0.92594700  0.76501200  1
  N  303  1  0.96742000  0.06016100  0.17730800  1
  N  306  1  0.95536200  0.95090000  0.17626700  1
  N  318  1  0.54476600  0.44039800  0.67725300  1
  N  321  1  0.55685200  0.54965000  0.67620400  1
  N  333  1  0.94618700  0.46153700  0.42729300  1
  N  336  1  0.05546000  0.44953200  0.42626300  1
  N  348  1  0.56592200  0.03899200  0.92721900  1
  N  351  1  0.45665400  0.05094100  0.92616600  1
  N  363  1  0.54190400  0.05032900  0.54552700  1
  N  366  1  0.55360500  0.94114600  0.54806000  1
  N  378  1  0.97020400  0.45021000  0.04557200  1
  N  381  1  0.95857000  0.55940400  0.04810400  1
  N  393  1  0.55617200  0.46447100  0.29558800  1
  N  396  1  0.44697500  0.45283600  0.29808700  1
  N  408  1  0.95597800  0.03600500  0.79544700  1
  N  411  1  0.06515300  0.04788100  0.79798400  1
  N  423  1  0.10177100  0.28444100  0.27988800  1
  N  426  1  0.08335200  0.25488900  0.22629600  1
  N  438  1  0.41031800  0.21635300  0.77985800  1
  N  441  1  0.42875200  0.24575700  0.72624500  1
  N  453  1  0.72207000  0.59587600  0.52990700  1
  N  456  1  0.75168800  0.57756200  0.47631200  1
  N  468  1  0.79008000  0.90437800  0.02984600  1
  N  471  1  0.76058000  0.92277000  0.97624200  1
  N  483  1  0.40429800  0.28062600  0.44314800  1
  N  486  1  0.42417800  0.24966400  0.49638700  1
  N  498  1  0.10790800  0.22003600  0.94316000  1
  N  501  1  0.08799900  0.25094700  0.99640700  1
  N  513  1  0.78650600  0.60197600  0.19314600  1
  N  516  1  0.75550600  0.58209600  0.24638100  1
  N  528  1  0.72594800  0.89864300  0.69312900  1
  N  531  1  0.75674600  0.91858700  0.74639000  1
  O  310  1  0.91613100  0.95313400  0.22132100  1
  O  325  1  0.59600600  0.54743000  0.72127600  1
  O  340  1  0.05322600  0.41030300  0.47131800  1
  O  355  1  0.45883600  0.09021700  0.97121100  1
  O  370  1  0.59128000  0.94073600  0.50263900  1
  O  385  1  0.92089200  0.55983000  0.00268400  1
  O  400  1  0.44661400  0.41503400  0.25269300  1
  O  415  1  0.06551500  0.08545400  0.75254000  1
  O  430  1  0.01855400  0.19073400  0.24137200  1
  O  445  1  0.49354200  0.30996100  0.74128100  1
  O  460  1  0.81582800  0.51273600  0.49137600  1
  O  475  1  0.69642700  0.98759400  0.99129600  1
  O  490  1  0.48832200  0.18569700  0.48037300  1
  O  505  1  0.02387500  0.31493800  0.98040100  1
  O  520  1  0.69156400  0.51794000  0.23035800  1
  O  535  1  0.82079600  0.98267400  0.73040800  1
