# generated using pymatgen
data_CdH18C26(NO2)2
_symmetry_space_group_name_H-M   'P 1'
_cell_length_a   14.02037000
_cell_length_b   16.28865000
_cell_length_c   16.51333549
_cell_angle_alpha   106.77466998
_cell_angle_beta   114.98459618
_cell_angle_gamma   90.09241000
_symmetry_Int_Tables_number   1
_chemical_formula_structural   CdH18C26(NO2)2
_chemical_formula_sum   'Cd4 H72 C104 N8 O16'
_cell_volume   3239.52080284
_cell_formula_units_Z   4
loop_
 _symmetry_equiv_pos_site_id
 _symmetry_equiv_pos_as_xyz
  1  'x, y, z'
loop_
 _atom_site_type_symbol
 _atom_site_label
 _atom_site_symmetry_multiplicity
 _atom_site_fract_x
 _atom_site_fract_y
 _atom_site_fract_z
 _atom_site_occupancy
  Cd  Cd1  1  0.50976000  0.90703000  0.55503000  1.0
  Cd  Cd2  1  0.95469000  0.59286000  0.44490000  1.0
  Cd  Cd3  1  0.49023000  0.09297000  0.44497000  1.0
  Cd  Cd4  1  0.04531000  0.40714000  0.55510000  1.0
  H  H1  1  0.07575000  0.48350000  0.33287000  1.0
  H  H2  1  0.20503000  0.22113000  0.56626000  1.0
  H  H3  1  0.25743000  0.98339000  0.33322000  1.0
  H  H4  1  0.92035000  0.01753000  0.66767000  1.0
  H  H5  1  0.69175000  0.30722000  0.75841000  1.0
  H  H6  1  0.65937000  0.60393000  0.97370000  1.0
  H  H7  1  0.85225000  0.44657000  0.23868000  1.0
  H  H8  1  0.55803000  0.43680000  0.31484000  1.0
  H  H9  1  0.93336000  0.19285000  0.24147000  1.0
  H  H10  1  0.30825000  0.69279000  0.24159000  1.0
  H  H11  1  0.18120000  0.13511000  0.86396000  1.0
  H  H12  1  0.89311000  0.82161000  0.28168000  1.0
  H  H13  1  0.24330000  0.06323000  0.68530000  1.0
  H  H14  1  0.37979000  0.06205000  0.11928000  1.0
  H  H15  1  0.31476000  0.10414000  0.97356000  1.0
  H  H16  1  0.81879000  0.86490000  0.13604000  1.0
  H  H17  1  0.79497000  0.77887000  0.43374000  1.0
  H  H18  1  0.09631000  0.82229000  0.45564000  1.0
  H  H19  1  0.07965000  0.98248000  0.33233000  1.0
  H  H20  1  0.25537000  0.54466000  0.66473000  1.0
  H  H21  1  0.64075000  0.67780000  0.54445000  1.0
  H  H22  1  0.74729000  0.51759000  0.66793000  1.0
  H  H23  1  0.92423000  0.51651000  0.66712000  1.0
  H  H24  1  0.68236000  0.63506000  0.86405000  1.0
  H  H25  1  0.73212000  0.18397000  0.55578000  1.0
  H  H26  1  0.37986000  0.21133000  0.55751000  1.0
  H  H27  1  0.85345000  0.14190000  0.06584000  1.0
  H  H28  1  0.76833000  0.39596000  0.06541000  1.0
  H  H29  1  0.97255000  0.83002000  0.49214000  1.0
  H  H30  1  0.90369000  0.17772000  0.54436000  1.0
  H  H31  1  0.82253000  0.28869000  0.44277000  1.0
  H  H32  1  0.51961000  0.33014000  0.49200000  1.0
  H  H33  1  0.10689000  0.17839000  0.71832000  1.0
  H  H34  1  0.57686000  0.51404000  0.63597000  1.0
  H  H35  1  0.23166000  0.60404000  0.93459000  1.0
  H  H36  1  0.78775000  0.35816000  0.93401000  1.0
  H  H37  1  0.17631000  0.31622000  0.44419000  1.0
  H  H38  1  0.25270000  0.48241000  0.33207000  1.0
  H  H39  1  0.94117000  0.98588000  0.36419000  1.0
  H  H40  1  0.17746000  0.71132000  0.55722000  1.0
  H  H41  1  0.61402000  0.05327000  0.76156000  1.0
  H  H42  1  0.02744000  0.16999000  0.50786000  1.0
  H  H43  1  0.34062000  0.39607000  0.02630000  1.0
  H  H44  1  0.62014000  0.78867000  0.44249000  1.0
  H  H45  1  0.62021000  0.93795000  0.88072000  1.0
  H  H46  1  0.44197000  0.56320000  0.68516000  1.0
  H  H47  1  0.63896000  0.27900000  0.43395000  1.0
  H  H48  1  0.38597000  0.94673000  0.23844000  1.0
  H  H49  1  0.26008000  0.43821000  0.88058000  1.0
  H  H50  1  0.14654000  0.85810000  0.93415000  1.0
  H  H51  1  0.73992000  0.56179000  0.11942000  1.0
  H  H52  1  0.05881000  0.01413000  0.63580000  1.0
  H  H53  1  0.35925000  0.32220000  0.45555000  1.0
  H  H54  1  0.70389000  0.10382000  0.93478000  1.0
  H  H55  1  0.74257000  0.01661000  0.66678000  1.0
  H  H56  1  0.61154000  0.67832000  0.71841000  1.0
  H  H57  1  0.42313000  0.48596000  0.36403000  1.0
  H  H58  1  0.36104000  0.72100000  0.56605000  1.0
  H  H59  1  0.75670000  0.93678000  0.31470000  1.0
  H  H60  1  0.14775000  0.55343000  0.76132000  1.0
  H  H61  1  0.68524000  0.89586000  0.02644000  1.0
  H  H62  1  0.82369000  0.68378000  0.55581000  1.0
  H  H63  1  0.26787000  0.81603000  0.44422000  1.0
  H  H64  1  0.31764000  0.36494000  0.13595000  1.0
  H  H65  1  0.38845000  0.32169000  0.28159000  1.0
  H  H66  1  0.74463000  0.45534000  0.33527000  1.0
  H  H67  1  0.59052000  0.95558000  0.33514000  1.0
  H  H68  1  0.21225000  0.64184000  0.06599000  1.0
  H  H69  1  0.29611000  0.89618000  0.06522000  1.0
  H  H70  1  0.06663000  0.80716000  0.75853000  1.0
  H  H71  1  0.48039000  0.66987000  0.50800000  1.0
  H  H72  1  0.40948000  0.04443000  0.66486000  1.0
  C  C1  1  0.32308000  0.60244000  0.44995000  1.0
  C  C2  1  0.23857000  0.36926000  0.49682000  1.0
  C  C3  1  0.75580000  0.62798000  0.12167000  1.0
  C  C4  1  0.74809000  0.29176000  0.89646000  1.0
  C  C5  1  0.57526000  0.83817000  0.70459000  1.0
  C  C6  1  0.24202000  0.03477000  0.38343000  1.0
  C  C7  1  0.85864000  0.46518000  0.61689000  1.0
  C  C8  1  0.70063000  0.33246000  0.48661000  1.0
  C  C9  1  0.58145000  0.55660000  0.42661000  1.0
  C  C10  1  0.66204000  0.00285000  0.37958000  1.0
  C  C11  1  0.61387000  0.49322000  0.36874000  1.0
  C  C12  1  0.16319000  0.87329000  0.50400000  1.0
  C  C13  1  0.73356000  0.73761000  0.04352000  1.0
  C  C14  1  0.68934000  0.83748000  0.49092000  1.0
  C  C15  1  0.28242000  0.49734000  0.62028000  1.0
  C  C16  1  0.74169000  0.13089000  0.50310000  1.0
  C  C17  1  0.80172000  0.33749000  0.49120000  1.0
  C  C18  1  0.85152000  0.20830000  0.10349000  1.0
  C  C19  1  0.38612000  0.50678000  0.63126000  1.0
  C  C20  1  0.30996000  0.23768000  0.04334000  1.0
  C  C21  1  0.63401000  0.87185000  0.87849000  1.0
  C  C22  1  0.19828000  0.66251000  0.50880000  1.0
  C  C23  1  0.15488000  0.94343000  0.57351000  1.0
  C  C24  1  0.15817000  0.22514000  0.78656000  1.0
  C  C25  1  0.10278000  0.76359000  0.79840000  1.0
  C  C26  1  0.02770000  0.10919000  0.45821000  1.0
  C  C27  1  0.43051000  0.60910000  0.45819000  1.0
  C  C28  1  0.20088000  0.20129000  0.86806000  1.0
  C  C29  1  0.58904000  0.14769000  0.64340000  1.0
  C  C30  1  0.69550000  0.26364000  0.79837000  1.0
  C  C31  1  0.66709000  0.70126000  0.86817000  1.0
  C  C32  1  0.19568000  0.73497000  0.94788000  1.0
  C  C33  1  0.25190000  0.70824000  0.10354000  1.0
  C  C34  1  0.52811000  0.45255000  0.58665000  1.0
  C  C35  1  0.26642000  0.26239000  0.95647000  1.0
  C  C36  1  0.38730000  0.18904000  0.20895000  1.0
  C  C37  1  0.69004000  0.76233000  0.95666000  1.0
  C  C38  1  0.19404000  0.64883000  0.89687000  1.0
  C  C39  1  0.33796000  0.99716000  0.62042000  1.0
  C  C40  1  0.75234000  0.23498000  0.94792000  1.0
  C  C41  1  0.14775000  0.62031000  0.79877000  1.0
  C  C42  1  0.33291000  0.29875000  0.13183000  1.0
  C  C43  1  0.87298000  0.89747000  0.54984000  1.0
  C  C44  1  0.65925000  0.62671000  0.49611000  1.0
  C  C45  1  0.75951000  0.46522000  0.61652000  1.0
  C  C46  1  0.67691000  0.39757000  0.55005000  1.0
  C  C47  1  0.84512000  0.05657000  0.42649000  1.0
  C  C48  1  0.24420000  0.37203000  0.87833000  1.0
  C  C49  1  0.89795000  0.32252000  0.25156000  1.0
  C  C50  1  0.24766000  0.76502000  0.05208000  1.0
  C  C51  1  0.75797000  0.96524000  0.61657000  1.0
  C  C52  1  0.34873000  0.87977000  0.20107000  1.0
  C  C53  1  0.75478000  0.99327000  0.36858000  1.0
  C  C54  1  0.83680000  0.12671000  0.49600000  1.0
  C  C55  1  0.30449000  0.73636000  0.20163000  1.0
  C  C56  1  0.14136000  0.53482000  0.38311000  1.0
  C  C57  1  0.47189000  0.54745000  0.41335000  1.0
  C  C58  1  0.79912000  0.79871000  0.13194000  1.0
  C  C59  1  0.12935000  0.33839000  0.70450000  1.0
  C  C60  1  0.71195000  0.65194000  0.04043000  1.0
  C  C61  1  0.87064000  0.66162000  0.29550000  1.0
  C  C62  1  0.65127000  0.12023000  0.79893000  1.0
  C  C63  1  0.85675000  0.96518000  0.61624000  1.0
  C  C64  1  0.97229000  0.89081000  0.54179000  1.0
  C  C65  1  0.80596000  0.35118000  0.10313000  1.0
  C  C66  1  0.41095000  0.85231000  0.35660000  1.0
  C  C67  1  0.31066000  0.16252000  0.50908000  1.0
  C  C68  1  0.76143000  0.63075000  0.50318000  1.0
  C  C69  1  0.78587000  0.83237000  0.48636000  1.0
  C  C70  1  0.29668000  0.85127000  0.10300000  1.0
  C  C71  1  0.89722000  0.23642000  0.20160000  1.0
  C  C72  1  0.94643000  0.35244000  0.35673000  1.0
  C  C73  1  0.29937000  0.66754000  0.51339000  1.0
  C  C74  1  0.05357000  0.64756000  0.64327000  1.0
  C  C75  1  0.85224000  0.37969000  0.20122000  1.0
  C  C76  1  0.12702000  0.10253000  0.45016000  1.0
  C  C77  1  0.24522000  0.00674000  0.63142000  1.0
  C  C78  1  0.17829000  0.31106000  0.79090000  1.0
  C  C79  1  0.84182000  0.77487000  0.21343000  1.0
  C  C80  1  0.28805000  0.34806000  0.95957000  1.0
  C  C81  1  0.94154000  0.04741000  0.41335000  1.0
  C  C82  1  0.61269000  0.81096000  0.79105000  1.0
  C  C83  1  0.14325000  0.03482000  0.38376000  1.0
  C  C84  1  0.34075000  0.37329000  0.50389000  1.0
  C  C85  1  0.62846000  0.72508000  0.78668000  1.0
  C  C86  1  0.05846000  0.95260000  0.58665000  1.0
  C  C87  1  0.35385000  0.82247000  0.25148000  1.0
  C  C88  1  0.21412000  0.16763000  0.51363000  1.0
  C  C89  1  0.32862000  0.15211000  0.04025000  1.0
  C  C90  1  0.36599000  0.12816000  0.12151000  1.0
  C  C91  1  0.70332000  0.14873000  0.89700000  1.0
  C  C92  1  0.14847000  0.79171000  0.89651000  1.0
  C  C93  1  0.67138000  0.84790000  0.95975000  1.0
  C  C94  1  0.10204000  0.67748000  0.74843000  1.0
  C  C95  1  0.64615000  0.17753000  0.74852000  1.0
  C  C96  1  0.24048000  0.53478000  0.38348000  1.0
  C  C97  1  0.56949000  0.39090000  0.54181000  1.0
  C  C98  1  0.41854000  0.44340000  0.57339000  1.0
  C  C99  1  0.37154000  0.27493000  0.21332000  1.0
  C  C100  1  0.42474000  0.16183000  0.29541000  1.0
  C  C101  1  0.25831000  0.86911000  0.49690000  1.0
  C  C102  1  0.71757000  0.50266000  0.37972000  1.0
  C  C103  1  0.80432000  0.26504000  0.05212000  1.0
  C  C104  1  0.82171000  0.68894000  0.20910000  1.0
  N  N1  1  0.20929000  0.42954000  0.55433000  1.0
  N  N2  1  0.67516000  0.90264000  0.55507000  1.0
  N  N3  1  0.11997000  0.59741000  0.44461000  1.0
  N  N4  1  0.34511000  0.92932000  0.55443000  1.0
  N  N5  1  0.65489000  0.07068000  0.44557000  1.0
  N  N6  1  0.32484000  0.09736000  0.44493000  1.0
  N  N7  1  0.79070000  0.57046000  0.44567000  1.0
  N  N8  1  0.88003000  0.40259000  0.55539000  1.0
  O  O1  1  0.07511000  0.28160000  0.62447000  1.0
  O  O2  1  0.54772000  0.06774000  0.59920000  1.0
  O  O3  1  0.04978000  0.56746000  0.59900000  1.0
  O  O4  1  0.85563000  0.58085000  0.28480000  1.0
  O  O5  1  0.98288000  0.29801000  0.40045000  1.0
  O  O6  1  0.56939000  0.91872000  0.71485000  1.0
  O  O7  1  0.55094000  0.78135000  0.62485000  1.0
  O  O8  1  0.44906000  0.21865000  0.37515000  1.0
  O  O9  1  0.43061000  0.08128000  0.28515000  1.0
  O  O10  1  0.92488000  0.71841000  0.37553000  1.0
  O  O11  1  0.14437000  0.41916000  0.71520000  1.0
  O  O12  1  0.01711000  0.70199000  0.59955000  1.0
  O  O13  1  0.58225000  0.20210000  0.59968000  1.0
  O  O14  1  0.95022000  0.43254000  0.40100000  1.0
  O  O15  1  0.41775000  0.79791000  0.40032000  1.0
  O  O16  1  0.45228000  0.93226000  0.40080000  1.0
