# generated using pymatgen
data_Co2H36C53(NO)8
_symmetry_space_group_name_H-M   'P 1'
_cell_length_a   14.18106000
_cell_length_b   20.36096000
_cell_length_c   21.39227686
_cell_angle_alpha   108.38561726
_cell_angle_beta   109.22785383
_cell_angle_gamma   90.09310000
_symmetry_Int_Tables_number   1
_chemical_formula_structural   Co2H36C53(NO)8
_chemical_formula_sum   'Co8 H144 C212 N32 O32'
_cell_volume   5496.03977750
_cell_formula_units_Z   4
loop_
 _symmetry_equiv_pos_site_id
 _symmetry_equiv_pos_as_xyz
  1  'x, y, z'
loop_
 _atom_site_type_symbol
 _atom_site_label
 _atom_site_symmetry_multiplicity
 _atom_site_fract_x
 _atom_site_fract_y
 _atom_site_fract_z
 _atom_site_occupancy
  Co  Co1  1  0.05019000  0.11648000  0.17058000  1.0
  Co  Co2  1  0.87932000  0.33536000  0.44326000  1.0
  Co  Co3  1  0.88006000  0.38283000  0.82988000  1.0
  Co  Co4  1  0.43606000  0.16654000  0.55684000  1.0
  Co  Co5  1  0.94981000  0.88352000  0.82942000  1.0
  Co  Co6  1  0.12067000  0.66464000  0.55673000  1.0
  Co  Co7  1  0.11994000  0.61717000  0.17012000  1.0
  Co  Co8  1  0.56393000  0.83347000  0.44315000  1.0
  H  H1  1  0.06502000  0.36581000  0.15031000  1.0
  H  H2  1  0.24979000  0.52513000  0.33967000  1.0
  H  H3  1  0.28449000  0.43681000  0.40120000  1.0
  H  H4  1  0.20689000  0.31404000  0.33672000  1.0
  H  H5  1  0.09764000  0.17617000  0.06093000  1.0
  H  H6  1  0.29485000  0.02054000  0.03561000  1.0
  H  H7  1  0.20304000  0.00858000  0.12905000  1.0
  H  H8  1  0.06992000  0.14311000  0.93435000  1.0
  H  H9  1  0.09940000  0.17237000  0.83874000  1.0
  H  H10  1  0.40840000  0.13482000  0.91425000  1.0
  H  H11  1  0.38030000  0.11030000  0.01361000  1.0
  H  H12  1  0.72672000  0.28086000  0.84198000  1.0
  H  H13  1  0.55412000  0.44898000  0.88370000  1.0
  H  H14  1  0.73994000  0.49820000  0.88590000  1.0
  H  H15  1  0.52936000  0.24483000  0.74353000  1.0
  H  H16  1  0.38214000  0.16292000  0.71771000  1.0
  H  H17  1  0.37650000  0.26608000  0.92585000  1.0
  H  H18  1  0.52176000  0.34999000  0.95026000  1.0
  H  H19  1  0.04523000  0.26703000  0.54054000  1.0
  H  H20  1  0.80304000  0.37453000  0.57561000  1.0
  H  H21  1  0.89178000  0.32673000  0.68708000  1.0
  H  H22  1  0.06454000  0.16776000  0.58421000  1.0
  H  H23  1  0.18343000  0.11365000  0.65812000  1.0
  H  H24  1  0.18541000  0.27971000  0.84340000  1.0
  H  H25  1  0.06673000  0.33547000  0.76843000  1.0
  H  H26  1  0.11453000  0.82391000  0.64823000  1.0
  H  H27  1  0.34887000  0.71526000  0.60227000  1.0
  H  H28  1  0.42334000  0.85543000  0.67147000  1.0
  H  H29  1  0.11252000  0.93243000  0.68666000  1.0
  H  H30  1  0.11661000  0.05765000  0.73931000  1.0
  H  H31  1  0.43572000  0.08496000  0.78295000  1.0
  H  H32  1  0.43290000  0.95938000  0.73038000  1.0
  H  H33  1  0.89716000  0.54252000  0.50781000  1.0
  H  H34  1  0.72951000  0.71817000  0.52590000  1.0
  H  H35  1  0.56908000  0.63746000  0.47421000  1.0
  H  H36  1  0.57492000  0.50847000  0.43966000  1.0
  H  H37  1  0.91430000  0.13362000  0.84971000  1.0
  H  H38  1  0.91045000  0.97519000  0.65986000  1.0
  H  H39  1  0.88252000  0.06360000  0.59849000  1.0
  H  H40  1  0.86832000  0.18602000  0.66329000  1.0
  H  H41  1  0.03692000  0.32367000  0.93958000  1.0
  H  H42  1  0.25959000  0.47899000  0.96392000  1.0
  H  H43  1  0.07491000  0.49112000  0.87090000  1.0
  H  H44  1  0.13575000  0.35605000  0.06558000  1.0
  H  H45  1  0.26065000  0.32706000  0.16097000  1.0
  H  H46  1  0.49386000  0.36475000  0.08476000  1.0
  H  H47  1  0.36669000  0.38916000  0.98559000  1.0
  H  H48  1  0.88551000  0.21952000  0.15829000  1.0
  H  H49  1  0.67012000  0.05151000  0.11606000  1.0
  H  H50  1  0.85339000  0.00208000  0.11403000  1.0
  H  H51  1  0.78500000  0.25556000  0.25656000  1.0
  H  H52  1  0.66313000  0.33709000  0.28185000  1.0
  H  H53  1  0.45146000  0.23386000  0.07339000  1.0
  H  H54  1  0.57278000  0.15031000  0.04929000  1.0
  H  H55  1  0.50379000  0.23365000  0.45909000  1.0
  H  H56  1  0.22733000  0.12496000  0.42438000  1.0
  H  H57  1  0.20477000  0.17215000  0.31228000  1.0
  H  H58  1  0.47991000  0.33186000  0.41523000  1.0
  H  H59  1  0.52473000  0.38630000  0.34117000  1.0
  H  H60  1  0.34227000  0.21996000  0.15602000  1.0
  H  H61  1  0.29841000  0.16401000  0.23120000  1.0
  H  H62  1  0.46628000  0.67511000  0.35074000  1.0
  H  H63  1  0.74671000  0.78420000  0.39746000  1.0
  H  H64  1  0.75228000  0.64392000  0.32829000  1.0
  H  H65  1  0.42631000  0.56706000  0.31333000  1.0
  H  H66  1  0.37707000  0.44187000  0.26034000  1.0
  H  H67  1  0.65212000  0.41459000  0.21587000  1.0
  H  H68  1  0.70235000  0.54020000  0.26861000  1.0
  H  H69  1  0.39174000  0.95624000  0.49242000  1.0
  H  H70  1  0.20203000  0.78283000  0.47563000  1.0
  H  H71  1  0.09405000  0.86499000  0.52640000  1.0
  H  H72  1  0.13752000  0.99377000  0.56050000  1.0
  H  H73  1  0.93497000  0.63419000  0.84968000  1.0
  H  H74  1  0.75021000  0.47488000  0.66033000  1.0
  H  H75  1  0.71551000  0.56319000  0.59880000  1.0
  H  H76  1  0.79311000  0.68596000  0.66328000  1.0
  H  H77  1  0.90236000  0.82383000  0.93907000  1.0
  H  H78  1  0.70515000  0.97946000  0.96439000  1.0
  H  H79  1  0.79696000  0.99142000  0.87094000  1.0
  H  H80  1  0.93008000  0.85689000  0.06565000  1.0
  H  H81  1  0.90060000  0.82763000  0.16126000  1.0
  H  H82  1  0.59160000  0.86518000  0.08575000  1.0
  H  H83  1  0.61970000  0.88970000  0.98639000  1.0
  H  H84  1  0.27328000  0.71915000  0.15802000  1.0
  H  H85  1  0.44588000  0.55102000  0.11630000  1.0
  H  H86  1  0.26006000  0.50180000  0.11410000  1.0
  H  H87  1  0.47064000  0.75517000  0.25647000  1.0
  H  H88  1  0.61786000  0.83709000  0.28229000  1.0
  H  H89  1  0.62350000  0.73392000  0.07415000  1.0
  H  H90  1  0.47824000  0.65001000  0.04974000  1.0
  H  H91  1  0.95477000  0.73297000  0.45946000  1.0
  H  H92  1  0.19696000  0.62547000  0.42439000  1.0
  H  H93  1  0.10822000  0.67328000  0.31292000  1.0
  H  H94  1  0.93546000  0.83225000  0.41579000  1.0
  H  H95  1  0.81657000  0.88635000  0.34188000  1.0
  H  H96  1  0.81459000  0.72029000  0.15660000  1.0
  H  H97  1  0.93327000  0.66453000  0.23157000  1.0
  H  H98  1  0.88547000  0.17610000  0.35177000  1.0
  H  H99  1  0.65113000  0.28474000  0.39773000  1.0
  H  H100  1  0.57666000  0.14458000  0.32853000  1.0
  H  H101  1  0.88748000  0.06757000  0.31334000  1.0
  H  H102  1  0.88339000  0.94235000  0.26069000  1.0
  H  H103  1  0.56427000  0.91505000  0.21704000  1.0
  H  H104  1  0.56710000  0.04062000  0.26962000  1.0
  H  H105  1  0.10284000  0.45748000  0.49219000  1.0
  H  H106  1  0.27048000  0.28183000  0.47409000  1.0
  H  H107  1  0.43092000  0.36255000  0.52579000  1.0
  H  H108  1  0.42508000  0.49153000  0.56034000  1.0
  H  H109  1  0.08570000  0.86639000  0.15029000  1.0
  H  H110  1  0.08955000  0.02481000  0.34014000  1.0
  H  H111  1  0.11748000  0.93640000  0.40151000  1.0
  H  H112  1  0.13168000  0.81398000  0.33671000  1.0
  H  H113  1  0.96307000  0.67633000  0.06041000  1.0
  H  H114  1  0.74041000  0.52101000  0.03608000  1.0
  H  H115  1  0.92509000  0.50889000  0.12910000  1.0
  H  H116  1  0.86424000  0.64395000  0.93441000  1.0
  H  H117  1  0.73935000  0.67294000  0.83903000  1.0
  H  H118  1  0.50615000  0.63525000  0.91524000  1.0
  H  H119  1  0.63331000  0.61084000  0.01441000  1.0
  H  H120  1  0.11449000  0.78048000  0.84171000  1.0
  H  H121  1  0.32988000  0.94849000  0.88394000  1.0
  H  H122  1  0.14661000  0.99792000  0.88597000  1.0
  H  H123  1  0.21499000  0.74444000  0.74343000  1.0
  H  H124  1  0.33687000  0.66292000  0.71814000  1.0
  H  H125  1  0.54854000  0.76614000  0.92661000  1.0
  H  H126  1  0.42722000  0.84970000  0.95071000  1.0
  H  H127  1  0.49621000  0.76635000  0.54091000  1.0
  H  H128  1  0.77267000  0.87504000  0.57562000  1.0
  H  H129  1  0.79523000  0.82786000  0.68771000  1.0
  H  H130  1  0.52010000  0.66814000  0.58477000  1.0
  H  H131  1  0.47526000  0.61371000  0.65882000  1.0
  H  H132  1  0.65773000  0.78004000  0.84397000  1.0
  H  H133  1  0.70159000  0.83599000  0.76880000  1.0
  H  H134  1  0.53372000  0.32490000  0.64926000  1.0
  H  H135  1  0.25329000  0.21581000  0.60254000  1.0
  H  H136  1  0.24772000  0.35608000  0.67171000  1.0
  H  H137  1  0.57369000  0.43294000  0.68667000  1.0
  H  H138  1  0.62293000  0.55813000  0.73965000  1.0
  H  H139  1  0.34787000  0.58542000  0.78412000  1.0
  H  H140  1  0.29766000  0.45980000  0.73139000  1.0
  H  H141  1  0.60826000  0.04376000  0.50758000  1.0
  H  H142  1  0.79797000  0.21717000  0.52437000  1.0
  H  H143  1  0.90595000  0.13502000  0.47360000  1.0
  H  H144  1  0.86248000  0.00623000  0.43950000  1.0
  C  C1  1  0.08581000  0.25794000  0.19844000  1.0
  C  C2  1  0.13155000  0.33193000  0.23925000  1.0
  C  C3  1  0.11335000  0.38155000  0.20518000  1.0
  C  C4  1  0.15616000  0.45089000  0.24101000  1.0
  C  C5  1  0.13727000  0.50198000  0.20254000  1.0
  C  C6  1  0.21753000  0.47091000  0.31214000  1.0
  C  C7  1  0.23667000  0.42157000  0.34627000  1.0
  C  C8  1  0.19349000  0.35244000  0.31017000  1.0
  C  C9  1  0.13788000  0.13189000  0.06605000  1.0
  C  C10  1  0.24354000  0.05153000  0.05651000  1.0
  C  C11  1  0.19730000  0.04587000  0.10188000  1.0
  C  C12  1  0.22372000  0.12660000  0.98080000  1.0
  C  C13  1  0.14536000  0.14519000  0.93228000  1.0
  C  C14  1  0.16243000  0.16067000  0.87751000  1.0
  C  C15  1  0.25656000  0.15677000  0.86973000  1.0
  C  C16  1  0.33488000  0.13880000  0.91982000  1.0
  C  C17  1  0.31937000  0.12421000  0.97520000  1.0
  C  C18  1  0.27366000  0.15957000  0.80306000  1.0
  C  C19  1  0.70546000  0.33320000  0.85288000  1.0
  C  C20  1  0.61831000  0.42279000  0.87736000  1.0
  C  C21  1  0.70928000  0.44624000  0.87770000  1.0
  C  C22  1  0.53394000  0.30231000  0.84836000  1.0
  C  C23  1  0.49609000  0.24881000  0.78348000  1.0
  C  C24  1  0.41368000  0.20229000  0.76961000  1.0
  C  C25  1  0.37006000  0.20702000  0.82085000  1.0
  C  C26  1  0.40950000  0.26105000  0.88560000  1.0
  C  C27  1  0.49072000  0.30877000  0.89959000  1.0
  C  C28  1  0.99168000  0.29000000  0.56495000  1.0
  C  C29  1  0.86808000  0.34662000  0.58606000  1.0
  C  C30  1  0.91161000  0.32401000  0.64178000  1.0
  C  C31  1  0.05727000  0.25532000  0.67143000  1.0
  C  C32  1  0.09020000  0.19268000  0.64093000  1.0
  C  C33  1  0.15717000  0.16131000  0.68367000  1.0
  C  C34  1  0.19124000  0.19081000  0.75697000  1.0
  C  C35  1  0.15797000  0.25419000  0.78670000  1.0
  C  C36  1  0.09139000  0.28631000  0.74464000  1.0
  C  C37  1  0.18866000  0.81394000  0.64621000  1.0
  C  C38  1  0.31337000  0.75996000  0.62329000  1.0
  C  C39  1  0.34988000  0.82872000  0.65779000  1.0
  C  C40  1  0.27280000  0.93622000  0.70438000  1.0
  C  C41  1  0.18399000  0.96505000  0.70746000  1.0
  C  C42  1  0.18645000  0.03661000  0.73727000  1.0
  C  C43  1  0.27624000  0.08178000  0.76454000  1.0
  C  C44  1  0.36433000  0.05219000  0.76191000  1.0
  C  C45  1  0.36302000  0.98025000  0.73209000  1.0
  C  C46  1  0.74378000  0.44037000  0.45114000  1.0
  C  C47  1  0.73663000  0.51734000  0.47008000  1.0
  C  C48  1  0.82539000  0.56336000  0.50023000  1.0
  C  C49  1  0.82298000  0.63555000  0.52150000  1.0
  C  C50  1  0.92019000  0.68320000  0.55329000  1.0
  C  C51  1  0.72992000  0.66200000  0.51075000  1.0
  C  C52  1  0.64093000  0.61640000  0.48164000  1.0
  C  C53  1  0.64385000  0.54422000  0.46171000  1.0
  C  C54  1  0.88566000  0.24170000  0.80139000  1.0
  C  C55  1  0.89104000  0.16776000  0.76072000  1.0
  C  C56  1  0.90765000  0.11807000  0.79478000  1.0
  C  C57  1  0.91504000  0.04887000  0.75873000  1.0
  C  C58  1  0.93413000  0.99709000  0.79639000  1.0
  C  C59  1  0.90535000  0.02926000  0.68754000  1.0
  C  C60  1  0.88973000  0.07866000  0.65349000  1.0
  C  C61  1  0.88192000  0.14753000  0.68973000  1.0
  C  C62  1  0.07202000  0.36782000  0.93409000  1.0
  C  C63  1  0.18732000  0.44810000  0.94326000  1.0
  C  C64  1  0.09589000  0.45377000  0.89804000  1.0
  C  C65  1  0.24296000  0.37294000  0.01884000  1.0
  C  C66  1  0.21315000  0.35417000  0.06743000  1.0
  C  C67  1  0.28491000  0.33875000  0.12207000  1.0
  C  C68  1  0.38669000  0.34275000  0.12961000  1.0
  C  C69  1  0.41486000  0.36077000  0.07938000  1.0
  C  C70  1  0.34408000  0.37538000  0.02415000  1.0
  C  C71  1  0.47031000  0.34012000  0.19619000  1.0
  C  C72  1  0.85312000  0.16720000  0.14748000  1.0
  C  C73  1  0.74086000  0.07765000  0.12255000  1.0
  C  C74  1  0.83141000  0.05413000  0.12242000  1.0
  C  C75  1  0.68585000  0.19807000  0.15143000  1.0
  C  C76  1  0.71223000  0.25148000  0.21636000  1.0
  C  C77  1  0.64344000  0.29777000  0.22997000  1.0
  C  C78  1  0.54906000  0.29288000  0.17851000  1.0
  C  C79  1  0.52439000  0.23898000  0.11374000  1.0
  C  C80  1  0.59188000  0.19149000  0.09995000  1.0
  C  C81  1  0.42593000  0.21047000  0.43475000  1.0
  C  C82  1  0.28165000  0.15315000  0.41378000  1.0
  C  C83  1  0.26965000  0.17523000  0.35770000  1.0
  C  C84  1  0.38560000  0.24431000  0.32799000  1.0
  C  C85  1  0.44895000  0.30702000  0.35850000  1.0
  C  C86  1  0.47315000  0.33850000  0.31571000  1.0
  C  C87  1  0.43403000  0.30892000  0.24242000  1.0
  C  C88  1  0.37128000  0.24543000  0.21273000  1.0
  C  C89  1  0.34672000  0.21324000  0.25484000  1.0
  C  C90  1  0.54255000  0.68523000  0.35303000  1.0
  C  C91  1  0.69032000  0.73938000  0.37634000  1.0
  C  C92  1  0.69246000  0.67065000  0.34185000  1.0
  C  C93  1  0.56849000  0.56319000  0.29499000  1.0
  C  C94  1  0.47661000  0.53443000  0.29214000  1.0
  C  C95  1  0.44891000  0.46293000  0.26218000  1.0
  C  C96  1  0.51126000  0.41787000  0.23462000  1.0
  C  C97  1  0.60200000  0.44740000  0.23709000  1.0
  C  C98  1  0.63079000  0.51928000  0.26700000  1.0
  C  C99  1  0.29497000  0.06011000  0.54852000  1.0
  C  C100  1  0.26868000  0.98315000  0.53001000  1.0
  C  C101  1  0.32687000  0.93634000  0.50018000  1.0
  C  C102  1  0.30214000  0.86423000  0.47963000  1.0
  C  C103  1  0.36746000  0.81551000  0.44865000  1.0
  C  C104  1  0.21883000  0.83886000  0.49038000  1.0
  C  C105  1  0.15936000  0.88522000  0.51908000  1.0
  C  C106  1  0.18369000  0.95721000  0.53863000  1.0
  C  C107  1  0.91419000  0.74206000  0.80156000  1.0
  C  C108  1  0.86844000  0.66808000  0.76074000  1.0
  C  C109  1  0.88665000  0.61846000  0.79482000  1.0
  C  C110  1  0.84384000  0.54911000  0.75899000  1.0
  C  C111  1  0.86274000  0.49803000  0.79746000  1.0
  C  C112  1  0.78247000  0.52909000  0.68786000  1.0
  C  C113  1  0.76333000  0.57844000  0.65373000  1.0
  C  C114  1  0.80651000  0.64756000  0.68983000  1.0
  C  C115  1  0.86212000  0.86811000  0.93395000  1.0
  C  C116  1  0.75645000  0.94847000  0.94348000  1.0
  C  C117  1  0.80270000  0.95413000  0.89812000  1.0
  C  C118  1  0.77628000  0.87341000  0.01920000  1.0
  C  C119  1  0.85464000  0.85481000  0.06772000  1.0
  C  C120  1  0.83756000  0.83933000  0.12248000  1.0
  C  C121  1  0.74344000  0.84324000  0.13027000  1.0
  C  C122  1  0.66513000  0.86121000  0.08018000  1.0
  C  C123  1  0.68063000  0.87579000  0.02480000  1.0
  C  C124  1  0.72634000  0.84044000  0.19694000  1.0
  C  C125  1  0.29454000  0.66680000  0.14712000  1.0
  C  C126  1  0.38170000  0.57721000  0.12264000  1.0
  C  C127  1  0.29072000  0.55376000  0.12230000  1.0
  C  C128  1  0.46606000  0.69770000  0.15164000  1.0
  C  C129  1  0.50391000  0.75119000  0.21652000  1.0
  C  C130  1  0.58632000  0.79772000  0.23039000  1.0
  C  C131  1  0.62994000  0.79298000  0.17915000  1.0
  C  C132  1  0.59051000  0.73896000  0.11440000  1.0
  C  C133  1  0.50928000  0.69123000  0.10041000  1.0
  C  C134  1  0.00832000  0.71000000  0.43505000  1.0
  C  C135  1  0.13191000  0.65339000  0.41393000  1.0
  C  C136  1  0.08839000  0.67600000  0.35822000  1.0
  C  C137  1  0.94273000  0.74469000  0.32857000  1.0
  C  C138  1  0.90980000  0.80733000  0.35907000  1.0
  C  C139  1  0.84283000  0.83869000  0.31633000  1.0
  C  C140  1  0.80876000  0.80920000  0.24303000  1.0
  C  C141  1  0.84203000  0.74581000  0.21330000  1.0
  C  C142  1  0.90861000  0.71370000  0.25536000  1.0
  C  C143  1  0.81134000  0.18606000  0.35379000  1.0
  C  C144  1  0.68663000  0.24005000  0.37671000  1.0
  C  C145  1  0.65012000  0.17128000  0.34221000  1.0
  C  C146  1  0.72720000  0.06378000  0.29562000  1.0
  C  C147  1  0.81600000  0.03495000  0.29253000  1.0
  C  C148  1  0.81356000  0.96340000  0.26273000  1.0
  C  C149  1  0.72375000  0.91823000  0.23545000  1.0
  C  C150  1  0.63567000  0.94781000  0.23809000  1.0
  C  C151  1  0.63698000  0.01976000  0.26791000  1.0
  C  C152  1  0.25622000  0.55964000  0.54886000  1.0
  C  C153  1  0.26337000  0.48266000  0.52992000  1.0
  C  C154  1  0.17461000  0.43664000  0.49977000  1.0
  C  C155  1  0.17702000  0.36445000  0.47850000  1.0
  C  C156  1  0.07980000  0.31681000  0.44670000  1.0
  C  C157  1  0.27007000  0.33800000  0.48924000  1.0
  C  C158  1  0.35907000  0.38360000  0.51836000  1.0
  C  C159  1  0.35615000  0.45578000  0.53829000  1.0
  C  C160  1  0.11434000  0.75831000  0.19861000  1.0
  C  C161  1  0.10896000  0.83224000  0.23928000  1.0
  C  C162  1  0.09235000  0.88194000  0.20522000  1.0
  C  C163  1  0.08497000  0.95114000  0.24127000  1.0
  C  C164  1  0.06586000  0.00291000  0.20360000  1.0
  C  C165  1  0.09465000  0.97075000  0.31246000  1.0
  C  C166  1  0.11027000  0.92135000  0.34651000  1.0
  C  C167  1  0.11808000  0.85247000  0.31027000  1.0
  C  C168  1  0.92797000  0.63219000  0.06590000  1.0
  C  C169  1  0.81268000  0.55191000  0.05674000  1.0
  C  C170  1  0.90411000  0.54624000  0.10196000  1.0
  C  C171  1  0.75704000  0.62706000  0.98116000  1.0
  C  C172  1  0.78685000  0.64584000  0.93257000  1.0
  C  C173  1  0.71508000  0.66125000  0.87792000  1.0
  C  C174  1  0.61331000  0.65725000  0.87039000  1.0
  C  C175  1  0.58514000  0.63923000  0.92062000  1.0
  C  C176  1  0.65592000  0.62462000  0.97585000  1.0
  C  C177  1  0.52969000  0.65989000  0.80381000  1.0
  C  C178  1  0.14688000  0.83281000  0.85252000  1.0
  C  C179  1  0.25914000  0.92236000  0.87745000  1.0
  C  C180  1  0.16859000  0.94588000  0.87758000  1.0
  C  C181  1  0.31414000  0.80193000  0.84856000  1.0
  C  C182  1  0.28777000  0.74852000  0.78364000  1.0
  C  C183  1  0.35656000  0.70223000  0.77003000  1.0
  C  C184  1  0.45094000  0.70712000  0.82149000  1.0
  C  C185  1  0.47560000  0.76103000  0.88625000  1.0
  C  C186  1  0.40812000  0.80851000  0.90005000  1.0
  C  C187  1  0.57407000  0.78953000  0.56525000  1.0
  C  C188  1  0.71834000  0.84685000  0.58621000  1.0
  C  C189  1  0.73035000  0.82477000  0.64230000  1.0
  C  C190  1  0.61439000  0.75570000  0.67200000  1.0
  C  C191  1  0.55105000  0.69298000  0.64150000  1.0
  C  C192  1  0.52685000  0.66150000  0.68429000  1.0
  C  C193  1  0.56596000  0.69108000  0.75757000  1.0
  C  C194  1  0.62873000  0.75458000  0.78727000  1.0
  C  C195  1  0.65328000  0.78677000  0.74516000  1.0
  C  C196  1  0.45745000  0.31478000  0.64697000  1.0
  C  C197  1  0.30968000  0.26062000  0.62366000  1.0
  C  C198  1  0.30754000  0.32936000  0.65815000  1.0
  C  C199  1  0.43151000  0.43682000  0.70501000  1.0
  C  C200  1  0.52339000  0.46558000  0.70786000  1.0
  C  C201  1  0.55109000  0.53707000  0.73782000  1.0
  C  C202  1  0.48874000  0.58213000  0.76538000  1.0
  C  C203  1  0.39800000  0.55261000  0.76291000  1.0
  C  C204  1  0.36921000  0.48072000  0.73300000  1.0
  C  C205  1  0.70503000  0.93990000  0.45148000  1.0
  C  C206  1  0.73132000  0.01685000  0.46999000  1.0
  C  C207  1  0.67313000  0.06367000  0.49982000  1.0
  C  C208  1  0.69786000  0.13577000  0.52037000  1.0
  C  C209  1  0.63254000  0.18449000  0.55134000  1.0
  C  C210  1  0.78116000  0.16114000  0.50961000  1.0
  C  C211  1  0.84064000  0.11478000  0.48092000  1.0
  C  C212  1  0.81631000  0.04279000  0.46137000  1.0
  N  N1  1  0.13221000  0.09641000  0.10773000  1.0
  N  N2  1  0.20486000  0.10609000  0.03363000  1.0
  N  N3  1  0.76292000  0.39003000  0.86264000  1.0
  N  N4  1  0.61662000  0.35077000  0.86126000  1.0
  N  N5  1  0.91848000  0.32535000  0.53862000  1.0
  N  N6  1  0.99001000  0.28820000  0.62802000  1.0
  N  N7  1  0.21293000  0.75142000  0.61650000  1.0
  N  N8  1  0.27076000  0.86316000  0.67253000  1.0
  N  N9  1  0.02483000  0.40321000  0.89235000  1.0
  N  N10  1  0.17135000  0.39357000  0.96625000  1.0
  N  N11  1  0.90053000  0.11030000  0.13782000  1.0
  N  N12  1  0.75569000  0.14967000  0.13878000  1.0
  N  N13  1  0.37907000  0.17526000  0.46136000  1.0
  N  N14  1  0.36157000  0.21143000  0.37142000  1.0
  N  N15  1  0.59656000  0.74775000  0.38291000  1.0
  N  N16  1  0.59850000  0.63617000  0.32690000  1.0
  N  N17  1  0.86779000  0.90360000  0.89227000  1.0
  N  N18  1  0.79514000  0.89391000  0.96637000  1.0
  N  N19  1  0.23708000  0.60998000  0.13736000  1.0
  N  N20  1  0.38338000  0.64923000  0.13874000  1.0
  N  N21  1  0.08152000  0.67465000  0.46138000  1.0
  N  N22  1  0.00999000  0.71180000  0.37198000  1.0
  N  N23  1  0.78706000  0.24858000  0.38349000  1.0
  N  N24  1  0.72924000  0.13685000  0.32747000  1.0
  N  N25  1  0.97516000  0.59679000  0.10764000  1.0
  N  N26  1  0.82865000  0.60643000  0.03375000  1.0
  N  N27  1  0.09947000  0.88970000  0.86218000  1.0
  N  N28  1  0.24431000  0.85033000  0.86122000  1.0
  N  N29  1  0.62093000  0.82474000  0.53864000  1.0
  N  N30  1  0.63843000  0.78857000  0.62858000  1.0
  N  N31  1  0.40344000  0.25226000  0.61709000  1.0
  N  N32  1  0.40150000  0.36384000  0.67310000  1.0
  O  O1  1  0.10343000  0.21397000  0.23266000  1.0
  O  O2  1  0.03347000  0.24064000  0.13418000  1.0
  O  O3  1  0.15410000  0.56788000  0.24015000  1.0
  O  O4  1  0.10647000  0.48156000  0.13633000  1.0
  O  O5  1  0.82918000  0.42283000  0.44401000  1.0
  O  O6  1  0.67281000  0.39907000  0.44449000  1.0
  O  O7  1  0.99930000  0.65228000  0.57482000  1.0
  O  O8  1  0.92228000  0.74538000  0.55567000  1.0
  O  O9  1  0.86689000  0.28536000  0.76675000  1.0
  O  O10  1  0.89919000  0.25940000  0.86596000  1.0
  O  O11  1  0.91496000  0.93143000  0.75821000  1.0
  O  O12  1  0.96760000  0.01624000  0.86263000  1.0
  O  O13  1  0.38730000  0.07772000  0.55535000  1.0
  O  O14  1  0.23059000  0.10133000  0.55505000  1.0
  O  O15  1  0.42474000  0.84494000  0.42556000  1.0
  O  O16  1  0.36718000  0.75391000  0.44815000  1.0
  O  O17  1  0.89657000  0.78603000  0.76734000  1.0
  O  O18  1  0.96653000  0.75937000  0.86582000  1.0
  O  O19  1  0.84590000  0.43213000  0.75985000  1.0
  O  O20  1  0.89353000  0.51844000  0.86367000  1.0
  O  O21  1  0.17081000  0.57717000  0.55598000  1.0
  O  O22  1  0.32719000  0.60093000  0.55551000  1.0
  O  O23  1  0.00071000  0.34772000  0.42518000  1.0
  O  O24  1  0.07773000  0.25463000  0.44433000  1.0
  O  O25  1  0.13310000  0.71464000  0.23324000  1.0
  O  O26  1  0.10081000  0.74061000  0.13404000  1.0
  O  O27  1  0.08504000  0.06857000  0.24179000  1.0
  O  O28  1  0.03240000  0.98377000  0.13737000  1.0
  O  O29  1  0.61269000  0.92228000  0.44464000  1.0
  O  O30  1  0.76941000  0.89868000  0.44495000  1.0
  O  O31  1  0.57526000  0.15507000  0.57444000  1.0
  O  O32  1  0.63282000  0.24610000  0.55185000  1.0
