# generated using pymatgen
data_Zn5P5H30C30(N3O10)2
_symmetry_space_group_name_H-M   'P 1'
_cell_length_a   9.81063000
_cell_length_b   9.88383000
_cell_length_c   23.59802000
_cell_angle_alpha   78.40707000
_cell_angle_beta   79.37273000
_cell_angle_gamma   89.75291000
_symmetry_Int_Tables_number   1
_chemical_formula_structural   Zn5P5H30C30(N3O10)2
_chemical_formula_sum   'Zn10 P10 H60 C60 N12 O40'
_cell_volume   2201.81784128
_cell_formula_units_Z   2
loop_
 _symmetry_equiv_pos_site_id
 _symmetry_equiv_pos_as_xyz
  1  'x, y, z'
loop_
 _atom_site_type_symbol
 _atom_site_label
 _atom_site_symmetry_multiplicity
 _atom_site_fract_x
 _atom_site_fract_y
 _atom_site_fract_z
 _atom_site_occupancy
  Zn  Zn0  1  0.61026000  0.25940000  0.20775000  1
  Zn  Zn1  1  0.25707000  0.93548000  0.29255000  1
  Zn  Zn2  1  0.57817000  0.61652000  0.25256000  1
  Zn  Zn3  1  0.90334000  0.94366000  0.24697000  1
  Zn  Zn4  1  0.09698000  0.44316000  0.25107000  1
  Zn  Zn5  1  0.38973000  0.74059000  0.79225000  1
  Zn  Zn6  1  0.74291000  0.06450000  0.70745000  1
  Zn  Zn7  1  0.42182000  0.38347000  0.74744000  1
  Zn  Zn8  1  0.09664000  0.05633000  0.75303000  1
  Zn  Zn9  1  0.90301000  0.55684000  0.74893000  1
  P  P10  1  0.85069000  0.46981000  0.18346000  1
  P  P11  1  0.05225000  0.68690000  0.32107000  1
  P  P12  1  0.03659000  0.14504000  0.31675000  1
  P  P13  1  0.58176000  0.94384000  0.25042000  1
  P  P14  1  0.39852000  0.47140000  0.17490000  1
  P  P15  1  0.14930000  0.53018000  0.81654000  1
  P  P16  1  0.94772000  0.31309000  0.67893000  1
  P  P17  1  0.96340000  0.85495000  0.68325000  1
  P  P18  1  0.41822000  0.05615000  0.74958000  1
  P  P19  1  0.60146000  0.52859000  0.82511000  1
  H  H20  1  0.75061000  0.53984000  0.34083000  1
  H  H21  1  0.73241000  0.48720000  0.44781000  1
  H  H22  1  0.32965000  0.61402000  0.35467000  1
  H  H23  1  0.34937000  0.28948000  0.29329000  1
  H  H24  1  0.27799000  0.24651000  0.40024000  1
  H  H25  1  0.94631000  0.75114000  0.16147000  1
  H  H26  1  0.98565000  0.76557000  0.05517000  1
  H  H27  1  0.25320000  0.17648000  0.20034000  1
  H  H28  1  0.26810000  0.75531000  0.20067000  1
  H  H29  1  0.65275000  0.11532000  0.49895000  1
  H  H30  1  0.23841000  0.25885000  0.48542000  1
  H  H31  1  0.92932000  0.17786000  0.14260000  1
  H  H32  1  0.97396000  0.21184000  0.03440000  1
  H  H33  1  0.29231000  0.56455000  0.46222000  1
  H  H34  1  0.71343000  0.18883000  0.41143000  1
  H  H35  1  0.76403000  0.23284000  0.30333000  1
  H  H36  1  0.29086000  0.23712000  0.09332000  1
  H  H37  1  0.57408000  0.06441000  0.60846000  1
  H  H38  1  0.18146000  0.20553000  0.59521000  1
  H  H39  1  0.38815000  0.31891000  0.89585000  1
  H  H40  1  0.33730000  0.27888000  0.00563000  1
  H  H41  1  0.38356000  0.90157000  0.89612000  1
  H  H42  1  0.33414000  0.83891000  0.00639000  1
  H  H43  1  0.30659000  0.79702000  0.09320000  1
  H  H44  1  0.39819000  0.13540000  0.84726000  1
  H  H45  1  0.34407000  0.09851000  0.65015000  1
  H  H46  1  0.98345000  0.97368000  0.38884000  1
  H  H47  1  0.98469000  0.48313000  0.37197000  1
  H  H48  1  0.75094000  0.50393000  0.10886000  1
  H  H49  1  0.23455000  0.53108000  0.12620000  1
  H  H50  1  0.24938000  0.46015000  0.65918000  1
  H  H51  1  0.26758000  0.51279000  0.55219000  1
  H  H52  1  0.67034000  0.38597000  0.64533000  1
  H  H53  1  0.65061000  0.71052000  0.70671000  1
  H  H54  1  0.72200000  0.75349000  0.59976000  1
  H  H55  1  0.05368000  0.24885000  0.83854000  1
  H  H56  1  0.01434000  0.23442000  0.94484000  1
  H  H57  1  0.74679000  0.82350000  0.79967000  1
  H  H58  1  0.73188000  0.24468000  0.79933000  1
  H  H59  1  0.34724000  0.88467000  0.50105000  1
  H  H60  1  0.76158000  0.74114000  0.51458000  1
  H  H61  1  0.07068000  0.82213000  0.85740000  1
  H  H62  1  0.02603000  0.78815000  0.96560000  1
  H  H63  1  0.70768000  0.43544000  0.53778000  1
  H  H64  1  0.28656000  0.81116000  0.58858000  1
  H  H65  1  0.23595000  0.76715000  0.69667000  1
  H  H66  1  0.70913000  0.76287000  0.90668000  1
  H  H67  1  0.42591000  0.93558000  0.39154000  1
  H  H68  1  0.81853000  0.79447000  0.40479000  1
  H  H69  1  0.61184000  0.68108000  0.10415000  1
  H  H70  1  0.66269000  0.72111000  0.99438000  1
  H  H71  1  0.61643000  0.09842000  0.10388000  1
  H  H72  1  0.66585000  0.16108000  0.99361000  1
  H  H73  1  0.69340000  0.20297000  0.90680000  1
  H  H74  1  0.60180000  0.86459000  0.15274000  1
  H  H75  1  0.65592000  0.90148000  0.34985000  1
  H  H76  1  0.01653000  0.02631000  0.61116000  1
  H  H77  1  0.01530000  0.51684000  0.62803000  1
  H  H78  1  0.24905000  0.49607000  0.89114000  1
  H  H79  1  0.76543000  0.46891000  0.87381000  1
  C  C80  1  0.65074000  0.54192000  0.36959000  1
  C  C81  1  0.63838000  0.51275000  0.43039000  1
  C  C82  1  0.41590000  0.58372000  0.37709000  1
  C  C83  1  0.42604000  0.26907000  0.32141000  1
  C  C84  1  0.38789000  0.24590000  0.38193000  1
  C  C85  1  0.48910000  0.21558000  0.41749000  1
  C  C86  1  0.45104000  0.18867000  0.48154000  1
  C  C87  1  0.95320000  0.85144000  0.13167000  1
  C  C88  1  0.97684000  0.86177000  0.07097000  1
  C  C89  1  0.98707000  0.99210000  0.03247000  1
  C  C90  1  0.26344000  0.09545000  0.17493000  1
  C  C91  1  0.27145000  0.86011000  0.17494000  1
  C  C92  1  0.54723000  0.13660000  0.51774000  1
  C  C93  1  0.31573000  0.21311000  0.51030000  1
  C  C94  1  0.94496000  0.08966000  0.12103000  1
  C  C95  1  0.96873000  0.10689000  0.06008000  1
  C  C96  1  0.30117000  0.02269000  0.08139000  1
  C  C97  1  0.39654000  0.55550000  0.43811000  1
  C  C98  1  0.62785000  0.21205000  0.38803000  1
  C  C99  1  0.32830000  0.05338000  0.01704000  1
  C  C100  1  0.65859000  0.23618000  0.32722000  1
  C  C101  1  0.28479000  0.12830000  0.11418000  1
  C  C102  1  0.50703000  0.10665000  0.57799000  1
  C  C103  1  0.28144000  0.18417000  0.57073000  1
  C  C104  1  0.37190000  0.21649000  0.92356000  1
  C  C105  1  0.34417000  0.19110000  0.98410000  1
  C  C106  1  0.37051000  0.97782000  0.92384000  1
  C  C107  1  0.34349000  0.94703000  0.98448000  1
  C  C108  1  0.50840000  0.51595000  0.46761000  1
  C  C109  1  0.29261000  0.88583000  0.11404000  1
  C  C110  1  0.34925000  0.45807000  0.63042000  1
  C  C111  1  0.36161000  0.48724000  0.56961000  1
  C  C112  1  0.58409000  0.41628000  0.62291000  1
  C  C113  1  0.57395000  0.73092000  0.67860000  1
  C  C114  1  0.61210000  0.75409000  0.61807000  1
  C  C115  1  0.51089000  0.78441000  0.58251000  1
  C  C116  1  0.54895000  0.81132000  0.51846000  1
  C  C117  1  0.04679000  0.14855000  0.86833000  1
  C  C118  1  0.02314000  0.13822000  0.92903000  1
  C  C119  1  0.01292000  0.00788000  0.96753000  1
  C  C120  1  0.73655000  0.90454000  0.82507000  1
  C  C121  1  0.72854000  0.13988000  0.82506000  1
  C  C122  1  0.45276000  0.86339000  0.48226000  1
  C  C123  1  0.68426000  0.78688000  0.48970000  1
  C  C124  1  0.05503000  0.91033000  0.87897000  1
  C  C125  1  0.03126000  0.89310000  0.93993000  1
  C  C126  1  0.69882000  0.97730000  0.91861000  1
  C  C127  1  0.60345000  0.44449000  0.56189000  1
  C  C128  1  0.37214000  0.78794000  0.61198000  1
  C  C129  1  0.67169000  0.94661000  0.98296000  1
  C  C130  1  0.34140000  0.76381000  0.67278000  1
  C  C131  1  0.71520000  0.87169000  0.88582000  1
  C  C132  1  0.49296000  0.89334000  0.42201000  1
  C  C133  1  0.71855000  0.81582000  0.42927000  1
  C  C134  1  0.62809000  0.78351000  0.07644000  1
  C  C135  1  0.65582000  0.80889000  0.01591000  1
  C  C136  1  0.62948000  0.02217000  0.07616000  1
  C  C137  1  0.65650000  0.05296000  0.01552000  1
  C  C138  1  0.49159000  0.48404000  0.53239000  1
  C  C139  1  0.70738000  0.11415000  0.88597000  1
  N  N140  1  0.38384000  0.11094000  0.89439000  1
  N  N141  1  0.93719000  0.96310000  0.15716000  1
  N  N142  1  0.54172000  0.57680000  0.34229000  1
  N  N143  1  0.55920000  0.26498000  0.29403000  1
  N  N144  1  0.25588000  0.96310000  0.20539000  1
  N  N145  1  0.37550000  0.12840000  0.60350000  1
  N  N146  1  0.61615000  0.88905000  0.10561000  1
  N  N147  1  0.06280000  0.03689000  0.84285000  1
  N  N148  1  0.45827000  0.42319000  0.65771000  1
  N  N149  1  0.44079000  0.73502000  0.70597000  1
  N  N150  1  0.74411000  0.03689000  0.79462000  1
  N  N151  1  0.62449000  0.87159000  0.39650000  1
  O  O152  1  0.80834000  0.31739000  0.18868000  1
  O  O153  1  0.00648000  0.49365000  0.18243000  1
  O  O154  1  0.83294000  0.54704000  0.11684000  1
  O  O155  1  0.76036000  0.53976000  0.22883000  1
  O  O156  1  0.52071000  0.38735000  0.15058000  1
  O  O157  1  0.44666000  0.58661000  0.20239000  1
  O  O158  1  0.33543000  0.54736000  0.11724000  1
  O  O159  1  0.27877000  0.37900000  0.21510000  1
  O  O160  1  0.70616000  0.95600000  0.28226000  1
  O  O161  1  0.60017000  0.81724000  0.21968000  1
  O  O162  1  0.57911000  0.07098000  0.20005000  1
  O  O163  1  0.45115000  0.92422000  0.29956000  1
  O  O164  1  0.13452000  0.78660000  0.34605000  1
  O  O165  1  0.14715000  0.60146000  0.28324000  1
  O  O166  1  0.93813000  0.75986000  0.29108000  1
  O  O167  1  0.97364000  0.57668000  0.37961000  1
  O  O168  1  0.18611000  0.10167000  0.32016000  1
  O  O169  1  0.98662000  0.10732000  0.26376000  1
  O  O170  1  0.01347000  0.29868000  0.31955000  1
  O  O171  1  0.93930000  0.06125000  0.37771000  1
  O  O172  1  0.19165000  0.68260000  0.81132000  1
  O  O173  1  0.99351000  0.50635000  0.81757000  1
  O  O174  1  0.16705000  0.45295000  0.88316000  1
  O  O175  1  0.23963000  0.46024000  0.77117000  1
  O  O176  1  0.47928000  0.61265000  0.84942000  1
  O  O177  1  0.55333000  0.41338000  0.79762000  1
  O  O178  1  0.66455000  0.45262000  0.88276000  1
  O  O179  1  0.72123000  0.62099000  0.78491000  1
  O  O180  1  0.29383000  0.04400000  0.71774000  1
  O  O181  1  0.39982000  0.18275000  0.78032000  1
  O  O182  1  0.42088000  0.92901000  0.79995000  1
  O  O183  1  0.54883000  0.07577000  0.70044000  1
  O  O184  1  0.86542000  0.21341000  0.65396000  1
  O  O185  1  0.85284000  0.39853000  0.71677000  1
  O  O186  1  0.06184000  0.24012000  0.70892000  1
  O  O187  1  0.02634000  0.42328000  0.62040000  1
  O  O188  1  0.81388000  0.89832000  0.67984000  1
  O  O189  1  0.01337000  0.89267000  0.73624000  1
  O  O190  1  0.98651000  0.70131000  0.68045000  1
  O  O191  1  0.06069000  0.93875000  0.62229000  1
