# generated using pymatgen
data_ZnH16C24(NO4)2
_symmetry_space_group_name_H-M   'P 1'
_cell_length_a   10.50684000
_cell_length_b   10.52222000
_cell_length_c   12.52831000
_cell_angle_alpha   81.43790000
_cell_angle_beta   81.30540000
_cell_angle_gamma   74.72438000
_symmetry_Int_Tables_number   1
_chemical_formula_structural   ZnH16C24(NO4)2
_chemical_formula_sum   'Zn2 H32 C48 N4 O16'
_cell_volume   1312.11553358
_cell_formula_units_Z   2
loop_
 _symmetry_equiv_pos_site_id
 _symmetry_equiv_pos_as_xyz
  1  'x, y, z'
loop_
 _atom_site_type_symbol
 _atom_site_label
 _atom_site_symmetry_multiplicity
 _atom_site_fract_x
 _atom_site_fract_y
 _atom_site_fract_z
 _atom_site_occupancy
  Zn  Zn0  1  0.33086000  0.66864000  0.25125000  1
  Zn  Zn1  1  0.66922000  0.33136000  0.74868000  1
  H  H2  1  0.35156000  0.19708000  0.64808000  1
  H  H3  1  0.28976000  0.92637000  0.50796000  1
  H  H4  1  0.31771000  0.33577000  0.49571000  1
  H  H5  1  0.32232000  0.16637000  0.20296000  1
  H  H6  1  0.39478000  0.01239000  0.76242000  1
  H  H7  1  0.45446000  0.93087000  0.64479000  1
  H  H8  1  0.08587000  0.06413000  0.72121000  1
  H  H9  1  0.42337000  0.72567000  0.71857000  1
  H  H10  1  0.80252000  0.64857000  0.85191000  1
  H  H11  1  0.07355000  0.71071000  0.99118000  1
  H  H12  1  0.66314000  0.68295000  0.00505000  1
  H  H13  1  0.83445000  0.67774000  0.29699000  1
  H  H14  1  0.98871000  0.60514000  0.73754000  1
  H  H15  1  0.07041000  0.54646000  0.85494000  1
  H  H16  1  0.93575000  0.91447000  0.77904000  1
  H  H17  1  0.27509000  0.57761000  0.78064000  1
  H  H18  1  0.64849000  0.80327000  0.35174000  1
  H  H19  1  0.71024000  0.07384000  0.49197000  1
  H  H20  1  0.68267000  0.66441000  0.50407000  1
  H  H21  1  0.67782000  0.83374000  0.79694000  1
  H  H22  1  0.60505000  0.98838000  0.23750000  1
  H  H23  1  0.54557000  0.06988000  0.35514000  1
  H  H24  1  0.91407000  0.93632000  0.27860000  1
  H  H25  1  0.57679000  0.27503000  0.28121000  1
  H  H26  1  0.19772000  0.35164000  0.14799000  1
  H  H27  1  0.92675000  0.28901000  0.00879000  1
  H  H28  1  0.33691000  0.31736000  0.99481000  1
  H  H29  1  0.16553000  0.32265000  0.70285000  1
  H  H30  1  0.01163000  0.39512000  0.26237000  1
  H  H31  1  0.93006000  0.45386000  0.14492000  1
  H  H32  1  0.06434000  0.08586000  0.22083000  1
  H  H33  1  0.72527000  0.42290000  0.21916000  1
  C  C34  1  0.31349000  0.92130000  0.28942000  1
  C  C35  1  0.29789000  0.03866000  0.35110000  1
  C  C36  1  0.29544000  0.02196000  0.46313000  1
  C  C37  1  0.30626000  0.12876000  0.51651000  1
  C  C38  1  0.30738000  0.25477000  0.45544000  1
  C  C39  1  0.30745000  0.27062000  0.34374000  1
  C  C40  1  0.30624000  0.16149000  0.29101000  1
  C  C41  1  0.31917000  0.40042000  0.27847000  1
  C  C42  1  0.36468000  0.98978000  0.68845000  1
  C  C43  1  0.26520000  0.90545000  0.71782000  1
  C  C44  1  0.12763000  0.95755000  0.73417000  1
  C  C45  1  0.31691000  0.76787000  0.73293000  1
  C  C46  1  0.07879000  0.68479000  0.21091000  1
  C  C47  1  0.96158000  0.70204000  0.14872000  1
  C  C48  1  0.97810000  0.70476000  0.03666000  1
  C  C49  1  0.87094000  0.69387000  0.98360000  1
  C  C50  1  0.74459000  0.69307000  0.04498000  1
  C  C51  1  0.72888000  0.69319000  0.15669000  1
  C  C52  1  0.83843000  0.69419000  0.20905000  1
  C  C53  1  0.59929000  0.68104000  0.22277000  1
  C  C54  1  0.01077000  0.63565000  0.81152000  1
  C  C55  1  0.09481000  0.73543000  0.78214000  1
  C  C56  1  0.04254000  0.87275000  0.76594000  1
  C  C57  1  0.23267000  0.68387000  0.76660000  1
  C  C58  1  0.68655000  0.07885000  0.71040000  1
  C  C59  1  0.70222000  0.96145000  0.64880000  1
  C  C60  1  0.70464000  0.97823000  0.53677000  1
  C  C61  1  0.69381000  0.87149000  0.48333000  1
  C  C62  1  0.69292000  0.74539000  0.54439000  1
  C  C63  1  0.69288000  0.72941000  0.65613000  1
  C  C64  1  0.69397000  0.83857000  0.70888000  1
  C  C65  1  0.68093000  0.59968000  0.72152000  1
  C  C66  1  0.63526000  0.01083000  0.31147000  1
  C  C67  1  0.73485000  0.09507000  0.28205000  1
  C  C68  1  0.87240000  0.04291000  0.26565000  1
  C  C69  1  0.68322000  0.23267000  0.26686000  1
  C  C70  1  0.92122000  0.31529000  0.78916000  1
  C  C71  1  0.03856000  0.29813000  0.85123000  1
  C  C72  1  0.02213000  0.29525000  0.96332000  1
  C  C73  1  0.12927000  0.30636000  0.01629000  1
  C  C74  1  0.25558000  0.30700000  0.95488000  1
  C  C75  1  0.27130000  0.30687000  0.84318000  1
  C  C76  1  0.16169000  0.30600000  0.79079000  1
  C  C77  1  0.40100000  0.31886000  0.77731000  1
  C  C78  1  0.98956000  0.36463000  0.18839000  1
  C  C79  1  0.90539000  0.26498000  0.21776000  1
  C  C80  1  0.95757000  0.12764000  0.23391000  1
  C  C81  1  0.76754000  0.31661000  0.23322000  1
  N  N82  1  0.32386000  0.11604000  0.62262000  1
  N  N83  1  0.88395000  0.67559000  0.87757000  1
  N  N84  1  0.67592000  0.88445000  0.37725000  1
  N  N85  1  0.11635000  0.32457000  0.12234000  1
  O  O86  1  0.28046000  0.81873000  0.34379000  1
  O  O87  1  0.36238000  0.93200000  0.19186000  1
  O  O88  1  0.29968000  0.41810000  0.17932000  1
  O  O89  1  0.35045000  0.48292000  0.32826000  1
  O  O90  1  0.18119000  0.72017000  0.15853000  1
  O  O91  1  0.06773000  0.63188000  0.30725000  1
  O  O92  1  0.58181000  0.70110000  0.32179000  1
  O  O93  1  0.51683000  0.64851000  0.17368000  1
  O  O94  1  0.71945000  0.18142000  0.65597000  1
  O  O95  1  0.63777000  0.06812000  0.80802000  1
  O  O96  1  0.70066000  0.58194000  0.82062000  1
  O  O97  1  0.64922000  0.51732000  0.67183000  1
  O  O98  1  0.81883000  0.27987000  0.84152000  1
  O  O99  1  0.93219000  0.36798000  0.69275000  1
  O  O100  1  0.41864000  0.29856000  0.67830000  1
  O  O101  1  0.48333000  0.35162000  0.82636000  1
