# generated using pymatgen
data_H15C22N4O
_symmetry_space_group_name_H-M   'P 1'
_cell_length_a   19.46427500
_cell_length_b   19.46430000
_cell_length_c   58.39290000
_cell_angle_alpha   90.00000000
_cell_angle_beta   90.00000000
_cell_angle_gamma   120.00012746
_symmetry_Int_Tables_number   1
_chemical_formula_structural   H15C22N4O
_chemical_formula_sum   'H90 C132 N24 O6'
_cell_volume   19158.74865158
_cell_formula_units_Z   6
loop_
 _symmetry_equiv_pos_site_id
 _symmetry_equiv_pos_as_xyz
  1  'x, y, z'
loop_
 _atom_site_type_symbol
 _atom_site_label
 _atom_site_symmetry_multiplicity
 _atom_site_fract_x
 _atom_site_fract_y
 _atom_site_fract_z
 _atom_site_occupancy
  C  1  1  0.99109500  0.97430400  0.00925100  1
  C  2  1  0.02373950  0.98288050  0.03165600  1
  C  3  1  0.97946850  0.93672650  0.05060700  1
  C  4  1  0.90004150  0.87693550  0.04716800  1
  C  5  1  0.86515700  0.86529500  0.02531800  1
  C  6  1  0.91021250  0.91469550  0.00701400  1
  C  9  1  0.03589150  0.02245550  0.99013700  1
  C  10  1  0.10899150  0.09367950  0.99349600  1
  C  11  1  0.15550050  0.14335650  0.97544300  1
  C  12  1  0.12703000  0.12367800  0.95283200  1
  C  13  1  0.05478500  0.05353700  0.94832600  1
  C  14  1  0.01093700  0.00413900  0.96687400  1
  C  25  1  0.98863200  0.01379500  0.34235800  1
  C  26  1  0.96511200  0.98139200  0.36480800  1
  C  27  1  0.96358550  0.02583250  0.38376400  1
  C  28  1  0.98305250  0.10519550  0.38029400  1
  C  29  1  0.00579100  0.13986600  0.35840300  1
  C  30  1  0.00980800  0.09465000  0.34009200  1
  C  33  1  0.99148700  0.96878400  0.32322600  1
  C  34  1  0.98947100  0.89560000  0.32654800  1
  C  35  1  0.99204400  0.84886000  0.30846400  1
  C  36  1  0.00036000  0.87717400  0.28584800  1
  C  37  1  0.00269000  0.94954500  0.28137500  1
  C  38  1  0.99768750  0.99358550  0.29996100  1
  C  49  1  0.03046150  0.01448250  0.67558900  1
  C  50  1  0.02127200  0.03730300  0.69810900  1
  C  51  1  0.06710200  0.03839600  0.71704600  1
  C  52  1  0.12704650  0.01904150  0.71350600  1
  C  53  1  0.13925900  0.99696800  0.69155700  1
  C  54  1  0.09020600  0.99341400  0.67325600  1
  C  57  1  0.98286100  0.01218100  0.65644800  1
  C  58  1  0.91182850  0.01447350  0.65975600  1
  C  59  1  0.86279900  0.01241800  0.64166000  1
  C  60  1  0.88292050  0.00435950  0.61903600  1
  C  61  1  0.95284700  0.00181000  0.61457100  1
  C  62  1  0.00162800  0.00632800  0.63317100  1
  C  73  1  0.99141350  0.04498650  0.77226700  1
  C  74  1  0.99160250  0.10249350  0.78737100  1
  C  76  1  0.97835500  0.02156800  0.82014200  1
  C  77  1  0.97791050  0.96242950  0.80586000  1
  C  78  1  0.98392300  0.97483200  0.78196700  1
  C  80  1  0.97336650  0.01159650  0.84416900  1
  C  81  1  0.96806850  0.99616550  0.89230000  1
  C  83  1  0.97087650  0.06297450  0.88142500  1
  C  84  1  0.96596100  0.93595800  0.87819200  1
  C  85  1  0.96864700  0.94281100  0.85409400  1
  C  86  1  0.96766700  0.88395800  0.83974000  1
  C  87  1  0.97197450  0.89355450  0.81581500  1
  C  91  1  0.00066650  0.17994850  0.78059100  1
  C  95  1  0.97027400  0.12882100  0.89397600  1
  C  99  1  0.96787150  0.98885050  0.91594500  1
  C  100  1  0.99600950  0.05239250  0.74862300  1
  C  103  1  0.05995650  0.01228750  0.10565000  1
  C  104  1  0.11694450  0.01182850  0.12084500  1
  C  106  1  0.04858050  0.02457250  0.15352200  1
  C  107  1  0.98999600  0.02488700  0.13915900  1
  C  108  1  0.99691600  0.01930300  0.11527100  1
  C  110  1  0.04339950  0.02971050  0.17753500  1
  C  111  1  0.03335850  0.03620150  0.22564700  1
  C  113  1  0.09749650  0.03343850  0.21484300  1
  C  114  1  0.97500400  0.03752800  0.21145900  1
  C  115  1  0.97916050  0.03431650  0.18737400  1
  C  116  1  0.92124150  0.03489750  0.17294900  1
  C  117  1  0.92678300  0.03053700  0.14903300  1
  C  121  1  0.18559650  0.00305050  0.11417500  1
  C  125  1  0.16416800  0.03476100  0.22747100  1
  C  129  1  0.02691200  0.03770100  0.24932500  1
  C  130  1  0.06354650  0.00903150  0.08197900  1
  C  133  1  0.95875300  0.94520900  0.43882900  1
  C  134  1  0.90119950  0.88822850  0.45400200  1
  C  136  1  0.98226450  0.95637350  0.48670600  1
  C  137  1  0.04128000  0.01493400  0.47236500  1
  C  138  1  0.02884650  0.00812450  0.44847400  1
  C  140  1  0.99250450  0.96145750  0.51072300  1
  C  141  1  0.00889300  0.97129900  0.55883800  1
  C  143  1  0.94195050  0.90729150  0.54801200  1
  C  144  1  0.06867550  0.02964650  0.54467200  1
  C  145  1  0.06138850  0.02557450  0.52058500  1
  C  146  1  0.12000550  0.08346750  0.50618100  1
  C  147  1  0.11018200  0.07802200  0.48226200  1
  C  151  1  0.82369250  0.81973650  0.44730800  1
  C  155  1  0.87648950  0.84065150  0.56061800  1
  C  159  1  0.01678250  0.97764050  0.58251800  1
  C  160  1  0.95192800  0.94174800  0.41515600  1
  C  163  1  0.33874100  0.31698100  0.99871400  1
  C  164  1  0.38682050  0.34711150  0.01873700  1
  C  166  1  0.46763950  0.47321950  0.00056600  1
  C  167  1  0.42365250  0.44619850  0.98000400  1
  C  168  1  0.35949800  0.36777700  0.97936700  1
  C  170  1  0.53255450  0.55081150  0.00207400  1
  C  171  1  0.66787450  0.70273750  0.00554000  1
  C  173  1  0.64061950  0.64895250  0.02443200  1
  C  174  1  0.62234950  0.67820550  0.98508700  1
  C  175  1  0.55476400  0.60230800  0.98298400  1
  C  176  1  0.51026600  0.57562000  0.96254100  1
  C  177  1  0.44500800  0.49810700  0.96107700  1
  C  181  1  0.37997900  0.30492600  0.04054600  1
  C  185  1  0.67831150  0.66336150  0.04731000  1
  C  189  1  0.73886200  0.77665400  0.00513700  1
  C  190  1  0.27028850  0.24125950  0.99798100  1
  C  193  1  0.98264850  0.66568350  0.33171800  1
  C  194  1  0.96507150  0.61780650  0.35177200  1
  C  196  1  0.01020950  0.53691550  0.33356800  1
  C  197  1  0.02680950  0.58069950  0.31297600  1
  C  198  1  0.01247300  0.64481300  0.31234400  1
  C  200  1  0.02298100  0.47205600  0.33507300  1
  C  201  1  0.03978650  0.33684350  0.33854300  1
  C  203  1  0.01350700  0.36423400  0.35746100  1
  C  204  1  0.06041250  0.38217250  0.31805600  1
  C  205  1  0.05199300  0.44969700  0.31595100  1
  C  206  1  0.06946300  0.49400700  0.29548100  1
  C  207  1  0.05711400  0.55920700  0.29401800  1
  C  211  1  0.93001400  0.62481300  0.37361700  1
  C  215  1  0.99060200  0.32673400  0.38037100  1
  C  219  1  0.04276900  0.26588200  0.33814900  1
  C  220  1  0.97537800  0.73413700  0.33099200  1
  C  223  1  0.68905250  0.02195850  0.66485600  1
  C  224  1  0.65855100  0.03923600  0.68491900  1
  C  226  1  0.53267050  0.99424950  0.66666667  1
  C  227  1  0.56009100  0.97804300  0.64603000  1
  C  228  1  0.63856950  0.99245950  0.64543100  1
  C  230  1  0.45496750  0.98128150  0.66812400  1
  C  231  1  0.30273900  0.96395700  0.67158000  1
  C  233  1  0.35626750  0.99005450  0.69053100  1
  C  234  1  0.32770700  0.94380000  0.65106000  1
  C  235  1  0.40375700  0.95247800  0.64896400  1
  C  236  1  0.43085950  0.93546650  0.62846700  1
  C  237  1  0.50848000  0.94799600  0.62702600  1
  C  241  1  0.70042550  0.07396250  0.70681200  1
  C  245  1  0.34139400  0.01244200  0.71348200  1
  C  249  1  0.22868250  0.96074050  0.67119100  1
  C  250  1  0.76473950  0.02913250  0.66417500  1
  H  7  1  0.08233200  0.02119300  0.03453000  1
  H  16  1  0.96091050  0.95250450  0.96286400  1
  H  17  1  0.83088500  0.85595800  0.07230100  1
  H  18  1  0.15577700  0.21211500  0.93354500  1
  H  19  1  0.88202600  0.90696400  0.99180700  1
  H  20  1  0.12697650  0.11391450  0.00963100  1
  H  31  1  0.94498250  0.92284850  0.36771900  1
  H  40  1  0.99609150  0.04363650  0.29597100  1
  H  41  1  0.03169300  0.17466000  0.40533800  1
  H  42  1  0.05942350  0.84806950  0.26641400  1
  H  43  1  0.02989500  0.12269200  0.32485100  1
  H  44  1  0.99202700  0.87769200  0.34266800  1
  H  55  1  0.98267450  0.05712850  0.70109900  1
  H  64  1  0.05319650  0.00777850  0.62917900  1
  H  65  1  0.14772800  0.96970800  0.73840000  1
  H  66  1  0.79487800  0.94584400  0.59951500  1
  H  67  1  0.09840900  0.97379300  0.65796900  1
  H  68  1  0.89123800  0.01178800  0.67586500  1
  H  79  1  0.98308400  0.93204500  0.77151800  1
  H  88  1  0.96428850  0.83394550  0.84658100  1
  H  89  1  0.97173050  0.85035450  0.80576200  1
  H  90  1  0.96381800  0.88707600  0.88553300  1
  H  92  1  0.01020900  0.19163100  0.76229300  1
  H  93  1  0.05149550  0.22755550  0.78950900  1
  H  94  1  0.94746350  0.18178550  0.78544500  1
  H  96  1  0.96919700  0.17197500  0.88223900  1
  H  97  1  0.02325350  0.15971550  0.90459100  1
  H  98  1  0.91777950  0.10552450  0.90487100  1
  H  101  1  0.96757850  0.07630050  0.74086900  1
  H  102  1  0.93806500  0.93457400  0.92256900  1
  H  109  1  0.95517550  0.02029250  0.10476200  1
  H  118  1  0.87452450  0.03827150  0.17972700  1
  H  119  1  0.88393650  0.03075950  0.13892400  1
  H  120  1  0.92821950  0.03973450  0.21874000  1
  H  122  1  0.18788850  0.99326150  0.09589900  1
  H  123  1  0.18256400  0.95244600  0.12317400  1
  H  124  1  0.24047900  0.05645400  0.11901200  1
  H  126  1  0.20832050  0.03542050  0.21578600  1
  H  127  1  0.14228950  0.98227250  0.23829100  1
  H  128  1  0.19338400  0.08774000  0.23817400  1
  H  131  1  0.11656750  0.03677150  0.07461000  1
  H  132  1  0.00122800  0.06686100  0.25551200  1
  H  139  1  0.07165200  0.04985600  0.43798100  1
  H  148  1  0.17012550  0.13009950  0.51297700  1
  H  149  1  0.15333300  0.12085300  0.47217000  1
  H  150  1  0.11772050  0.07631850  0.55197100  1
  H  152  1  0.81167850  0.81753050  0.42903000  1
  H  153  1  0.77617900  0.82290400  0.45630000  1
  H  154  1  0.82202250  0.76475650  0.45213900  1
  H  156  1  0.83296750  0.79659850  0.54891800  1
  H  157  1  0.84594800  0.86259200  0.57144300  1
  H  158  1  0.90012300  0.81129700  0.57131200  1
  H  161  1  0.92656100  0.88877200  0.40775800  1
  H  162  1  0.07160500  0.00316600  0.58871700  1
  H  169  1  0.32655500  0.34860700  0.96465900  1
  H  178  1  0.52550350  0.61196050  0.94853500  1
  H  179  1  0.41388850  0.47966350  0.94606000  1
  H  180  1  0.63984350  0.71500450  0.97110700  1
  H  182  1  0.33793000  0.24163900  0.04005400  1
  H  183  1  0.36224600  0.33113100  0.05420100  1
  H  184  1  0.43757950  0.31169350  0.04495400  1
  H  186  1  0.64436250  0.61384650  0.05899700  1
  H  187  1  0.68208800  0.71630800  0.05494500  1
  H  188  1  0.73755950  0.67092450  0.04579300  1
  H  191  1  0.25246450  0.20799250  0.01246400  1
  H  192  1  0.75500350  0.80836850  0.99021500  1
  H  199  1  0.02593200  0.67757900  0.29760800  1
  H  208  1  0.09034150  0.47864550  0.28145000  1
  H  209  1  0.06950550  0.59016150  0.27897700  1
  H  210  1  0.07952800  0.36457800  0.30405600  1
  H  212  1  0.90854100  0.66667400  0.37311500  1
  H  213  1  0.97421350  0.64290150  0.38721000  1
  H  214  1  0.87939250  0.56719450  0.37812300  1
  H  216  1  0.97513150  0.36072850  0.39206800  1
  H  217  1  0.03992550  0.32311050  0.38794900  1
  H  218  1  0.93895150  0.26743250  0.37892100  1
  H  221  1  0.96023850  0.75210650  0.34550200  1
  H  222  1  0.05819300  0.24965800  0.32321400  1
  H  229  1  0.65802650  0.97921650  0.63068600  1
  H  238  1  0.39472550  0.91469650  0.61441200  1
  H  239  1  0.52719900  0.93583800  0.61197700  1
  H  240  1  0.29111500  0.92487000  0.63703300  1
  H  242  1  0.76381150  0.09569650  0.70631000  1
  H  243  1  0.67438350  0.02947450  0.72033100  1
  H  244  1  0.69316200  0.12435100  0.71141900  1
  H  246  1  0.39081300  0.02786600  0.72519400  1
  H  247  1  0.28848650  0.96286850  0.72099200  1
  H  248  1  0.33353650  0.06398650  0.71211700  1
  H  251  1  0.79764550  0.04391450  0.67872100  1
  H  252  1  0.19716550  0.94557250  0.65623400  1
  N  21  1  0.03172500  0.03939200  0.92653700  1
  N  22  1  0.22568700  0.21082700  0.97890000  1
  N  23  1  0.79031150  0.80399950  0.02281200  1
  N  24  1  0.00756550  0.94713250  0.07189500  1
  N  45  1  0.01123550  0.97257150  0.25958300  1
  N  46  1  0.98924450  0.77861750  0.31189700  1
  N  47  1  0.01913400  0.21463400  0.35587000  1
  N  48  1  0.94638900  0.99797300  0.40508700  1
  N  69  1  0.96745200  0.99349900  0.59277200  1
  N  70  1  0.79547150  0.01543550  0.64507800  1
  N  71  1  0.20079450  0.98382850  0.68896900  1
  N  72  1  0.05614200  0.05465700  0.73844200  1
  N  75  1  0.98514650  0.08788650  0.81029200  1
  N  82  1  0.97370450  0.06743250  0.85816700  1
  N  105  1  0.10836950  0.01804050  0.14375200  1
  N  112  1  0.09906950  0.02999950  0.19159500  1
  N  135  1  0.91591300  0.89670800  0.47691400  1
  N  142  1  0.93701100  0.90580700  0.52476200  1
  N  165  1  0.44775600  0.42305400  0.01857000  1
  N  172  1  0.57537950  0.57643850  0.02161900  1
  N  195  1  0.98016500  0.55692800  0.35160200  1
  N  202  1  0.00612050  0.42941250  0.35464600  1
  N  225  1  0.58255250  0.02405650  0.68472000  1
  N  232  1  0.42893800  0.99769400  0.68772400  1
  O  8  1  0.85709200  0.82956300  0.06501100  1
  O  15  1  0.17115650  0.17131350  0.93517700  1
  O  32  1  0.97893500  0.14829600  0.39814400  1
  O  39  1  0.00332050  0.83285850  0.26816100  1
  O  56  1  0.17410900  0.02269700  0.73134600  1
  O  63  1  0.83589500  0.00186800  0.60133700  1
