# generated using pymatgen
data_CuH9C19NO11
_symmetry_space_group_name_H-M   'P 1'
_cell_length_a   9.73756000
_cell_length_b   14.49369000
_cell_length_c   16.40139000
_cell_angle_alpha   90.48492000
_cell_angle_beta   90.57297000
_cell_angle_gamma   91.08170000
_symmetry_Int_Tables_number   1
_chemical_formula_structural   CuH9C19NO11
_chemical_formula_sum   'Cu4 H36 C76 N4 O44'
_cell_volume   2314.16536545
_cell_formula_units_Z   4
loop_
 _symmetry_equiv_pos_site_id
 _symmetry_equiv_pos_as_xyz
  1  'x, y, z'
loop_
 _atom_site_type_symbol
 _atom_site_label
 _atom_site_symmetry_multiplicity
 _atom_site_fract_x
 _atom_site_fract_y
 _atom_site_fract_z
 _atom_site_occupancy
  Cu  Cu0  1  0.64066000  0.50001000  0.00000000  1
  Cu  Cu1  1  0.64066000  0.00001000  0.50000000  1
  Cu  Cu2  1  0.35934000  0.49999000  0.00000000  1
  Cu  Cu3  1  0.35934000  0.99999000  0.50000000  1
  H  H4  1  0.79375000  0.66555000  0.84439000  1
  H  H5  1  0.15722000  0.66698000  0.23744000  1
  H  H6  1  0.17018000  0.25421000  0.35552000  1
  H  H7  1  0.15957000  0.20387000  0.69341000  1
  H  H8  1  0.89271000  0.13941000  0.87965000  1
  H  H9  1  0.95366000  0.65754000  0.34896000  1
  H  H10  1  0.68817000  0.26463000  0.96128000  1
  H  H11  1  0.70413000  0.75545000  0.45247000  1
  H  H12  1  0.77369000  0.65769000  0.00010000  1
  H  H13  1  0.76860000  0.15628000  0.50154000  1
  H  H14  1  0.00556000  0.11270000  0.11510000  1
  H  H15  1  0.78408000  0.63597000  0.17946000  1
  H  H16  1  0.06033000  0.41231000  0.68254000  1
  H  H17  1  0.97039000  0.59321000  0.58611000  1
  H  H18  1  0.96635000  0.99007000  0.25713000  1
  H  H19  1  0.51576000  0.18870000  0.06697000  1
  H  H20  1  0.61794000  0.49316000  0.76222000  1
  H  H21  1  0.58774000  0.62325000  0.53606000  1
  H  H22  1  0.60663000  0.99235000  0.25879000  1
  H  H23  1  0.22224000  0.37502000  0.27660000  1
  H  H24  1  0.26088000  0.40259000  0.78432000  1
  H  H25  1  0.36890000  0.95070000  0.73686000  1
  H  H26  1  0.78762000  0.18863000  0.36250000  1
  H  H27  1  0.24584000  0.88401000  0.29405000  1
  H  H28  1  0.09389000  0.71408000  0.07987000  1
  H  H29  1  0.08446000  0.22665000  0.55299000  1
  H  H30  1  0.32887000  0.26404000  0.99346000  1
  H  H31  1  0.23998000  0.73270000  0.57629000  1
  H  H32  1  0.08627000  0.16782000  0.83499000  1
  H  H33  1  0.26038000  0.70016000  0.43467000  1
  H  H34  1  0.78461000  0.13921000  0.67265000  1
  H  H35  1  0.94124000  0.63312000  0.72930000  1
  H  H36  1  0.97321000  0.74396000  0.18737000  1
  H  H37  1  0.95379000  0.15664000  0.25722000  1
  H  H38  1  0.96637000  0.24911000  0.66851000  1
  H  H39  1  0.20963000  0.79908000  0.87699000  1
  C  C40  1  0.50195000  0.61522000  0.12226000  1
  C  C41  1  0.37458000  0.29646000  0.76933000  1
  C  C42  1  0.39962000  0.82204000  0.74736000  1
  C  C43  1  0.37264000  0.78569000  0.27639000  1
  C  C44  1  0.49308000  0.31009000  0.18325000  1
  C  C45  1  0.49671000  0.33844000  0.79725000  1
  C  C46  1  0.49619000  0.81302000  0.68461000  1
  C  C47  1  0.49335000  0.83522000  0.29851000  1
  C  C48  1  0.13534000  0.33365000  0.96097000  1
  C  C49  1  0.13913000  0.83258000  0.49267000  1
  C  C50  1  0.06570000  0.26854000  0.91185000  1
  C  C51  1  0.50087000  0.62293000  0.88450000  1
  C  C52  1  0.08803000  0.76503000  0.43849000  1
  C  C53  1  0.92216000  0.26911000  0.91045000  1
  C  C54  1  0.94719000  0.76605000  0.42009000  1
  C  C55  1  0.85630000  0.33604000  0.95745000  1
  C  C56  1  0.86587000  0.83281000  0.45962000  1
  C  C57  1  0.92431000  0.41948000  0.98053000  1
  C  C58  1  0.92640000  0.91825000  0.48565000  1
  C  C59  1  0.07214000  0.41891000  0.98164000  1
  C  C60  1  0.07335000  0.91841000  0.49232000  1
  C  C61  1  0.07478000  0.57783000  0.01665000  1
  C  C62  1  0.50178000  0.11673000  0.62132000  1
  C  C63  1  0.07472000  0.07970000  0.50964000  1
  C  C64  1  0.49882000  0.39022000  0.87548000  1
  C  C65  1  0.49882000  0.37851000  0.11660000  1
  C  C66  1  0.49818000  0.88923000  0.37581000  1
  C  C67  1  0.49922000  0.87905000  0.61666000  1
  C  C68  1  0.92832000  0.57793000  0.01464000  1
  C  C69  1  0.92794000  0.07901000  0.51000000  1
  C  C70  1  0.75296000  0.67522000  0.78376000  1
  C  C71  1  0.76094000  0.70655000  0.19420000  1
  C  C72  1  0.75557000  0.19414000  0.29978000  1
  C  C73  1  0.50036000  0.12328000  0.38494000  1
  C  C74  1  0.76054000  0.20895000  0.68912000  1
  C  C75  1  0.83809000  0.65631000  0.71782000  1
  C  C76  1  0.87217000  0.76788000  0.20092000  1
  C  C77  1  0.85196000  0.17700000  0.23946000  1
  C  C78  1  0.87088000  0.27043000  0.69242000  1
  C  C79  1  0.80933000  0.17219000  0.15774000  1
  C  C80  1  0.85799000  0.35843000  0.72467000  1
  C  C81  1  0.78334000  0.65603000  0.63837000  1
  C  C82  1  0.85364000  0.85916000  0.22501000  1
  C  C83  1  0.67771000  0.20494000  0.13693000  1
  C  C84  1  0.38794000  0.75230000  0.80513000  1
  C  C85  1  0.73073000  0.38515000  0.75471000  1
  C  C86  1  0.65485000  0.69947000  0.62558000  1
  C  C87  1  0.72413000  0.88604000  0.25182000  1
  C  C88  1  0.60147000  0.24934000  0.19812000  1
  C  C89  1  0.61870000  0.32047000  0.75542000  1
  C  C90  1  0.59416000  0.74371000  0.69199000  1
  C  C91  1  0.61444000  0.81949000  0.25484000  1
  C  C92  1  0.61893000  0.70667000  0.76896000  1
  C  C93  1  0.62685000  0.73481000  0.21245000  1
  C  C94  1  0.62057000  0.21720000  0.27721000  1
  C  C95  1  0.38119000  0.70380000  0.23158000  1
  C  C96  1  0.62806000  0.23671000  0.71104000  1
  C  C97  1  0.50390000  0.69613000  0.82135000  1
  C  C98  1  0.50610000  0.68092000  0.19316000  1
  C  C99  1  0.50038000  0.19730000  0.32260000  1
  C  C100  1  0.50525000  0.18576000  0.68983000  1
  C  C101  1  0.25243000  0.74174000  0.84338000  1
  C  C102  1  0.25982000  0.64025000  0.23269000  1
  C  C103  1  0.23780000  0.20873000  0.32268000  1
  C  C104  1  0.24770000  0.16586000  0.71044000  1
  C  C105  1  0.89988000  0.12671000  0.09839000  1
  C  C106  1  0.37620000  0.24081000  0.29791000  1
  C  C107  1  0.97988000  0.42044000  0.72722000  1
  C  C108  1  0.86445000  0.61104000  0.57367000  1
  C  C109  1  0.96940000  0.92652000  0.22199000  1
  C  C110  1  0.14202000  0.66779000  0.03755000  1
  C  C111  1  0.14060000  0.17268000  0.52294000  1
  C  C112  1  0.23145000  0.28833000  0.01592000  1
  C  C113  1  0.17525000  0.79274000  0.57272000  1
  C  C114  1  0.37927000  0.21568000  0.72289000  1
  C  C115  1  0.38161000  0.30911000  0.23748000  1
  N  N116  1  0.14791000  0.49880000  0.00000000  1
  N  N117  1  0.14791000  0.99880000  0.50000000  1
  N  N118  1  0.85204000  0.49873000  0.00000000  1
  N  N119  1  0.85204000  0.99873000  0.50000000  1
  O  O120  1  0.61881000  0.59018000  0.09017000  1
  O  O121  1  0.61876000  0.40983000  0.09017000  1
  O  O122  1  0.61876000  0.90983000  0.40983000  1
  O  O123  1  0.61876000  0.90983000  0.59017000  1
  O  O124  1  0.38119000  0.40981000  0.90982000  1
  O  O125  1  0.38119000  0.40981000  0.09018000  1
  O  O126  1  0.38119000  0.90981000  0.40982000  1
  O  O127  1  0.38119000  0.90981000  0.59018000  1
  O  O128  1  0.18205000  0.67231000  0.83109000  1
  O  O129  1  0.27402000  0.55693000  0.23423000  1
  O  O130  1  0.19558000  0.13209000  0.30209000  1
  O  O131  1  0.61881000  0.59018000  0.90983000  1
  O  O132  1  0.23503000  0.08377000  0.72419000  1
  O  O133  1  0.84335000  0.19820000  0.87602000  1
  O  O134  1  0.88346000  0.69585000  0.37547000  1
  O  O135  1  0.73871000  0.31040000  0.99593000  1
  O  O136  1  0.74085000  0.80573000  0.48825000  1
  O  O137  1  0.86591000  0.66172000  0.02450000  1
  O  O138  1  0.86512000  0.16300000  0.51756000  1
  O  O139  1  0.85740000  0.10176000  0.03145000  1
  O  O140  1  0.99507000  0.47797000  0.78146000  1
  O  O141  1  0.81512000  0.59063000  0.50723000  1
  O  O142  1  0.61881000  0.09018000  0.59017000  1
  O  O143  1  0.06842000  0.91252000  0.17881000  1
  O  O144  1  0.61431000  0.17302000  0.06624000  1
  O  O145  1  0.71453000  0.47689000  0.77386000  1
  O  O146  1  0.57448000  0.68671000  0.55664000  1
  O  O147  1  0.70488000  0.97857000  0.26775000  1
  O  O148  1  0.27400000  0.36841000  0.22533000  1
  O  O149  1  0.24879000  0.33450000  0.78469000  1
  O  O150  1  0.31343000  0.89588000  0.75232000  1
  O  O151  1  0.24447000  0.81579000  0.29763000  1
  O  O152  1  0.24601000  0.69522000  0.00483000  1
  O  O153  1  0.61881000  0.09018000  0.40983000  1
  O  O154  1  0.25329000  0.19423000  0.49796000  1
  O  O155  1  0.19584000  0.26889000  0.08491000  1
  O  O156  1  0.12782000  0.82415000  0.63555000  1
  O  O157  1  0.13827000  0.19514000  0.88145000  1
  O  O158  1  0.16274000  0.68773000  0.41968000  1
  O  O159  1  0.38124000  0.59016000  0.09017000  1
  O  O160  1  0.38124000  0.59016000  0.90983000  1
  O  O161  1  0.38124000  0.09016000  0.59017000  1
  O  O162  1  0.38124000  0.09016000  0.40983000  1
  O  O163  1  0.61876000  0.40983000  0.90983000  1
