# generated using pymatgen
data_FeCoH2(CO)6
_symmetry_space_group_name_H-M   'P 1'
_cell_length_a   11.32768000
_cell_length_b   11.37552000
_cell_length_c   11.69878000
_cell_angle_alpha   83.29582000
_cell_angle_beta   83.51463000
_cell_angle_gamma   80.43618000
_symmetry_Int_Tables_number   1
_chemical_formula_structural   FeCoH2(CO)6
_chemical_formula_sum   'Fe3 Co3 H6 C18 O18'
_cell_volume   1469.61595213
_cell_formula_units_Z   3
loop_
 _symmetry_equiv_pos_site_id
 _symmetry_equiv_pos_as_xyz
  1  'x, y, z'
loop_
 _atom_site_type_symbol
 _atom_site_label
 _atom_site_symmetry_multiplicity
 _atom_site_fract_x
 _atom_site_fract_y
 _atom_site_fract_z
 _atom_site_occupancy
  Fe  Fe0  1  0.71677000  0.48433000  0.78558000  1
  Fe  Fe1  1  0.52096000  0.28644000  0.22005000  1
  Fe  Fe2  1  0.49281000  0.59901000  0.05893000  1
  Co  Co3  1  0.63993000  0.35625000  0.90312000  1
  Co  Co4  1  0.64694000  0.36017000  0.09822000  1
  Co  Co5  1  0.40064000  0.50281000  0.94009000  1
  H  H6  1  0.83774000  0.79541000  0.72022000  1
  H  H7  1  0.84842000  0.03655000  0.71948000  1
  H  H8  1  0.27697000  0.73965000  0.61606000  1
  H  H9  1  0.20968000  0.15888000  0.28529000  1
  H  H10  1  0.96764000  0.14877000  0.28411000  1
  H  H11  1  0.25698000  0.72246000  0.38656000  1
  C  C12  1  0.64255000  0.72322000  0.88558000  1
  C  C13  1  0.68567000  0.83642000  0.85029000  1
  C  C14  1  0.78083000  0.86066000  0.77061000  1
  C  C15  1  0.78647000  0.98356000  0.77038000  1
  C  C16  1  0.69400000  0.02786000  0.84914000  1
  C  C17  1  0.65981000  0.15023000  0.87872000  1
  C  C18  1  0.48561000  0.56175000  0.69776000  1
  C  C19  1  0.42689000  0.59264000  0.59101000  1
  C  C20  1  0.33125000  0.67811000  0.55986000  1
  C  C21  1  0.28341000  0.35203000  0.11565000  1
  C  C22  1  0.17064000  0.30682000  0.15015000  1
  C  C23  1  0.14527000  0.21423000  0.23226000  1
  C  C24  1  0.02182000  0.20873000  0.23172000  1
  C  C25  1  0.97855000  0.29858000  0.14985000  1
  C  C26  1  0.85535000  0.33402000  0.12076000  1
  C  C27  1  0.43925000  0.51845000  0.30235000  1
  C  C28  1  0.40985000  0.57769000  0.40804000  1
  C  C29  1  0.32154000  0.66987000  0.44125000  1
  O  O30  1  0.55329000  0.71924000  0.96474000  1
  O  O31  1  0.69962000  0.63414000  0.83472000  1
  O  O32  1  0.63099000  0.93862000  0.89870000  1
  O  O33  1  0.56603000  0.19095000  0.94190000  1
  O  O34  1  0.73279000  0.22398000  0.83398000  1
  O  O35  1  0.42247000  0.58477000  0.79336000  1
  O  O36  1  0.59611000  0.51225000  0.68618000  1
  O  O37  1  0.84409000  0.43466000  0.72581000  1
  O  O38  1  0.28461000  0.44154000  0.03750000  1
  O  O39  1  0.37407000  0.29644000  0.16592000  1
  O  O40  1  0.06896000  0.35929000  0.09844000  1
  O  O41  1  0.81539000  0.42845000  0.05794000  1
  O  O42  1  0.78032000  0.26248000  0.16571000  1
  O  O43  1  0.41051000  0.57772000  0.20589000  1
  O  O44  1  0.49413000  0.41005000  0.31421000  1
  O  O45  1  0.56738000  0.16108000  0.28506000  1
  O  O46  1  0.47566000  0.53027000  0.49883000  1
  O  O47  1  0.54738000  0.45900000  0.00092000  1
