# generated using pymatgen
data_H13C18N4O
_symmetry_space_group_name_H-M   'P 1'
_cell_length_a   24.97636074
_cell_length_b   24.98205000
_cell_length_c   44.75550000
_cell_angle_alpha   91.21780000
_cell_angle_beta   89.99999756
_cell_angle_gamma   119.99259934
_symmetry_Int_Tables_number   1
_chemical_formula_structural   H13C18N4O
_chemical_formula_sum   'H156 C216 N48 O12'
_cell_volume   24178.86226786
_cell_formula_units_Z   12
loop_
 _symmetry_equiv_pos_site_id
 _symmetry_equiv_pos_as_xyz
  1  'x, y, z'
loop_
 _atom_site_type_symbol
 _atom_site_label
 _atom_site_symmetry_multiplicity
 _atom_site_fract_x
 _atom_site_fract_y
 _atom_site_fract_z
 _atom_site_occupancy
  C  1  1  0.29478200  0.75220700  0.76960400  1
  C  2  1  0.35342550  0.78973750  0.78378300  1
  C  3  1  0.36251150  0.79393150  0.81507200  1
  C  4  1  0.31122800  0.75505000  0.83253500  1
  C  5  1  0.25128600  0.71779800  0.82001000  1
  C  6  1  0.24326300  0.71869200  0.78865000  1
  C  9  1  0.28961950  0.74637350  0.73768100  1
  C  10  1  0.32890550  0.79580850  0.71865400  1
  C  11  1  0.32859750  0.78653950  0.68725600  1
  C  12  1  0.28438600  0.72835500  0.67492300  1
  C  13  1  0.24172950  0.67939550  0.69232300  1
  C  14  1  0.24680750  0.68867850  0.72359300  1
  C  21  1  0.19454750  0.62658150  0.67715400  1
  C  22  1  0.20103100  0.68051900  0.83856600  1
  C  23  1  0.41895850  0.83751550  0.82919500  1
  C  24  1  0.37135900  0.83246900  0.66818300  1
  C  29  1  0.49589900  0.73912300  0.43635800  1
  C  30  1  0.47538200  0.68107800  0.45001200  1
  C  31  1  0.47024000  0.67308600  0.48124000  1
  C  32  1  0.48179200  0.72481800  0.49921400  1
  C  33  1  0.50407600  0.78418800  0.48728600  1
  C  34  1  0.51355800  0.79121200  0.45599700  1
  C  37  1  0.49536050  0.74344250  0.40446000  1
  C  38  1  0.50480150  0.70311750  0.38474500  1
  C  39  1  0.49624400  0.70285800  0.35338300  1
  C  40  1  0.48384150  0.74776150  0.34179200  1
  C  41  1  0.47830350  0.79145150  0.35982200  1
  C  42  1  0.48163950  0.78667950  0.39100500  1
  C  49  1  0.47396800  0.83879300  0.34518200  1
  C  50  1  0.51628200  0.83493300  0.50635300  1
  C  51  1  0.45807200  0.61747200  0.49490500  1
  C  52  1  0.49847000  0.65912000  0.33355600  1
  C  57  1  0.27897850  0.53791750  0.10182500  1
  C  58  1  0.24115950  0.55809550  0.11634600  1
  C  59  1  0.23775150  0.56245450  0.14773300  1
  C  60  1  0.27732150  0.55013750  0.16502100  1
  C  61  1  0.31401350  0.52736750  0.15212200  1
  C  62  1  0.31235300  0.51894800  0.12059500  1
  C  65  1  0.28560100  0.54046400  0.06999800  1
  C  66  1  0.23691000  0.53176800  0.05010200  1
  C  67  1  0.24699550  0.54174850  0.01900200  1
  C  68  1  0.30536550  0.55574150  0.00777900  1
  C  69  1  0.35379100  0.56119700  0.02596400  1
  C  70  1  0.34363850  0.55581250  0.05698800  1
  C  77  1  0.40682150  0.56702050  0.01161900  1
  C  78  1  0.35167700  0.51400700  0.17046700  1
  C  79  1  0.19461550  0.57505750  0.16216200  1
  C  80  1  0.20164450  0.53924650  0.99914300  1
  C  85  1  0.75402000  0.26606900  0.27182000  1
  C  86  1  0.69526750  0.22783750  0.28494400  1
  C  87  1  0.68547900  0.22382800  0.31606900  1
  C  88  1  0.73608500  0.26361900  0.33457300  1
  C  89  1  0.79616200  0.30160100  0.32320700  1
  C  90  1  0.80496100  0.30052100  0.29189200  1
  C  93  1  0.75956250  0.27152450  0.23999000  1
  C  94  1  0.72011050  0.22173250  0.21996900  1
  C  95  1  0.71955650  0.23055250  0.18879500  1
  C  96  1  0.76368600  0.28840800  0.17757300  1
  C  97  1  0.80717850  0.33752850  0.19582800  1
  C  98  1  0.80258350  0.32885550  0.22694700  1
  C  105  1  0.85412300  0.38973600  0.18137700  1
  C  106  1  0.84542650  0.34028450  0.34288900  1
  C  107  1  0.62909100  0.17983400  0.32906500  1
  C  108  1  0.67621300  0.18446500  0.16886500  1
  C  113  1  0.55043800  0.27957000  0.93852800  1
  C  114  1  0.57111350  0.33876950  0.95223600  1
  C  115  1  0.57638600  0.34951700  0.98344300  1
  C  116  1  0.56492050  0.29943650  0.00143000  1
  C  117  1  0.54287550  0.23893050  0.98940400  1
  C  118  1  0.53379750  0.22922050  0.95798700  1
  C  121  1  0.55062250  0.27331250  0.90665600  1
  C  122  1  0.53955300  0.31170900  0.88731500  1
  C  123  1  0.54968800  0.31202000  0.85613000  1
  C  124  1  0.56520500  0.26878900  0.84418100  1
  C  125  1  0.57149250  0.22623750  0.86178800  1
  C  126  1  0.56633500  0.23092800  0.89297600  1
  C  133  1  0.57817750  0.17956150  0.84680400  1
  C  134  1  0.53142950  0.19010750  0.00854600  1
  C  135  1  0.58830850  0.40633450  0.99686500  1
  C  136  1  0.54626800  0.35459800  0.83699300  1
  C  141  1  0.76492450  0.48285850  0.60621000  1
  C  142  1  0.80284250  0.46143550  0.61900300  1
  C  143  1  0.80752200  0.45511400  0.64999400  1
  C  144  1  0.76829350  0.46587650  0.66860000  1
  C  145  1  0.72978150  0.48782850  0.65754800  1
  C  146  1  0.73023900  0.49827700  0.62644300  1
  C  149  1  0.76034400  0.48485700  0.57438000  1
  C  150  1  0.81098000  0.49682200  0.55534200  1
  C  151  1  0.80311400  0.48849600  0.52389300  1
  C  152  1  0.74544050  0.47461850  0.51152000  1
  C  153  1  0.69565400  0.46795200  0.52892900  1
  C  154  1  0.70335800  0.47085800  0.56024600  1
  C  161  1  0.64360400  0.46267100  0.51363700  1
  C  162  1  0.69135800  0.49791800  0.67730600  1
  C  163  1  0.85194550  0.44257450  0.66273100  1
  C  164  1  0.84993950  0.49210850  0.50482400  1
  C  169  1  0.21513800  0.58650100  0.94597000  1
  C  170  1  0.27008850  0.62057450  0.92976400  1
  C  171  1  0.26786400  0.64409000  0.90169900  1
  C  172  1  0.21123750  0.63486650  0.89025700  1
  C  173  1  0.15627650  0.59990750  0.90624300  1
  C  174  1  0.15825300  0.57601300  0.93420900  1
  C  176  1  0.37747500  0.68620200  0.89655600  1
  C  177  1  0.38053600  0.66579200  0.92549700  1
  C  181  1  0.43089350  0.71894750  0.87673400  1
  C  185  1  0.43751950  0.67606750  0.94078700  1
  C  191  1  0.40674650  0.81989550  0.61457300  1
  C  192  1  0.38685950  0.76518250  0.59726300  1
  C  193  1  0.41297100  0.76801700  0.56897800  1
  C  194  1  0.46011400  0.82502200  0.55850500  1
  C  195  1  0.47931000  0.87967800  0.57570100  1
  C  196  1  0.45281300  0.87713700  0.60380700  1
  C  198  1  0.34646150  0.65828350  0.56183400  1
  C  199  1  0.32300700  0.65462500  0.59103400  1
  C  203  1  0.32633350  0.60517450  0.54084400  1
  C  207  1  0.27711750  0.59723650  0.60553700  1
  C  213  1  0.44937200  0.62359200  0.27972000  1
  C  214  1  0.41506600  0.64439400  0.26348700  1
  C  215  1  0.39054950  0.61799950  0.23504400  1
  C  216  1  0.39901950  0.57004450  0.22324300  1
  C  217  1  0.43409750  0.55005150  0.23931100  1
  C  218  1  0.45896550  0.57654050  0.26765100  1
  C  220  1  0.34898250  0.68597250  0.23023500  1
  C  221  1  0.37035250  0.71007450  0.25952000  1
  C  225  1  0.31594350  0.70653550  0.21039600  1
  C  229  1  0.36089350  0.75741950  0.27513200  1
  C  235  1  0.83533300  0.43880800  0.45156500  1
  C  236  1  0.77898450  0.40129150  0.43610800  1
  C  237  1  0.77928950  0.37512750  0.40791700  1
  C  238  1  0.83542100  0.38547800  0.39550000  1
  C  239  1  0.89167150  0.42329450  0.41089000  1
  C  240  1  0.89158600  0.44959500  0.43906300  1
  C  242  1  0.66873350  0.32834750  0.40438200  1
  C  243  1  0.66780700  0.35179400  0.43337900  1
  C  247  1  0.61342250  0.29062350  0.38554500  1
  C  251  1  0.61162150  0.34111350  0.44937900  1
  C  257  1  0.63923250  0.20002650  0.11616700  1
  C  258  1  0.65890250  0.25649850  0.10177600  1
  C  259  1  0.63256400  0.25659400  0.07391900  1
  C  260  1  0.58650600  0.20070000  0.06065600  1
  C  261  1  0.56747800  0.14427700  0.07487300  1
  C  262  1  0.59342650  0.14401250  0.10281100  1
  C  264  1  0.69720600  0.36705800  0.07228000  1
  C  265  1  0.72195300  0.36757100  0.10085500  1
  C  269  1  0.71504400  0.42260600  0.05468500  1
  C  273  1  0.76847450  0.42344550  0.11748800  1
  C  279  1  0.59739750  0.39138850  0.78439300  1
  C  280  1  0.63466500  0.37257600  0.76892000  1
  C  281  1  0.65963700  0.39835300  0.74108700  1
  C  282  1  0.64835050  0.44348150  0.72904000  1
  C  283  1  0.61071850  0.46187250  0.74442200  1
  C  284  1  0.58556800  0.43611900  0.77223700  1
  C  286  1  0.70706450  0.33516950  0.73721400  1
  C  287  1  0.68470350  0.31142350  0.76586200  1
  C  291  1  0.74460300  0.31763500  0.71845100  1
  C  295  1  0.69627450  0.26660550  0.78154900  1
  C  301  1  0.50116150  0.94798250  0.82465300  1
  C  302  1  0.53091400  0.96455100  0.85306900  1
  C  303  1  0.55934400  0.02697600  0.86375600  1
  C  304  1  0.55961550  0.07346350  0.84616700  1
  C  305  1  0.53867750  0.05734150  0.81610100  1
  C  306  1  0.51038550  0.99578350  0.80549300  1
  C  308  1  0.59099550  0.99916750  0.90869800  1
  C  309  1  0.56598900  0.93775400  0.89732100  1
  C  313  1  0.62357550  0.02098550  0.93784500  1
  C  317  1  0.57316700  0.89004700  0.91286900  1
  C  323  1  0.48767900  0.53596100  0.49036800  1
  C  324  1  0.47343000  0.50728700  0.51853600  1
  C  325  1  0.50754500  0.47988800  0.52940700  1
  C  326  1  0.55510900  0.47973300  0.51232200  1
  C  327  1  0.56112600  0.49962200  0.48241300  1
  C  328  1  0.52743450  0.52644750  0.47151500  1
  C  330  1  0.44570500  0.44899200  0.57357600  1
  C  331  1  0.40922650  0.47287550  0.56198000  1
  C  335  1  0.43384300  0.41742500  0.60243700  1
  C  339  1  0.35316900  0.46529400  0.57696900  1
  C  345  1  0.08332950  0.54462650  0.15823300  1
  C  346  1  0.06918050  0.55961450  0.18679400  1
  C  347  1  0.00791650  0.52566150  0.19789800  1
  C  348  1  0.96004850  0.47733250  0.18063700  1
  C  349  1  0.97354400  0.47019800  0.15048900  1
  C  350  1  0.03388250  0.50361450  0.13942700  1
  C  352  1  0.03950150  0.58949450  0.24254300  1
  C  353  1  0.09960500  0.62565400  0.23076000  1
  C  357  1  0.02030450  0.60262450  0.27176800  1
  C  361  1  0.14835800  0.68242300  0.24590700  1
  C  367  1  0.54937850  0.06846050  0.32325900  1
  C  368  1  0.51843850  0.05364050  0.35101600  1
  C  369  1  0.49119000  0.99232600  0.36170800  1
  C  370  1  0.49313950  0.94495850  0.34471500  1
  C  371  1  0.51583100  0.95909700  0.31516100  1
  C  372  1  0.54274350  0.01949450  0.30450200  1
  C  374  1  0.45513850  0.02256250  0.40506300  1
  C  375  1  0.47855300  0.08250600  0.39344800  1
  C  379  1  0.42110200  0.00268900  0.43344400  1
  C  383  1  0.46745450  0.13006050  0.40759100  1
  C  389  1  0.55953100  0.48778100  0.99094200  1
  C  390  1  0.57458400  0.51961200  0.01899500  1
  C  391  1  0.54089800  0.54825600  0.02941500  1
  C  392  1  0.49322150  0.54689650  0.01179100  1
  C  393  1  0.48625600  0.52366000  0.98197700  1
  C  394  1  0.51916100  0.49503800  0.97168400  1
  C  396  1  0.60455550  0.58444150  0.07371700  1
  C  397  1  0.64076600  0.55948600  0.06242600  1
  C  401  1  0.61769250  0.61946050  0.10240600  1
  C  405  1  0.69805300  0.56959600  0.07729100  1
  C  411  1  0.96262150  0.47243750  0.65633500  1
  C  412  1  0.97984800  0.45800800  0.68389300  1
  C  413  1  0.04232650  0.49218650  0.69412900  1
  C  414  1  0.08827050  0.53953550  0.67680500  1
  C  415  1  0.07149700  0.54580800  0.64734300  1
  C  416  1  0.00987150  0.51235550  0.63717800  1
  C  418  1  0.01588050  0.43004050  0.73774800  1
  C  419  1  0.95461250  0.39315650  0.72655900  1
  C  423  1  0.03839050  0.41816750  0.76601700  1
  C  427  1  0.90805600  0.33613200  0.74105600  1
  H  7  1  0.39218800  0.81174600  0.77117100  1
  H  8  1  0.31632400  0.75932300  0.85527900  1
  H  15  1  0.28036150  0.72252550  0.65218200  1
  H  16  1  0.22029100  0.65094100  0.73609800  1
  H  19  1  0.16554550  0.64703250  0.77855100  1
  H  20  1  0.40618600  0.86818000  0.72847900  1
  H  25  1  0.19489550  0.62738150  0.65437000  1
  H  26  1  0.15635050  0.65855150  0.83096900  1
  H  27  1  0.42238100  0.83752600  0.85196000  1
  H  28  1  0.40226250  0.87625050  0.67558700  1
  H  35  1  0.45890750  0.64181350  0.43709800  1
  H  36  1  0.48098500  0.72062000  0.52190400  1
  H  43  1  0.48280900  0.75148700  0.31911100  1
  H  44  1  0.47081700  0.81397600  0.40388100  1
  H  47  1  0.52032900  0.86898100  0.44693400  1
  H  48  1  0.49856850  0.62546650  0.39330500  1
  H  53  1  0.47422250  0.83710050  0.32240500  1
  H  54  1  0.53967400  0.87937700  0.49923200  1
  H  55  1  0.45383900  0.61493500  0.51763700  1
  H  56  1  0.51029950  0.62766950  0.34044600  1
  H  63  1  0.21873700  0.57498800  0.10408900  1
  H  64  1  0.27362200  0.55056600  0.18776900  1
  H  71  1  0.31176550  0.55823550  0.98517700  1
  H  72  1  0.38101950  0.56636950  0.07021300  1
  H  75  1  0.38328000  0.51182700  0.11072100  1
  H  76  1  0.16501750  0.53747550  0.05904900  1
  H  81  1  0.40651550  0.56739850  0.98883600  1
  H  82  1  0.37238550  0.49034550  0.16245500  1
  H  83  1  0.19578550  0.57903850  0.18496800  1
  H  84  1  0.15778450  0.52648450  0.00569200  1
  H  91  1  0.65667550  0.20543150  0.27173700  1
  H  92  1  0.73029600  0.25981400  0.35719600  1
  H  99  1  0.76731100  0.29346600  0.15492100  1
  H  100  1  0.82959350  0.36681450  0.24010000  1
  H  103  1  0.88218150  0.37296350  0.28374600  1
  H  104  1  0.64332750  0.14870950  0.22823600  1
  H  109  1  0.85226650  0.38810750  0.15861100  1
  H  110  1  0.89034300  0.36345900  0.33615000  1
  H  111  1  0.62514450  0.18060550  0.35178900  1
  H  112  1  0.64580650  0.14071350  0.17543800  1
  H  119  1  0.58736100  0.37687100  0.93936800  1
  H  120  1  0.56651650  0.30597550  0.02412200  1
  H  127  1  0.56763100  0.26505300  0.82148500  1
  H  128  1  0.57772600  0.20472300  0.90575200  1
  H  131  1  0.53008850  0.15226950  0.94879200  1
  H  132  1  0.54157800  0.38787300  0.89688700  1
  H  137  1  0.57824050  0.18010750  0.82403100  1
  H  138  1  0.51076200  0.14507300  0.00127100  1
  H  139  1  0.59255150  0.41133250  0.01963900  1
  H  140  1  0.53127450  0.38394950  0.84405700  1
  H  147  1  0.82495250  0.44551350  0.60547600  1
  H  148  1  0.77262600  0.46353800  0.69117900  1
  H  155  1  0.74102900  0.47386900  0.48876500  1
  H  156  1  0.66499850  0.45915850  0.57263900  1
  H  159  1  0.65708050  0.50185150  0.61788300  1
  H  160  1  0.88448700  0.49400700  0.56467100  1
  H  165  1  0.64590250  0.46350050  0.49090400  1
  H  166  1  0.66746100  0.51915800  0.67091200  1
  H  167  1  0.85259850  0.43849350  0.68538800  1
  H  168  1  0.89359750  0.50574150  0.51232700  1
  H  179  1  0.11843800  0.55153000  0.94597600  1
  H  180  1  0.11507350  0.59304550  0.89797800  1
  H  182  1  0.41669150  0.72582350  0.85476000  1
  H  183  1  0.45440600  0.69238200  0.87362800  1
  H  184  1  0.46275700  0.76397500  0.88665800  1
  H  186  1  0.47927350  0.70590550  0.92847500  1
  H  187  1  0.43524350  0.63174450  0.94362900  1
  H  188  1  0.44138600  0.69760900  0.96275800  1
  H  201  1  0.46742250  0.91678450  0.61637900  1
  H  202  1  0.51334900  0.92118200  0.56813100  1
  H  204  1  0.34660350  0.61992150  0.51884100  1
  H  205  1  0.27614750  0.58062150  0.53811300  1
  H  206  1  0.34087150  0.57407750  0.54947300  1
  H  208  1  0.26575300  0.55572300  0.59228800  1
  H  209  1  0.23467450  0.59866250  0.60913100  1
  H  210  1  0.29530750  0.59364550  0.62711500  1
  H  223  1  0.48365100  0.56129700  0.27942100  1
  H  224  1  0.44053500  0.51540200  0.23077100  1
  H  226  1  0.30847400  0.68509100  0.18815100  1
  H  227  1  0.34263150  0.75655950  0.20799600  1
  H  228  1  0.27116800  0.69372200  0.21986400  1
  H  230  1  0.33023950  0.76867950  0.26289300  1
  H  231  1  0.40535350  0.79964150  0.27825400  1
  H  232  1  0.34068000  0.74075600  0.29697900  1
  H  245  1  0.93241850  0.47664250  0.45029400  1
  H  246  1  0.93252000  0.43108000  0.40189000  1
  H  248  1  0.62573950  0.28230650  0.36323500  1
  H  249  1  0.58667450  0.31397550  0.38314200  1
  H  250  1  0.58536700  0.24631600  0.39599300  1
  H  252  1  0.56907750  0.30718950  0.43802100  1
  H  253  1  0.61129450  0.38448750  0.45140400  1
  H  254  1  0.61174150  0.32441750  0.47170700  1
  H  267  1  0.57904500  0.10309600  0.11326200  1
  H  268  1  0.53414100  0.10362400  0.06526200  1
  H  270  1  0.69301700  0.41069400  0.03262200  1
  H  271  1  0.76500400  0.44823200  0.05164000  1
  H  272  1  0.70059100  0.45162000  0.06652700  1
  H  274  1  0.77788250  0.46621850  0.10701300  1
  H  275  1  0.81167250  0.42273150  0.11882500  1
  H  276  1  0.75219950  0.42387650  0.14007800  1
  H  289  1  0.55870850  0.44990750  0.78348700  1
  H  290  1  0.60227400  0.49447400  0.73568700  1
  H  292  1  0.75226500  0.33789400  0.69641300  1
  H  293  1  0.72148800  0.26750600  0.71536000  1
  H  294  1  0.78919950  0.33435250  0.72938700  1
  H  296  1  0.72923200  0.25714800  0.77005800  1
  H  297  1  0.65290800  0.22312500  0.78342000  1
  H  298  1  0.71463350  0.28460750  0.80394000  1
  H  311  1  0.48909300  0.98543700  0.78490100  1
  H  312  1  0.53684350  0.08835050  0.80230600  1
  H  314  1  0.63827900  0.06961100  0.94222900  1
  H  315  1  0.66455700  0.01601700  0.93806700  1
  H  316  1  0.59294600  0.99398600  0.95576500  1
  H  318  1  0.62185300  0.90708100  0.91797100  1
  H  319  1  0.55671150  0.84838150  0.89896500  1
  H  320  1  0.54717850  0.87814350  0.93361100  1
  H  333  1  0.53929800  0.54698500  0.45113000  1
  H  334  1  0.59459900  0.50109800  0.46885800  1
  H  336  1  0.46806050  0.40355250  0.60707700  1
  H  337  1  0.38819350  0.37602150  0.60199400  1
  H  338  1  0.43602250  0.44842550  0.62054300  1
  H  340  1  0.32190950  0.41666850  0.58158800  1
  H  341  1  0.32803600  0.48052700  0.56290600  1
  H  342  1  0.36585650  0.49209050  0.59793400  1
  H  355  1  0.04236950  0.49094750  0.11880700  1
  H  356  1  0.94165400  0.43575300  0.13687500  1
  H  358  1  0.97233400  0.56855700  0.27649300  1
  H  359  1  0.02444750  0.64822150  0.27184600  1
  H  360  1  0.04950350  0.60132950  0.28954300  1
  H  362  1  0.13112450  0.71398750  0.25098500  1
  H  363  1  0.18855000  0.70673300  0.23174300  1
  H  364  1  0.16273000  0.67076000  0.26663200  1
  H  377  1  0.56530100  0.02856300  0.28450100  1
  H  378  1  0.51944700  0.92751700  0.30180700  1
  H  380  1  0.40806400  0.95501800  0.43821100  1
  H  381  1  0.37899350  0.00556550  0.43218800  1
  H  382  1  0.45007700  0.03232500  0.45187400  1
  H  384  1  0.41816600  0.11113200  0.41144700  1
  H  385  1  0.48243800  0.16963300  0.39322900  1
  H  386  1  0.49240800  0.14577300  0.42888400  1
  H  399  1  0.50675200  0.47211400  0.95136500  1
  H  400  1  0.45208750  0.52030550  0.96824300  1
  H  402  1  0.58355300  0.63369900  0.10682500  1
  H  403  1  0.66323800  0.66090900  0.10187900  1
  H  404  1  0.61650800  0.59070100  0.12069300  1
  H  406  1  0.72914650  0.61885750  0.08167900  1
  H  407  1  0.72263600  0.55312600  0.06316600  1
  H  408  1  0.68701650  0.54535450  0.09837200  1
  H  421  1  0.99907550  0.52440750  0.61725300  1
  H  422  1  0.10217500  0.57957800  0.63383900  1
  H  424  1  0.08671750  0.45277050  0.77044000  1
  H  425  1  0.03474250  0.37279250  0.76484800  1
  H  426  1  0.01090750  0.41969750  0.78461800  1
  H  428  1  0.92690800  0.30577600  0.74497800  1
  H  429  1  0.86709050  0.31045450  0.72688600  1
  H  430  1  0.89456000  0.34767700  0.76234700  1
  N  175  1  0.32141200  0.67468100  0.88638600  1
  N  178  1  0.32648250  0.63337150  0.94034700  1
  N  189  1  0.22082500  0.56653900  0.97268700  1
  N  190  1  0.21210850  0.66063050  0.86415800  1
  N  197  1  0.39053350  0.71467050  0.55255800  1
  N  200  1  0.34385950  0.70848650  0.60697600  1
  N  211  1  0.38032150  0.81363150  0.64127900  1
  N  212  1  0.48593600  0.82544400  0.53217400  1
  N  219  1  0.35983350  0.64093550  0.21973200  1
  N  222  1  0.40299400  0.68853000  0.27438100  1
  N  233  1  0.47053550  0.64986150  0.30676900  1
  N  234  1  0.37292350  0.54462350  0.19666000  1
  N  241  1  0.72431550  0.34088250  0.39336700  1
  N  244  1  0.72314250  0.38770050  0.44749500  1
  N  255  1  0.83189650  0.46199650  0.47829400  1
  N  256  1  0.83201600  0.35844500  0.36883300  1
  N  263  1  0.65362700  0.31169700  0.06048600  1
  N  266  1  0.70186700  0.31212400  0.11389700  1
  N  277  1  0.66522850  0.20314550  0.14281300  1
  N  278  1  0.56345450  0.20487850  0.03433800  1
  N  285  1  0.69373200  0.37764600  0.72652600  1
  N  288  1  0.64906100  0.33091500  0.77998400  1
  N  299  1  0.57563750  0.36536950  0.81080000  1
  N  300  1  0.67457050  0.46659050  0.70276300  1
  N  307  1  0.58657050  0.04069450  0.89126600  1
  N  310  1  0.53615700  0.92323200  0.87033100  1
  N  321  1  0.45485300  0.89150700  0.81548500  1
  N  322  1  0.57316650  0.12854150  0.85953200  1
  N  329  1  0.49286600  0.45353400  0.55662800  1
  N  332  1  0.42563950  0.50187950  0.53530800  1
  N  343  1  0.47715750  0.58137350  0.48115700  1
  N  344  1  0.59618750  0.46680750  0.52597200  1
  N  351  1  0.99666950  0.54147350  0.22544500  1
  N  354  1  0.11173400  0.60821800  0.20371600  1
  N  365  1  0.13926600  0.55520400  0.14859800  1
  N  366  1  0.90606850  0.43677450  0.19416800  1
  N  373  1  0.46233850  0.98041850  0.38849000  1
  N  376  1  0.51011250  0.09540650  0.36730500  1
  N  387  1  0.59488700  0.12476300  0.31465400  1
  N  388  1  0.47873200  0.89067000  0.35802000  1
  N  395  1  0.55664050  0.57782950  0.05653700  1
  N  398  1  0.62321250  0.52725150  0.03591200  1
  N  409  1  0.56955850  0.44113450  0.98240400  1
  N  410  1  0.45267950  0.56165050  0.02482400  1
  N  417  1  0.05671500  0.47746900  0.72084700  1
  N  420  1  0.93931450  0.40976950  0.70050600  1
  N  431  1  0.90575200  0.46189100  0.64822400  1
  N  432  1  0.14365550  0.58042350  0.68993200  1
  O  17  1  0.18453750  0.69215150  0.77703200  1
  O  18  1  0.36199300  0.85490700  0.73008400  1
  O  45  1  0.54620200  0.84962800  0.44506100  1
  O  46  1  0.52998100  0.66953900  0.39541500  1
  O  73  1  0.33809150  0.48643750  0.10835800  1
  O  74  1  0.17759400  0.50598800  0.06016600  1
  O  101  1  0.86400400  0.32791000  0.28128900  1
  O  102  1  0.68768150  0.16266550  0.23012100  1
  O  129  1  0.50283350  0.16991750  0.94665800  1
  O  130  1  0.51180550  0.34337250  0.89818200  1
  O  157  1  0.70203600  0.52949800  0.61637900  1
  O  158  1  0.86974750  0.52375050  0.56695600  1
