# generated using pymatgen
data_Cr6H39C62N3O34
_symmetry_space_group_name_H-M   'P 1'
_cell_length_a   11.00430000
_cell_length_b   11.02433000
_cell_length_c   18.80318000
_cell_angle_alpha   90.40286000
_cell_angle_beta   90.11027000
_cell_angle_gamma   60.43989000
_symmetry_Int_Tables_number   1
_chemical_formula_structural   Cr6H39C62N3O34
_chemical_formula_sum   'Cr6 H39 C62 N3 O34'
_cell_volume   1984.14400731
_cell_formula_units_Z   1
loop_
 _symmetry_equiv_pos_site_id
 _symmetry_equiv_pos_as_xyz
  1  'x, y, z'
loop_
 _atom_site_type_symbol
 _atom_site_label
 _atom_site_symmetry_multiplicity
 _atom_site_fract_x
 _atom_site_fract_y
 _atom_site_fract_z
 _atom_site_occupancy
  Cr  Cr0  1  0.39296000  0.39792000  0.50224000  1
  Cr  Cr1  1  0.39834000  0.70848000  0.50125000  1
  Cr  Cr2  1  0.70867000  0.39357000  0.49646000  1
  Cr  Cr3  1  0.93765000  0.93854000  0.00761000  1
  Cr  Cr4  1  0.62533000  0.93737000  0.99452000  1
  Cr  Cr5  1  0.93794000  0.62523000  0.00119000  1
  H  H6  1  0.63184000  0.89618000  0.78962000  1
  H  H7  1  0.62372000  0.87368000  0.67281000  1
  H  H8  1  0.86935000  0.71927000  0.78108000  1
  H  H9  1  0.84639000  0.69949000  0.66413000  1
  H  H10  1  0.53952000  0.61690000  0.81876000  1
  H  H11  1  0.53301000  0.57488000  0.70474000  1
  H  H12  1  0.71157000  0.44506000  0.70366000  1
  H  H13  1  0.92734000  0.54101000  0.79461000  1
  H  H14  1  0.49054000  0.13859000  0.68441000  1
  H  H15  1  0.48886000  0.14604000  0.80978000  1
  H  H16  1  0.94889000  0.96190000  0.79917000  1
  H  H17  1  0.99868000  0.10208000  0.80776000  1
  H  H18  1  0.98335000  0.13150000  0.68080000  1
  H  H19  1  0.94387000  0.98553000  0.67152000  1
  H  H20  1  0.17802000  0.86376000  0.69665000  1
  H  H21  1  0.19560000  0.85530000  0.82367000  1
  H  H22  1  0.20174000  0.36173000  0.82036000  1
  H  H23  1  0.35485000  0.39116000  0.83003000  1
  H  H24  1  0.37578000  0.39194000  0.70255000  1
  H  H25  1  0.23038000  0.35010000  0.69357000  1
  H  H26  1  0.50697000  0.86818000  0.31804000  1
  H  H27  1  0.51212000  0.89572000  0.18857000  1
  H  H28  1  0.93312000  0.44848000  0.17405000  1
  H  H29  1  0.84849000  0.30655000  0.28469000  1
  H  H30  1  0.92772000  0.41990000  0.29937000  1
  H  H31  1  0.86648000  0.10346000  0.32553000  1
  H  H32  1  0.88120000  0.07680000  0.19626000  1
  H  H33  1  0.34491000  0.18008000  0.18521000  1
  H  H34  1  0.38226000  0.32823000  0.17655000  1
  H  H35  1  0.36590000  0.35994000  0.30212000  1
  H  H36  1  0.32448000  0.21452000  0.31111000  1
  H  H37  1  0.11827000  0.49949000  0.33131000  1
  H  H38  1  0.06311000  0.52758000  0.20416000  1
  H  H39  1  0.11527000  0.99256000  0.19945000  1
  H  H40  1  0.26356000  0.81259000  0.18335000  1
  H  H41  1  0.31615000  0.79363000  0.30534000  1
  H  H42  1  0.16342000  0.97166000  0.32257000  1
  H  H43  1  0.00566000  0.47931000  0.61863000  1
  H  H44  1  0.37826000  0.82156000  0.68120000  1
  C  C45  1  0.23731000  0.64591000  0.60980000  1
  C  C46  1  0.65654000  0.62546000  0.59899000  1
  C  C47  1  0.62886000  0.22706000  0.60195000  1
  C  C48  1  0.21960000  0.65063000  0.40244000  1
  C  C49  1  0.64051000  0.62024000  0.39118000  1
  C  C50  1  0.61717000  0.22648000  0.39637000  1
  C  C51  1  0.58784000  0.82622000  0.78032000  1
  C  C52  1  0.57980000  0.81232000  0.69790000  1
  C  C53  1  0.83988000  0.63711000  0.77204000  1
  C  C54  1  0.64739000  0.57468000  0.79866000  1
  C  C55  1  0.69852000  0.68058000  0.81182000  1
  C  C56  1  0.67523000  0.65431000  0.67439000  1
  C  C57  1  0.82807000  0.62035000  0.69123000  1
  C  C58  1  0.63978000  0.55525000  0.71842000  1
  C  C59  1  0.68231000  0.15213000  0.82222000  1
  C  C60  1  0.78323000  0.16477000  0.78357000  1
  C  C61  1  0.77381000  0.17939000  0.70951000  1
  C  C62  1  0.57411000  0.14625000  0.71064000  1
  C  C63  1  0.57229000  0.15287000  0.78373000  1
  C  C64  1  0.93365000  0.06380000  0.78127000  1
  C  C65  1  0.92545000  0.08047000  0.70145000  1
  C  C66  1  0.66991000  0.16784000  0.67239000  1
  C  C67  1  0.17680000  0.67022000  0.83406000  1
  C  C68  1  0.16355000  0.56873000  0.79518000  1
  C  C69  1  0.17411000  0.56346000  0.72103000  1
  C  C70  1  0.18387000  0.77476000  0.72280000  1
  C  C71  1  0.19361000  0.76974000  0.79641000  1
  C  C72  1  0.25766000  0.41580000  0.80076000  1
  C  C73  1  0.27215000  0.41145000  0.72074000  1
  C  C74  1  0.18571000  0.66604000  0.68331000  1
  C  C75  1  0.64744000  0.67469000  0.16687000  1
  C  C76  1  0.70941000  0.54384000  0.19790000  1
  C  C77  1  0.70712000  0.52811000  0.27014000  1
  C  C78  1  0.56539000  0.77667000  0.28484000  1
  C  C79  1  0.56529000  0.79177000  0.21060000  1
  C  C80  1  0.85314000  0.42214000  0.19020000  1
  C  C81  1  0.85019000  0.40212000  0.26983000  1
  C  C82  1  0.64630000  0.64437000  0.31556000  1
  C  C83  1  0.66720000  0.12387000  0.18205000  1
  C  C84  1  0.55237000  0.13424000  0.21775000  1
  C  C85  1  0.54309000  0.15024000  0.29014000  1
  C  C86  1  0.77793000  0.11259000  0.29587000  1
  C  C87  1  0.78516000  0.10017000  0.22209000  1
  C  C88  1  0.40125000  0.23329000  0.20599000  1
  C  C89  1  0.38981000  0.25344000  0.28578000  1
  C  C90  1  0.65052000  0.15379000  0.32917000  1
  C  C91  1  0.06398000  0.72164000  0.19467000  1
  C  C92  1  0.07844000  0.82289000  0.23229000  1
  C  C93  1  0.11077000  0.80772000  0.30300000  1
  C  C94  1  0.10338000  0.59247000  0.30454000  1
  C  C95  1  0.07029000  0.60883000  0.23200000  1
  C  C96  1  0.17178000  0.88270000  0.21681000  1
  C  C97  1  0.20484000  0.86945000  0.29476000  1
  C  C98  1  0.13531000  0.68686000  0.33875000  1
  C  C99  1  0.70243000  0.09909000  0.89516000  1
  C  C100  1  0.72428000  0.68987000  0.88806000  1
  C  C101  1  0.11758000  0.70658000  0.90563000  1
  C  C102  1  0.67930000  0.09706000  0.10661000  1
  C  C103  1  0.69579000  0.69165000  0.09763000  1
  C  C104  1  0.03387000  0.74316000  0.11928000  1
  C  C105  1  0.94417000  0.48152000  0.66421000  1
  C  C106  1  0.43184000  0.87813000  0.67279000  1
  N  N107  1  0.44826000  0.89384000  0.81553000  1
  N  N108  1  0.85683000  0.31114000  0.14594000  1
  N  N109  1  0.73244000  0.44292000  0.83609000  1
  O  O110  1  0.50738000  0.25570000  0.58144000  1
  O  O111  1  0.28032000  0.52735000  0.57893000  1
  O  O112  1  0.26051000  0.73959000  0.58459000  1
  O  O113  1  0.53230000  0.69508000  0.57382000  1
  O  O114  1  0.74484000  0.50350000  0.57637000  1
  O  O115  1  0.69912000  0.27656000  0.57196000  1
  O  O116  1  0.49894000  0.25650000  0.41986000  1
  O  O117  1  0.27250000  0.52808000  0.42915000  1
  O  O118  1  0.25206000  0.74038000  0.42301000  1
  O  O119  1  0.52448000  0.69581000  0.42404000  1
  O  O120  1  0.73639000  0.50429000  0.41479000  1
  O  O121  1  0.69130000  0.27729000  0.42217000  1
  O  O122  1  0.49999000  0.49999000  0.49998000  1
  O  O123  1  0.08940000  0.82569000  0.93057000  1
  O  O124  1  0.81846000  0.05444000  0.92985000  1
  O  O125  1  0.60606000  0.07715000  0.91551000  1
  O  O126  1  0.64655000  0.80668000  0.91757000  1
  O  O127  1  0.83717000  0.59341000  0.91525000  1
  O  O128  1  0.06520000  0.63553000  0.93157000  1
  O  O129  1  0.06826000  0.82889000  0.09184000  1
  O  O130  1  0.79887000  0.05741000  0.07934000  1
  O  O131  1  0.58493000  0.08035000  0.07678000  1
  O  O132  1  0.62696000  0.80965000  0.06706000  1
  O  O133  1  0.81604000  0.59661000  0.07651000  1
  O  O134  1  0.04561000  0.63850000  0.08106000  1
  O  O135  1  0.83364000  0.83371000  0.00110000  1
  O  O136  1  0.96848000  0.37171000  0.69136000  1
  O  O137  1  0.41780000  0.83547000  0.86719000  1
  O  O138  1  0.35814000  0.02273000  0.80080000  1
  O  O139  1  0.74810000  0.33435000  0.10830000  1
  O  O140  1  0.97803000  0.20815000  0.12758000  1
  O  O141  1  0.37622000  0.98904000  0.64126000  1
  O  O142  1  0.86577000  0.36765000  0.82419000  1
  O  O143  1  0.67821000  0.41107000  0.88929000  1
