# generated using pymatgen
data_CdH18C27(N3O2)2
_symmetry_space_group_name_H-M   'P 1'
_cell_length_a   11.28455047
_cell_length_b   13.70983143
_cell_length_c   24.61263957
_cell_angle_alpha   90.00001810
_cell_angle_beta   90.00001636
_cell_angle_gamma   113.79970162
_symmetry_Int_Tables_number   1
_chemical_formula_structural   CdH18C27(N3O2)2
_chemical_formula_sum   'Cd4 H72 C108 N24 O16'
_cell_volume   3483.99495840
_cell_formula_units_Z   4
loop_
 _symmetry_equiv_pos_site_id
 _symmetry_equiv_pos_as_xyz
  1  'x, y, z'
loop_
 _atom_site_type_symbol
 _atom_site_label
 _atom_site_symmetry_multiplicity
 _atom_site_fract_x
 _atom_site_fract_y
 _atom_site_fract_z
 _atom_site_occupancy
  Cd  Cd1  1  0.81781953  0.17405766  0.16233168  1.0
  Cd  Cd2  1  0.81781979  0.67405782  0.33766821  1.0
  Cd  Cd3  1  0.18218090  0.82594238  0.83766824  1.0
  Cd  Cd4  1  0.18218063  0.32594220  0.66233164  1.0
  H  H1  1  0.58600615  0.77997098  0.30207037  1.0
  H  H2  1  0.17446592  0.59810163  0.15049631  1.0
  H  H3  1  0.51996018  0.88964061  0.14977429  1.0
  H  H4  1  0.03711888  0.44573370  0.94283691  1.0
  H  H5  1  0.09471146  0.16936117  0.76464277  1.0
  H  H6  1  0.48004003  0.61035837  0.64977429  1.0
  H  H7  1  0.95659146  0.93424809  0.37088212  1.0
  H  H8  1  0.52929227  0.41082711  0.80049302  1.0
  H  H9  1  0.37795870  0.01225322  0.67200622  1.0
  H  H10  1  0.14833829  0.04394289  0.91584458  1.0
  H  H11  1  0.77932249  0.16358138  0.31619693  1.0
  H  H12  1  0.39317801  0.21047867  0.38816919  1.0
  H  H13  1  0.60682212  0.78952143  0.61183087  1.0
  H  H14  1  0.51996024  0.38964159  0.35022567  1.0
  H  H15  1  0.99570781  0.80827846  0.95404590  1.0
  H  H16  1  0.85166204  0.45605740  0.41584452  1.0
  H  H17  1  0.08899957  0.16392204  0.27192224  1.0
  H  H18  1  0.76551892  0.30419605  0.95571856  1.0
  H  H19  1  0.25713245  0.97212949  0.34208646  1.0
  H  H20  1  0.65267666  0.22897967  0.05739699  1.0
  H  H21  1  0.34732335  0.77102063  0.94260304  1.0
  H  H22  1  0.95659138  0.43424802  0.12911784  1.0
  H  H23  1  0.22067700  0.83641850  0.68380328  1.0
  H  H24  1  0.09471153  0.66936118  0.73535723  1.0
  H  H25  1  0.96809969  0.11343554  0.93337592  1.0
  H  H26  1  0.14833838  0.54394283  0.58415553  1.0
  H  H27  1  0.65267675  0.72897968  0.44260291  1.0
  H  H28  1  0.25713202  0.47212936  0.15791322  1.0
  H  H29  1  0.74286701  0.52787047  0.84208702  1.0
  H  H30  1  0.87149520  0.52083002  0.24826102  1.0
  H  H31  1  0.91099939  0.83607867  0.72807841  1.0
  H  H32  1  0.47070748  0.58917279  0.19950677  1.0
  H  H33  1  0.00429207  0.19172170  0.04595407  1.0
  H  H34  1  0.96288111  0.05426647  0.44283695  1.0
  H  H35  1  0.99570787  0.30827845  0.54595416  1.0
  H  H36  1  0.96809986  0.61343557  0.56662408  1.0
  H  H37  1  0.96288118  0.55426641  0.05716307  1.0
  H  H38  1  0.52929229  0.91082728  0.69950714  1.0
  H  H39  1  0.03711880  0.94573353  0.55716315  1.0
  H  H40  1  0.04340853  0.06575206  0.62911786  1.0
  H  H41  1  0.34732339  0.27102073  0.55739707  1.0
  H  H42  1  0.39317755  0.71047731  0.11183074  1.0
  H  H43  1  0.23448089  0.69580407  0.04428145  1.0
  H  H44  1  0.85166191  0.95605736  0.08415548  1.0
  H  H45  1  0.82553368  0.40189844  0.84950342  1.0
  H  H46  1  0.87149513  0.02082999  0.25173900  1.0
  H  H47  1  0.91099979  0.33607895  0.77192169  1.0
  H  H48  1  0.37795888  0.51225351  0.82799393  1.0
  H  H49  1  0.12850515  0.47917003  0.75173902  1.0
  H  H50  1  0.08899918  0.66392158  0.22807773  1.0
  H  H51  1  0.76551890  0.80419589  0.54428140  1.0
  H  H52  1  0.22067686  0.33641853  0.81619688  1.0
  H  H53  1  0.62204106  0.98774666  0.32799394  1.0
  H  H54  1  0.90528773  0.33063841  0.26464279  1.0
  H  H55  1  0.03189993  0.38656441  0.43337598  1.0
  H  H56  1  0.41399380  0.22002902  0.69792956  1.0
  H  H57  1  0.23448095  0.19580420  0.45571865  1.0
  H  H58  1  0.41399378  0.72002918  0.80207054  1.0
  H  H59  1  0.60682265  0.28952233  0.88816918  1.0
  H  H60  1  0.77932222  0.66358135  0.18380291  1.0
  H  H61  1  0.82553320  0.90189784  0.65049657  1.0
  H  H62  1  0.00429215  0.69172176  0.45404596  1.0
  H  H63  1  0.12850494  0.97916988  0.74826109  1.0
  H  H64  1  0.04340832  0.56575204  0.87088228  1.0
  H  H65  1  0.90528763  0.83063835  0.23535720  1.0
  H  H66  1  0.48004020  0.11035928  0.85022580  1.0
  H  H67  1  0.17446645  0.09810249  0.34950376  1.0
  H  H68  1  0.58600618  0.27997104  0.19792960  1.0
  H  H69  1  0.62204104  0.48774673  0.17200605  1.0
  H  H70  1  0.03189992  0.88656438  0.06662406  1.0
  H  H71  1  0.47070787  0.08917253  0.30049298  1.0
  H  H72  1  0.74286750  0.02787056  0.65791333  1.0
  C  C1  1  0.05336099  0.88146539  0.57729345  1.0
  C  C2  1  0.87230597  0.47852423  0.28525488  1.0
  C  C3  1  0.79670720  0.77140569  0.50988104  1.0
  C  C4  1  0.99609846  0.77780752  0.55722165  1.0
  C  C5  1  0.00390135  0.22219245  0.44277844  1.0
  C  C6  1  0.92057181  0.20475449  0.69309880  1.0
  C  C7  1  0.42606362  0.33957443  0.33313896  1.0
  C  C8  1  0.10099313  0.21730781  0.87392767  1.0
  C  C9  1  0.54525608  0.51890886  0.73562181  1.0
  C  C10  1  0.01916660  0.19491527  0.91903066  1.0
  C  C11  1  0.33225219  0.15674578  0.67898242  1.0
  C  C12  1  0.21111823  0.35187073  0.21832036  1.0
  C  C13  1  0.13664661  0.04922530  0.87234222  1.0
  C  C14  1  0.64607588  0.75972720  0.64541439  1.0
  C  C15  1  0.88661583  0.88472451  0.20781271  1.0
  C  C16  1  0.31674034  0.55504998  0.83408729  1.0
  C  C17  1  0.70875984  0.05249970  0.69465620  1.0
  C  C18  1  0.45474408  0.48109081  0.26437765  1.0
  C  C19  1  0.15923445  0.82000661  0.64762130  1.0
  C  C20  1  0.35392439  0.74027265  0.14541453  1.0
  C  C21  1  0.92057216  0.70475457  0.80690120  1.0
  C  C22  1  0.78888151  0.64812907  0.78167974  1.0
  C  C23  1  0.11338380  0.61527530  0.70781276  1.0
  C  C24  1  0.79670712  0.27140580  0.99011896  1.0
  C  C25  1  0.25797817  0.76795326  0.96039561  1.0
  C  C26  1  0.74505049  0.68579225  0.73462582  1.0
  C  C27  1  0.99609834  0.27780761  0.94277836  1.0
  C  C28  1  0.74202194  0.23204717  0.03960445  1.0
  C  C29  1  0.86538552  0.09864814  0.37740102  1.0
  C  C30  1  0.18291967  0.21281159  0.28923387  1.0
  C  C31  1  0.23107516  0.17694727  0.33270987  1.0
  C  C32  1  0.58147686  0.55646564  0.28781819  1.0
  C  C33  1  0.45474379  0.98109021  0.23562220  1.0
  C  C34  1  0.94663889  0.11853461  0.42270667  1.0
  C  C35  1  0.07978342  0.79273381  0.96471118  1.0
  C  C36  1  0.07942825  0.79524502  0.30690114  1.0
  C  C37  1  0.87230601  0.97852423  0.21474513  1.0
  C  C38  1  0.01916684  0.69491535  0.58096933  1.0
  C  C39  1  0.58147690  0.05646493  0.21218165  1.0
  C  C40  1  0.35392405  0.24027279  0.35458556  1.0
  C  C41  1  0.41852375  0.44353427  0.71218096  1.0
  C  C42  1  0.68325946  0.44495002  0.16591266  1.0
  C  C43  1  0.76892511  0.32305353  0.83270960  1.0
  C  C44  1  0.57393698  0.66042581  0.66686096  1.0
  C  C45  1  0.88661589  0.38472450  0.29218727  1.0
  C  C46  1  0.12769418  0.02147577  0.78525489  1.0
  C  C47  1  0.78888204  0.14812970  0.71832049  1.0
  C  C48  1  0.29124013  0.44750039  0.19465615  1.0
  C  C49  1  0.85988181  0.41961367  0.14338114  1.0
  C  C50  1  0.64607649  0.25972817  0.85458564  1.0
  C  C51  1  0.05336110  0.38146543  0.92270660  1.0
  C  C52  1  0.81707991  0.78718890  0.71076642  1.0
  C  C53  1  0.41852314  0.94353393  0.78781819  1.0
  C  C54  1  0.92021663  0.20726640  0.03528882  1.0
  C  C55  1  0.23107405  0.67694601  0.16729013  1.0
  C  C56  1  0.62055653  0.12038927  0.78837945  1.0
  C  C57  1  0.81708047  0.28718932  0.78923366  1.0
  C  C58  1  0.68325950  0.94495001  0.33408731  1.0
  C  C59  1  0.66774776  0.34325421  0.17898236  1.0
  C  C60  1  0.33225216  0.65674586  0.82101773  1.0
  C  C61  1  0.07978308  0.29273382  0.53528893  1.0
  C  C62  1  0.41126378  0.01215133  0.28242201  1.0
  C  C63  1  0.14011795  0.58038632  0.85661887  1.0
  C  C64  1  0.85988208  0.91961376  0.35661886  1.0
  C  C65  1  0.54525629  0.01890920  0.76437838  1.0
  C  C66  1  0.31674032  0.05504986  0.66591278  1.0
  C  C67  1  0.84076523  0.17999328  0.35237883  1.0
  C  C68  1  0.57393699  0.16042622  0.83313912  1.0
  C  C69  1  0.94663878  0.61853456  0.07729334  1.0
  C  C70  1  0.76892478  0.82305304  0.66729045  1.0
  C  C71  1  0.18291992  0.71281150  0.21076606  1.0
  C  C72  1  0.25494920  0.81420718  0.23462559  1.0
  C  C73  1  0.62055585  0.62038865  0.71162065  1.0
  C  C74  1  0.11338379  0.11527525  0.79218732  1.0
  C  C75  1  0.12769429  0.52147577  0.71474517  1.0
  C  C76  1  0.74505068  0.18579242  0.76537429  1.0
  C  C77  1  0.86335373  0.95077491  0.12765779  1.0
  C  C78  1  0.42606223  0.83957260  0.16686091  1.0
  C  C79  1  0.98083303  0.30508468  0.41903078  1.0
  C  C80  1  0.15923460  0.32000673  0.85237874  1.0
  C  C81  1  0.20329272  0.22859439  0.49011899  1.0
  C  C82  1  0.00390122  0.72219235  0.05722160  1.0
  C  C83  1  0.89900644  0.28269208  0.37392768  1.0
  C  C84  1  0.98083288  0.80508458  0.08096923  1.0
  C  C85  1  0.13664665  0.54922528  0.62765780  1.0
  C  C86  1  0.37944446  0.87961094  0.21162046  1.0
  C  C87  1  0.58873659  0.98784856  0.71757803  1.0
  C  C88  1  0.37944416  0.37961143  0.28837925  1.0
  C  C89  1  0.66774775  0.84325416  0.32101761  1.0
  C  C90  1  0.21111864  0.85187066  0.28167937  1.0
  C  C91  1  0.86538548  0.59864807  0.12259891  1.0
  C  C92  1  0.84076494  0.67999318  0.14762115  1.0
  C  C93  1  0.25797828  0.26795330  0.53960452  1.0
  C  C94  1  0.92021687  0.70726632  0.46471114  1.0
  C  C95  1  0.13461424  0.90135175  0.62259909  1.0
  C  C96  1  0.07942828  0.29524505  0.19309881  1.0
  C  C97  1  0.10099330  0.71730786  0.62607239  1.0
  C  C98  1  0.25494972  0.31420802  0.26537437  1.0
  C  C99  1  0.20329270  0.72859435  0.00988108  1.0
  C  C100  1  0.89900640  0.78269211  0.12607226  1.0
  C  C101  1  0.29123992  0.94750014  0.30534372  1.0
  C  C102  1  0.74202180  0.73204695  0.46039549  1.0
  C  C103  1  0.70875961  0.55249985  0.80534401  1.0
  C  C104  1  0.86335377  0.45077491  0.37234223  1.0
  C  C105  1  0.13461420  0.40135187  0.87740108  1.0
  C  C106  1  0.14011774  0.08038618  0.64338116  1.0
  C  C107  1  0.58873630  0.48784843  0.78242231  1.0
  C  C108  1  0.41126320  0.51215160  0.21757755  1.0
  N  N1  1  0.17978640  0.30693074  0.56720599  1.0
  N  N2  1  0.80614221  0.99326201  0.35694746  1.0
  N  N3  1  0.80614212  0.49326195  0.14305250  1.0
  N  N4  1  0.14286822  0.98173218  0.83517149  1.0
  N  N5  1  0.19385762  0.00673793  0.64305264  1.0
  N  N6  1  0.82021368  0.69306952  0.43279400  1.0
  N  N7  1  0.90998425  0.75464677  0.51228698  1.0
  N  N8  1  0.77828350  0.82912683  0.33505603  1.0
  N  N9  1  0.22171636  0.67087310  0.83505613  1.0
  N  N10  1  0.85713254  0.01826810  0.16482858  1.0
  N  N11  1  0.90998423  0.25464687  0.98771306  1.0
  N  N12  1  0.14286830  0.48173215  0.66482861  1.0
  N  N13  1  0.09001561  0.74535328  0.01228691  1.0
  N  N14  1  0.09001554  0.24535325  0.48771309  1.0
  N  N15  1  0.19385764  0.50673807  0.85694745  1.0
  N  N16  1  0.77828349  0.32912687  0.16494394  1.0
  N  N17  1  0.22171643  0.17087312  0.66494397  1.0
  N  N18  1  0.88125541  0.36785661  0.34788198  1.0
  N  N19  1  0.11874436  0.13214329  0.84788197  1.0
  N  N20  1  0.85713249  0.51826809  0.33517142  1.0
  N  N21  1  0.88125530  0.86785653  0.15211801  1.0
  N  N22  1  0.11874442  0.63214325  0.65211809  1.0
  N  N23  1  0.17978636  0.80693079  0.93279414  1.0
  N  N24  1  0.82021364  0.19306957  0.06720592  1.0
  O  O1  1  0.98580315  0.73751289  0.27565460  1.0
  O  O2  1  0.01419678  0.26248716  0.72434531  1.0
  O  O3  1  0.01419651  0.76248701  0.77565451  1.0
  O  O4  1  0.98580318  0.23751316  0.22434533  1.0
  O  O5  1  0.59310473  0.56590517  0.33935197  1.0
  O  O6  1  0.93581169  0.69046005  0.85680494  1.0
  O  O7  1  0.59310468  0.06590441  0.16064770  1.0
  O  O8  1  0.40689900  0.93409282  0.83935391  1.0
  O  O9  1  0.67227071  0.60878995  0.25488438  1.0
  O  O10  1  0.40689900  0.43409286  0.66064655  1.0
  O  O11  1  0.06418901  0.80953928  0.35680498  1.0
  O  O12  1  0.67227057  0.10878895  0.24511539  1.0
  O  O13  1  0.93581105  0.19046011  0.64319488  1.0
  O  O14  1  0.32772875  0.39121260  0.74511420  1.0
  O  O15  1  0.32772996  0.89121293  0.75488589  1.0
  O  O16  1  0.06418903  0.30953912  0.14319475  1.0
