# generated using pymatgen
data_H13C22
_symmetry_space_group_name_H-M   'P 1'
_cell_length_a   25.50245000
_cell_length_b   25.50245000
_cell_length_c   26.16930000
_cell_angle_alpha   90.00000000
_cell_angle_beta   90.00000000
_cell_angle_gamma   120.00000000
_symmetry_Int_Tables_number   1
_chemical_formula_structural   H13C22
_chemical_formula_sum   'H78 C132'
_cell_volume   14739.62882186
_cell_formula_units_Z   6
loop_
 _symmetry_equiv_pos_site_id
 _symmetry_equiv_pos_as_xyz
  1  'x, y, z'
loop_
 _atom_site_type_symbol
 _atom_site_label
 _atom_site_symmetry_multiplicity
 _atom_site_fract_x
 _atom_site_fract_y
 _atom_site_fract_z
 _atom_site_occupancy
  C  1  1  0.42223400  0.48528900  0.00563700  1
  C  2  1  0.40441150  0.50064750  0.05249700  1
  C  3  1  0.37665400  0.53714900  0.05151900  1
  C  4  1  0.38357500  0.57021300  0.00653500  1
  C  5  1  0.40636900  0.56076900  0.96036800  1
  C  6  1  0.41883650  0.51217050  0.95879600  1
  C  7  1  0.41562650  0.47861350  0.09819600  1
  C  8  1  0.42900500  0.48933900  0.91295000  1
  C  10  1  0.44240950  0.44198850  0.00565600  1
  C  11  1  0.45995450  0.42644350  0.05256200  1
  C  12  1  0.48765000  0.38988500  0.05165600  1
  C  13  1  0.48083600  0.35688500  0.00665700  1
  C  14  1  0.45827700  0.36648600  0.96042500  1
  C  15  1  0.44592500  0.41516600  0.95882000  1
  C  16  1  0.44846100  0.44825300  0.09826400  1
  C  18  1  0.43592550  0.43809950  0.91295600  1
  C  23  1  0.96402900  0.47380600  0.33876400  1
  C  24  1  0.99712900  0.49143000  0.38567000  1
  C  25  1  0.06139100  0.51921200  0.38475300  1
  C  26  1  0.08760500  0.51247300  0.33974200  1
  C  27  1  0.05543050  0.48978350  0.29353500  1
  C  28  1  0.99437450  0.47733350  0.29193000  1
  C  29  1  0.96380400  0.47992100  0.43135700  1
  C  30  1  0.96142800  0.46725700  0.24606300  1
  C  32  1  0.90053800  0.45354300  0.33874100  1
  C  33  1  0.86735000  0.43570900  0.38559700  1
  C  34  1  0.80308200  0.40787100  0.38460400  1
  C  35  1  0.77691850  0.41468150  0.33958900  1
  C  36  1  0.80917900  0.43758600  0.29345100  1
  C  37  1  0.87026450  0.45012350  0.29188800  1
  C  38  1  0.90060400  0.44699700  0.43130300  1
  C  40  1  0.90328750  0.46038250  0.24604400  1
  C  45  1  0.41071900  0.93186600  0.67204000  1
  C  46  1  0.39540150  0.89873650  0.71892600  1
  C  47  1  0.35915100  0.83443600  0.71795400  1
  C  48  1  0.32605950  0.80823650  0.67299500  1
  C  49  1  0.33539600  0.84041900  0.62681700  1
  C  50  1  0.38391050  0.90151750  0.62520600  1
  C  51  1  0.41725050  0.93207750  0.76460900  1
  C  52  1  0.40666350  0.93449850  0.57934300  1
  C  54  1  0.45382450  0.99539150  0.67202100  1
  C  55  1  0.46913200  0.02856600  0.71888600  1
  C  56  1  0.50537950  0.09286850  0.71787000  1
  C  57  1  0.53841100  0.11903600  0.67288200  1
  C  58  1  0.52912750  0.08680050  0.62674100  1
  C  59  1  0.48062550  0.02569450  0.62516900  1
  C  60  1  0.44723150  0.99526850  0.76458500  1
  C  62  1  0.45789900  0.99266100  0.57932400  1
  C  67  1  0.45428150  0.32753850  0.91932900  1
  C  68  1  0.42524600  0.26436300  0.92895900  1
  C  69  1  0.43654450  0.22617150  0.89814600  1
  C  70  1  0.47234650  0.24900650  0.85385100  1
  C  71  1  0.49211250  0.30953550  0.83861700  1
  C  72  1  0.48731950  0.34938250  0.87330000  1
  C  74  1  0.48336600  0.21084700  0.82135400  1
  C  75  1  0.49817550  0.16808250  0.84059800  1
  C  76  1  0.51069850  0.13267750  0.80705100  1
  C  77  1  0.50174250  0.13365750  0.75383300  1
  C  78  1  0.49061650  0.17961350  0.73516000  1
  C  79  1  0.48630850  0.22101750  0.76799200  1
  C  84  1  0.48646250  0.27592350  0.74797500  1
  C  85  1  0.51819050  0.32946550  0.78653000  1
  C  91  1  0.77431500  0.44179200  0.25239500  1
  C  92  1  0.74020600  0.47082700  0.26216200  1
  C  93  1  0.69072700  0.45964000  0.23139000  1
  C  94  1  0.67772550  0.42393650  0.18702500  1
  C  95  1  0.71847250  0.40420150  0.17166700  1
  C  96  1  0.76311950  0.40889050  0.20629200  1
  C  98  1  0.62840200  0.41281300  0.15466600  1
  C  99  1  0.57087400  0.39789300  0.17409400  1
  C  100  1  0.52273950  0.38511050  0.14070300  1
  C  101  1  0.53237650  0.39383350  0.08743900  1
  C  102  1  0.58944900  0.40513000  0.06858800  1
  C  103  1  0.63540550  0.40975250  0.10128300  1
  C  108  1  0.69015950  0.40973650  0.08110300  1
  C  109  1  0.71221950  0.37813450  0.11956000  1
  C  115  1  0.56817800  0.12168900  0.58568600  1
  C  116  1  0.63130400  0.15597600  0.59549600  1
  C  117  1  0.66959450  0.20540750  0.56467300  1
  C  118  1  0.64687900  0.21832600  0.52028200  1
  C  119  1  0.58640300  0.17752800  0.50493900  1
  C  120  1  0.54647300  0.13287000  0.53957100  1
  C  122  1  0.68508500  0.26755400  0.48783900  1
  C  123  1  0.72774800  0.32512500  0.50715900  1
  C  124  1  0.76315650  0.37312950  0.47367700  1
  C  125  1  0.76225500  0.36329000  0.42045100  1
  C  126  1  0.71642000  0.30619900  0.40169600  1
  C  127  1  0.67503000  0.26038500  0.43446400  1
  C  132  1  0.62023850  0.20559950  0.41435200  1
  C  133  1  0.56658500  0.18367200  0.45280200  1
  C  139  1  0.41046700  0.59977600  0.91928700  1
  C  140  1  0.43940550  0.66292250  0.92900400  1
  C  141  1  0.42823900  0.70117700  0.89815800  1
  C  142  1  0.39250350  0.67839050  0.85382100  1
  C  143  1  0.37275900  0.61787700  0.83854800  1
  C  144  1  0.37752050  0.57799050  0.87321100  1
  C  146  1  0.38147400  0.71657000  0.82135200  1
  C  147  1  0.36663250  0.75929450  0.84063700  1
  C  148  1  0.35403300  0.79468000  0.80712800  1
  C  149  1  0.36289300  0.79368800  0.75389500  1
  C  150  1  0.37409100  0.74779500  0.73518300  1
  C  151  1  0.37850700  0.70642700  0.76798500  1
  C  156  1  0.37840950  0.65156850  0.74792800  1
  C  157  1  0.34670800  0.59798600  0.78644800  1
  C  163  1  0.09032450  0.48566250  0.25246000  1
  C  164  1  0.12449450  0.45667750  0.26218200  1
  C  165  1  0.17400800  0.46794500  0.23141700  1
  C  166  1  0.18700650  0.50369950  0.18709000  1
  C  167  1  0.14624350  0.52342850  0.17177000  1
  C  168  1  0.10157650  0.51866550  0.20640600  1
  C  170  1  0.23627450  0.51478650  0.15467800  1
  C  171  1  0.29381700  0.52964800  0.17403300  1
  C  172  1  0.34185550  0.54228450  0.14057700  1
  C  173  1  0.33206250  0.53341050  0.08733900  1
  C  174  1  0.27500450  0.52221550  0.06855000  1
  C  175  1  0.22917050  0.51777450  0.10130200  1
  C  180  1  0.17442000  0.51784200  0.08117900  1
  C  181  1  0.15245550  0.54949950  0.11967100  1
  C  187  1  0.29630800  0.80551700  0.58578200  1
  C  188  1  0.23319050  0.77123550  0.59562600  1
  C  189  1  0.19481950  0.72188850  0.56476500  1
  C  190  1  0.21750050  0.70893150  0.52036600  1
  C  191  1  0.27799650  0.74966550  0.50502700  1
  C  192  1  0.31796450  0.79429950  0.53965900  1
  C  194  1  0.17925800  0.65970500  0.48794200  1
  C  195  1  0.13659950  0.60214850  0.50729300  1
  C  196  1  0.10122050  0.55410150  0.47383800  1
  C  197  1  0.10215850  0.56385950  0.42059200  1
  C  198  1  0.14796900  0.62095400  0.40181500  1
  C  199  1  0.18932500  0.66682000  0.43456300  1
  C  204  1  0.24412850  0.72158750  0.41444400  1
  C  205  1  0.29778600  0.74348700  0.45288600  1
  H  9  1  0.36741550  0.59992050  0.00669500  1
  H  17  1  0.49698450  0.32716750  0.00685600  1
  H  19  1  0.45784200  0.43754500  0.13306100  1
  H  20  1  0.40529300  0.48849700  0.13295400  1
  H  21  1  0.43735200  0.42057500  0.87835600  1
  H  22  1  0.42763000  0.50689100  0.87835000  1
  H  31  1  0.13346250  0.52857750  0.33995600  1
  H  39  1  0.73105450  0.39855750  0.33976100  1
  H  41  1  0.88041750  0.43684050  0.46607300  1
  H  42  1  0.98389950  0.48954850  0.46616100  1
  H  43  1  0.88430650  0.45880950  0.21142700  1
  H  44  1  0.98038850  0.46867750  0.21146900  1
  H  53  1  0.29639650  0.76235850  0.67319900  1
  H  61  1  0.56811400  0.16490500  0.67305900  1
  H  63  1  0.45736850  0.01544350  0.79935100  1
  H  64  1  0.40702700  0.91193200  0.79938900  1
  H  65  1  0.47529150  0.01165650  0.54470700  1
  H  66  1  0.38921250  0.91550750  0.54473800  1
  H  73  1  0.51016350  0.39472650  0.86551300  1
  H  80  1  0.50321100  0.16472400  0.87904600  1
  H  81  1  0.52631050  0.10616950  0.82219200  1
  H  82  1  0.48683550  0.18437050  0.69670800  1
  H  83  1  0.40084650  0.24655350  0.96180200  1
  H  86  1  0.43964900  0.26501400  0.74197400  1
  H  87  1  0.51015200  0.29002900  0.71134600  1
  H  88  1  0.51257350  0.36702350  0.77325600  1
  H  89  1  0.56664750  0.34504250  0.78799900  1
  H  90  1  0.41784100  0.18154600  0.90809600  1
  H  97  1  0.78560200  0.38604900  0.19842000  1
  H  104  1  0.56265050  0.39293150  0.21256600  1
  H  105  1  0.48068000  0.36941300  0.15599200  1
  H  106  1  0.59779650  0.40879550  0.03010800  1
  H  107  1  0.74678400  0.49509500  0.29508700  1
  H  110  1  0.72596950  0.45658650  0.07506500  1
  H  111  1  0.68052350  0.38605250  0.04446900  1
  H  112  1  0.75540450  0.38387850  0.10617100  1
  H  113  1  0.67944450  0.32964750  0.12106200  1
  H  114  1  0.66478600  0.47828500  0.24145100  1
  H  121  1  0.50115750  0.11031650  0.53167700  1
  H  128  1  0.73103400  0.33346500  0.54561700  1
  H  129  1  0.78963700  0.41522600  0.48887100  1
  H  130  1  0.71174700  0.29773200  0.36323100  1
  H  131  1  0.64904100  0.14937800  0.62838200  1
  H  134  1  0.63124750  0.16975450  0.40840600  1
  H  135  1  0.60619600  0.21515900  0.37768300  1
  H  136  1  0.52911350  0.14047650  0.43946900  1
  H  137  1  0.55092500  0.21649000  0.45421900  1
  H  138  1  0.71418200  0.23136500  0.57472700  1
  H  145  1  0.35472350  0.53265950  0.86537400  1
  H  152  1  0.36161550  0.76263250  0.87909100  1
  H  153  1  0.33838650  0.82113750  0.82230500  1
  H  154  1  0.37783200  0.74304700  0.69672300  1
  H  155  1  0.46381100  0.68070800  0.96185100  1
  H  158  1  0.42524000  0.66252100  0.74193500  1
  H  159  1  0.35474250  0.63747850  0.71128900  1
  H  160  1  0.35236650  0.56046550  0.77314500  1
  H  161  1  0.29824050  0.58237050  0.78791200  1
  H  162  1  0.44692000  0.74578700  0.90814700  1
  H  169  1  0.07907750  0.54149450  0.19855700  1
  H  176  1  0.30210900  0.53462600  0.21249700  1
  H  177  1  0.38393350  0.55784750  0.15579400  1
  H  178  1  0.26657800  0.51847900  0.03008100  1
  H  179  1  0.11789850  0.43233450  0.29506000  1
  H  182  1  0.13857150  0.47100850  0.07515300  1
  H  183  1  0.18404100  0.54153100  0.04454900  1
  H  184  1  0.10927850  0.54380850  0.10632300  1
  H  185  1  0.18527700  0.59797400  0.12115800  1
  H  186  1  0.19994700  0.44928600  0.24144400  1
  H  193  1  0.36327500  0.81682200  0.53174500  1
  H  200  1  0.13332250  0.59384150  0.54575400  1
  H  201  1  0.07481100  0.51201300  0.48906200  1
  H  202  1  0.15266900  0.62938000  0.36334600  1
  H  203  1  0.21547000  0.77796300  0.62846500  1
  H  206  1  0.23314800  0.75745100  0.40850600  1
  H  207  1  0.25815250  0.71201550  0.37776700  1
  H  208  1  0.33527150  0.78666750  0.43954600  1
  H  209  1  0.31341500  0.71064400  0.45430700  1
  H  210  1  0.15022450  0.69598950  0.57481100  1
