# generated using pymatgen
data_ZnH20C27I2(NO3)2
_symmetry_space_group_name_H-M   'P 1'
_cell_length_a   7.74204000
_cell_length_b   8.69918000
_cell_length_c   27.49004000
_cell_angle_alpha   93.21016000
_cell_angle_beta   93.72759000
_cell_angle_gamma   94.56406000
_symmetry_Int_Tables_number   1
_chemical_formula_structural   ZnH20C27I2(NO3)2
_chemical_formula_sum   'Zn2 H40 C54 I4 N4 O12'
_cell_volume   1838.17660557
_cell_formula_units_Z   2
loop_
 _symmetry_equiv_pos_site_id
 _symmetry_equiv_pos_as_xyz
  1  'x, y, z'
loop_
 _atom_site_type_symbol
 _atom_site_label
 _atom_site_symmetry_multiplicity
 _atom_site_fract_x
 _atom_site_fract_y
 _atom_site_fract_z
 _atom_site_occupancy
  Zn  Zn0  1  0.69306000  0.48201000  0.50562000  1
  Zn  Zn1  1  0.30694000  0.51799000  0.49438000  1
  H  H2  1  0.98608000  0.61947000  0.46693000  1
  H  H3  1  0.46995000  0.86127000  0.05069000  1
  H  H4  1  0.09752000  0.55605000  0.76755000  1
  H  H5  1  0.01556000  0.44135000  0.71237000  1
  H  H6  1  0.97651000  0.37185000  0.77141000  1
  H  H7  1  0.21936000  0.23914000  0.73696000  1
  H  H8  1  0.27974000  0.35363000  0.79080000  1
  H  H9  1  0.73577000  0.79832000  0.26800000  1
  H  H10  1  0.91962000  0.77463000  0.23214000  1
  H  H11  1  0.70589000  0.75675000  0.20285000  1
  H  H12  1  0.89644000  0.53142000  0.26207000  1
  H  H13  1  0.01416000  0.38180000  0.53359000  1
  H  H14  1  0.76544000  0.49423000  0.20738000  1
  H  H15  1  0.27206000  0.06340000  0.25474000  1
  H  H16  1  0.11466000  0.09444000  0.29927000  1
  H  H17  1  0.04376000  0.05824000  0.23601000  1
  H  H18  1  0.05479000  0.33879000  0.27201000  1
  H  H19  1  0.14710000  0.30795000  0.21528000  1
  H  H20  1  0.98974000  0.70142000  0.69848000  1
  H  H21  1  0.89101000  0.88266000  0.69636000  1
  H  H22  1  0.04502000  0.85236000  0.74557000  1
  H  H23  1  0.73590000  0.83615000  0.76732000  1
  H  H24  1  0.59115000  0.14071000  0.86589000  1
  H  H25  1  0.84828000  0.67070000  0.78097000  1
  H  H26  1  0.20737000  0.17465000  0.41327000  1
  H  H27  1  0.42261000  0.14019000  0.39395000  1
  H  H28  1  0.23407000  0.01840000  0.36993000  1
  H  H29  1  0.37327000  0.87414000  0.42541000  1
  H  H30  1  0.18970000  0.93686000  0.45614000  1
  H  H31  1  0.57894000  0.86155000  0.60581000  1
  H  H32  1  0.79430000  0.82696000  0.58642000  1
  H  H33  1  0.76762000  0.98352000  0.62973000  1
  H  H34  1  0.81087000  0.06401000  0.54334000  1
  H  H35  1  0.42047000  0.83339000  0.13477000  1
  H  H36  1  0.62754000  0.12649000  0.57430000  1
  H  H37  1  0.24472000  0.35362000  0.34939000  1
  H  H38  1  0.72624000  0.66731000  0.65188000  1
  H  H39  1  0.35911000  0.06689000  0.09883000  1
  H  H40  1  0.61774000  0.90430000  0.90012000  1
  H  H41  1  0.53713000  0.11128000  0.94996000  1
  C  C42  1  0.45400000  0.20508000  0.49786000  1
  C  C43  1  0.43102000  0.30760000  0.11783000  1
  C  C44  1  0.49577000  0.51444000  0.64725000  1
  C  C45  1  0.50059000  0.47371000  0.35241000  1
  C  C46  1  0.45974000  0.33582000  0.01714000  1
  C  C47  1  0.53915000  0.63497000  0.98318000  1
  C  C48  1  0.49822000  0.61911000  0.03206000  1
  C  C49  1  0.50372000  0.35196000  0.96845000  1
  C  C50  1  0.46855000  0.46969000  0.04930000  1
  C  C51  1  0.53086000  0.50119000  0.95116000  1
  C  C52  1  0.39757000  0.19319000  0.03496000  1
  C  C53  1  0.54603000  0.79497000  0.50209000  1
  C  C54  1  0.59612000  0.77795000  0.96477000  1
  C  C55  1  0.39934000  0.17745000  0.08533000  1
  C  C56  1  0.58350000  0.79368000  0.91433000  1
  C  C57  1  0.49689000  0.50009000  0.59404000  1
  C  C58  1  0.50269000  0.49765000  0.40577000  1
  C  C59  1  0.53549000  0.22479000  0.93725000  1
  C  C60  1  0.47026000  0.74730000  0.06332000  1
  C  C61  1  0.43944000  0.04132000  0.48797000  1
  C  C62  1  0.56077000  0.95887000  0.51184000  1
  C  C63  1  0.58534000  0.40615000  0.82041000  1
  C  C64  1  0.55198000  0.51673000  0.90117000  1
  C  C65  1  0.41352000  0.56759000  0.17987000  1
  C  C66  1  0.52886000  0.67087000  0.83161000  1
  C  C67  1  0.44212000  0.29737000  0.16862000  1
  C  C68  1  0.64310000  0.62843000  0.72341000  1
  C  C69  1  0.33403000  0.36794000  0.27809000  1
  C  C70  1  0.63003000  0.60939000  0.67258000  1
  C  C71  1  0.35156000  0.39387000  0.32855000  1
  C  C72  1  0.36942000  0.43328000  0.67257000  1
  C  C73  1  0.63909000  0.52745000  0.32521000  1
  C  C74  1  0.37813000  0.44988000  0.72412000  1
  C  C75  1  0.44366000  0.45442000  0.09917000  1
  C  C76  1  0.62350000  0.50325000  0.27375000  1
  C  C77  1  0.51787000  0.54587000  0.74943000  1
  C  C78  1  0.46877000  0.42549000  0.25040000  1
  C  C79  1  0.24151000  0.36093000  0.75174000  1
  C  C80  1  0.07190000  0.43746000  0.75033000  1
  C  C81  1  0.77248000  0.55825000  0.24366000  1
  C  C82  1  0.78272000  0.73218000  0.23650000  1
  C  C83  1  0.16455000  0.28895000  0.25477000  1
  C  C84  1  0.14916000  0.11564000  0.26164000  1
  C  C85  1  0.79026000  0.73332000  0.75075000  1
  C  C86  1  0.57166000  0.38702000  0.87006000  1
  C  C87  1  0.93744000  0.79511000  0.72062000  1
  C  C88  1  0.31903000  0.97501000  0.44364000  1
  C  C89  1  0.29507000  0.08534000  0.40294000  1
  C  C90  1  0.68182000  0.02576000  0.55600000  1
  C  C91  1  0.70650000  0.91620000  0.59676000  1
  C  C92  1  0.42997000  0.58565000  0.13036000  1
  C  C93  1  0.57144000  0.24191000  0.88893000  1
  C  C94  1  0.43619000  0.73118000  0.11169000  1
  C  C95  1  0.55195000  0.66257000  0.88226000  1
  I  I96  1  0.18254000  0.26844000  0.63294000  1
  I  I97  1  0.86516000  0.65631000  0.36080000  1
  I  I98  1  0.23677000  0.02168000  0.99076000  1
  I  I99  1  0.76634000  0.94670000  0.00728000  1
  N  N100  1  0.54568000  0.54244000  0.80151000  1
  N  N101  1  0.43872000  0.42833000  0.19854000  1
  N  N102  1  0.04968000  0.54204000  0.48688000  1
  N  N103  1  0.95032000  0.45796000  0.51312000  1
  O  O104  1  0.61075000  0.26143000  0.50322000  1
  O  O105  1  0.37988000  0.68891000  0.20961000  1
  O  O106  1  0.45894000  0.15966000  0.18774000  1
  O  O107  1  0.48486000  0.80356000  0.81297000  1
  O  O108  1  0.38925000  0.73857000  0.49678000  1
  O  O109  1  0.32161000  0.28837000  0.49481000  1
  O  O110  1  0.67839000  0.71163000  0.50519000  1
  O  O111  1  0.64456000  0.48656000  0.57545000  1
  O  O112  1  0.35544000  0.51344000  0.42455000  1
  O  O113  1  0.35541000  0.51350000  0.56704000  1
  O  O114  1  0.64459000  0.48650000  0.43296000  1
  O  O115  1  0.62434000  0.28691000  0.79065000  1
