# generated using pymatgen
data_ZnH12C16N3O7
_symmetry_space_group_name_H-M   'P 1'
_cell_length_a   9.83937000
_cell_length_b   10.66234000
_cell_length_c   10.76753000
_cell_angle_alpha   89.14525000
_cell_angle_beta   88.54700000
_cell_angle_gamma   90.47899000
_symmetry_Int_Tables_number   1
_chemical_formula_structural   ZnH12C16N3O7
_chemical_formula_sum   'Zn2 H24 C32 N6 O14'
_cell_volume   1129.09717611
_cell_formula_units_Z   2
loop_
 _symmetry_equiv_pos_site_id
 _symmetry_equiv_pos_as_xyz
  1  'x, y, z'
loop_
 _atom_site_type_symbol
 _atom_site_label
 _atom_site_symmetry_multiplicity
 _atom_site_fract_x
 _atom_site_fract_y
 _atom_site_fract_z
 _atom_site_occupancy
  Zn  Zn0  1  0.34688000  0.49998000  0.50000000  1
  Zn  Zn1  1  0.65312000  0.50002000  0.50000000  1
  H  H2  1  0.12615000  0.69121000  0.54979000  1
  H  H3  1  0.87385000  0.30877000  0.45031000  1
  H  H4  1  0.05036000  0.42325000  0.19725000  1
  H  H5  1  0.95007000  0.58310000  0.80511000  1
  H  H6  1  0.70398000  0.56375000  0.87487000  1
  H  H7  1  0.29509000  0.43816000  0.12499000  1
  H  H8  1  0.66947000  0.12300000  0.37008000  1
  H  H9  1  0.33200000  0.87692000  0.62551000  1
  H  H10  1  0.87445000  0.69132000  0.54935000  1
  H  H11  1  0.12554000  0.30866000  0.45071000  1
  H  H12  1  0.17611000  0.73434000  0.21648000  1
  H  H13  1  0.81835000  0.27371000  0.78949000  1
  H  H14  1  0.97570000  0.88303000  0.05136000  1
  H  H15  1  0.92202000  0.89865000  0.20098000  1
  H  H16  1  0.01872000  0.12684000  0.96188000  1
  H  H17  1  0.06155000  0.10363000  0.81074000  1
  H  H18  1  0.62707000  0.76212000  0.06653000  1
  H  H19  1  0.37088000  0.23814000  0.92449000  1
  H  H20  1  0.73799000  0.31777000  0.19981000  1
  H  H21  1  0.88999000  0.27900000  0.13910000  1
  H  H22  1  0.26299000  0.68438000  0.79882000  1
  H  H23  1  0.11325000  0.72503000  0.86314000  1
  H  H24  1  0.65263000  0.80394000  0.31274000  1
  H  H25  1  0.25139000  0.06070000  0.69286000  1
  C  C26  1  0.49960000  0.26013000  0.50155000  1
  C  C27  1  0.50046000  0.73986000  0.49668000  1
  C  C28  1  0.49390000  0.50196000  0.87254000  1
  C  C29  1  0.50584000  0.49829000  0.12732000  1
  C  C30  1  0.37607000  0.46917000  0.94352000  1
  C  C31  1  0.62357000  0.53122000  0.05623000  1
  C  C32  1  0.59651000  0.06886000  0.42645000  1
  C  C33  1  0.40398000  0.93153000  0.56853000  1
  C  C34  1  0.59635000  0.94050000  0.41911000  1
  C  C35  1  0.40212000  0.06089000  0.57288000  1
  C  C36  1  0.50052000  0.87234000  0.49309000  1
  C  C37  1  0.49919000  0.12781000  0.50107000  1
  C  C38  1  0.92833000  0.60631000  0.52708000  1
  C  C39  1  0.07166000  0.39368000  0.47299000  1
  C  C40  1  0.07206000  0.60624000  0.52721000  1
  C  C41  1  0.92794000  0.39373000  0.47288000  1
  C  C42  1  0.50217000  0.50020000  0.25984000  1
  C  C43  1  0.49778000  0.49993000  0.74010000  1
  C  C44  1  0.93736000  0.71925000  0.14344000  1
  C  C45  1  0.05747000  0.28581000  0.86167000  1
  C  C46  1  0.80344000  0.69139000  0.10859000  1
  C  C47  1  0.19360000  0.31139000  0.89128000  1
  C  C48  1  0.75787000  0.56451000  0.10741000  1
  C  C49  1  0.24124000  0.43766000  0.89222000  1
  C  C50  1  0.84853000  0.46747000  0.13771000  1
  C  C51  1  0.15175000  0.53602000  0.86303000  1
  C  C52  1  0.98073000  0.49744000  0.17352000  1
  C  C53  1  0.01854000  0.50795000  0.82878000  1
  C  C54  1  0.02571000  0.62169000  0.17792000  1
  C  C55  1  0.97084000  0.38444000  0.82678000  1
  C  C56  1  0.61474000  0.53468000  0.92937000  1
  C  C57  1  0.38476000  0.46604000  0.07046000  1
  N  N58  1  0.14280000  0.49997000  0.49997000  1
  N  N59  1  0.85720000  0.50003000  0.50003000  1
  N  N60  1  0.98475000  0.84684000  0.14153000  1
  N  N61  1  0.00531000  0.15993000  0.87113000  1
  N  N62  1  0.80720000  0.33843000  0.12706000  1
  N  N63  1  0.19545000  0.66446000  0.87306000  1
  O  O64  1  0.38538000  0.31675000  0.49999000  1
  O  O65  1  0.61462000  0.68325000  0.50001000  1
  O  O66  1  0.61471000  0.31678000  0.49999000  1
  O  O67  1  0.38529000  0.68322000  0.50001000  1
  O  O68  1  0.38534000  0.50000000  0.31676000  1
  O  O69  1  0.61466000  0.50000000  0.68324000  1
  O  O70  1  0.61467000  0.50002000  0.31676000  1
  O  O71  1  0.38533000  0.49998000  0.68324000  1
  O  O72  1  0.15724000  0.64312000  0.21460000  1
  O  O73  1  0.83835000  0.36468000  0.79209000  1
  O  O74  1  0.72245000  0.79057000  0.07327000  1
  O  O75  1  0.27464000  0.21091000  0.92254000  1
  O  O76  1  0.68830000  0.88655000  0.33761000  1
  O  O77  1  0.31032000  0.12331000  0.64836000  1
