# generated using pymatgen
data_H25C33N6O
_symmetry_space_group_name_H-M   'P 1'
_cell_length_a   9.99646667
_cell_length_b   25.30030000
_cell_length_c   25.30200000
_cell_angle_alpha   89.96240000
_cell_angle_beta   90.00000000
_cell_angle_gamma   90.00000000
_symmetry_Int_Tables_number   1
_chemical_formula_structural   H25C33N6O
_chemical_formula_sum   'H50 C66 N12 O2'
_cell_volume   6399.21867113
_cell_formula_units_Z   2
loop_
 _symmetry_equiv_pos_site_id
 _symmetry_equiv_pos_as_xyz
  1  'x, y, z'
loop_
 _atom_site_type_symbol
 _atom_site_label
 _atom_site_symmetry_multiplicity
 _atom_site_fract_x
 _atom_site_fract_y
 _atom_site_fract_z
 _atom_site_occupancy
  C  1  1  0.01326400  0.08555000  0.85357300  1
  C  2  1  0.99895700  0.12819900  0.88704400  1
  C  3  1  0.98573900  0.10909800  0.93861700  1
  C  5  1  0.00829700  0.03936800  0.88385900  1
  C  6  1  0.02066600  0.98721500  0.86343000  1
  C  7  1  0.02261600  0.94053900  0.89460500  1
  C  9  1  0.02203200  0.88590100  0.96423200  1
  C  10  1  0.03557600  0.85526100  0.91864300  1
  C  11  1  0.03469100  0.88888700  0.87571300  1
  C  12  1  0.01723500  0.86669100  0.01692000  1
  C  13  1  0.00252400  0.89886600  0.06264400  1
  C  15  1  0.98087100  0.96866000  0.11739500  1
  C  16  1  0.97697000  0.92253500  0.14778100  1
  C  17  1  0.99016400  0.87983600  0.11428200  1
  C  18  1  0.96964200  0.02084600  0.13782800  1
  C  19  1  0.96679200  0.06751400  0.10667700  1
  C  21  1  0.96643100  0.12209300  0.03703900  1
  C  22  1  0.95487800  0.15282900  0.08264400  1
  C  23  1  0.95596300  0.11920100  0.12559400  1
  C  24  1  0.97134700  0.14124600  0.98435700  1
  C  25  1  0.96245500  0.19691400  0.97693800  1
  C  26  1  0.83810600  0.22066800  0.96520400  1
  C  27  1  0.82919300  0.27560600  0.95737100  1
  C  28  1  0.94413300  0.30794700  0.96129100  1
  C  29  1  0.06830700  0.28395100  0.97322300  1
  C  30  1  0.07764100  0.22899000  0.98081200  1
  C  31  1  0.95904400  0.02696000  0.19362900  1
  C  32  1  0.83325000  0.03557600  0.21755200  1
  C  33  1  0.82336500  0.04259200  0.27256400  1
  C  34  1  0.93870200  0.04072100  0.30486600  1
  C  35  1  0.06422100  0.03155900  0.28077800  1
  C  36  1  0.07452500  0.02498200  0.22573100  1
  C  37  1  0.02959300  0.81108500  0.02435400  1
  C  38  1  0.15334900  0.78908600  0.03991500  1
  C  39  1  0.16669700  0.73417200  0.04677600  1
  C  40  1  0.05711500  0.70000200  0.03779900  1
  C  41  1  0.93352900  0.72220100  0.02206200  1
  C  42  1  0.91956400  0.77716400  0.01563200  1
  C  43  1  0.03595100  0.98122900  0.80775000  1
  C  44  1  0.16284300  0.97010600  0.78582700  1
  C  45  1  0.92458600  0.98607700  0.77372100  1
  C  46  1  0.94003100  0.97988800  0.71880900  1
  C  47  1  0.06647800  0.96795500  0.69679100  1
  C  48  1  0.17766300  0.96318800  0.73099700  1
  C  75  1  0.93006300  0.04801800  0.36301300  1
  C  78  1  0.93627400  0.36608100  0.95358100  1
  C  81  1  0.08072400  0.96069200  0.63881500  1
  C  84  1  0.07014300  0.64187900  0.04445200  1
  C  87  1  0.98919900  0.00232100  0.44532800  1
  C  88  1  0.11817500  0.99056800  0.46483300  1
  C  89  1  0.14542600  0.99378900  0.51988400  1
  C  90  1  0.04304800  0.00841800  0.55569100  1
  C  91  1  0.91491200  0.02042700  0.53578800  1
  C  92  1  0.88793900  0.01709900  0.48136900  1
  C  94  1  0.37099600  0.96719400  0.50356900  1
  C  95  1  0.34453600  0.96424500  0.44904000  1
  C  101  1  0.51250000  0.98960800  0.38989400  1
  C  109  1  0.98964500  0.44867500  0.99985400  1
  C  110  1  0.11764600  0.46865000  0.01237600  1
  C  111  1  0.14320300  0.52387700  0.00988500  1
  C  112  1  0.04009800  0.55932800  0.99514600  1
  C  113  1  0.91311700  0.53892200  0.98212400  1
  C  114  1  0.88779700  0.48432000  0.98476800  1
  C  116  1  0.36865400  0.50831400  0.03709500  1
  C  117  1  0.34393200  0.45361300  0.03923800  1
  C  123  1  0.51159000  0.39463900  0.01324800  1
  H  49  1  0.27059500  0.95492500  0.71622400  1
  H  50  1  0.24505000  0.96651100  0.80969900  1
  H  51  1  0.85785200  0.98350900  0.69495300  1
  H  52  1  0.83165300  0.99413600  0.78869200  1
  H  53  1  0.02664800  0.08857600  0.81364300  1
  H  54  1  0.00055300  0.16678400  0.87506500  1
  H  55  1  0.98216200  0.03210600  0.96395900  1
  H  56  1  0.00532500  0.97584100  0.03722800  1
  H  57  1  0.04286900  0.87696200  0.83727000  1
  H  58  1  0.04414900  0.81508500  0.91625500  1
  H  59  1  0.23461700  0.81288400  0.04624800  1
  H  60  1  0.25759600  0.71929300  0.05790600  1
  H  61  1  0.82899300  0.79222200  0.00422100  1
  H  62  1  0.85256000  0.69838600  0.01531300  1
  H  63  1  0.98916400  0.84126800  0.12632400  1
  H  64  1  0.96488600  0.91961600  0.18778900  1
  H  65  1  0.94810000  0.19306500  0.08498000  1
  H  66  1  0.94942600  0.13113600  0.16408600  1
  H  67  1  0.74823000  0.03712900  0.19504500  1
  H  68  1  0.73108700  0.04888500  0.28887000  1
  H  69  1  0.16676400  0.01885900  0.20924900  1
  H  70  1  0.14932700  0.03004200  0.30322100  1
  H  71  1  0.16881800  0.21257400  0.98919000  1
  H  72  1  0.15308700  0.30642700  0.97627800  1
  H  73  1  0.73784000  0.29184400  0.94908300  1
  H  74  1  0.75335700  0.19814100  0.96223600  1
  H  76  1  0.82991700  0.06095100  0.37477600  1
  H  77  1  0.00007133  0.07928300  0.37431900  1
  H  79  1  0.83739000  0.37785000  0.93920200  1
  H  80  1  0.00919600  0.37725500  0.92330200  1
  H  82  1  0.00577000  0.93195100  0.62586300  1
  H  83  1  0.17892800  0.94431900  0.62908900  1
  H  85  1  0.99159000  0.62862700  0.07152200  1
  H  86  1  0.16616300  0.63170800  0.06250700  1
  H  97  1  0.46337300  0.95822800  0.51828300  1
  H  98  1  0.79362000  0.02527000  0.46810100  1
  H  99  1  0.83962100  0.03098300  0.56107000  1
  H  102  1  0.58703100  0.97246100  0.36353900  1
  H  103  1  0.56469900  0.01367000  0.41920000  1
  H  104  1  0.44641200  0.01476000  0.36636100  1
  H  106  1  0.13877200  0.03728500  0.61915300  1
  H  108  1  0.88992900  0.97038500  0.38447200  1
  H  119  1  0.46040200  0.52335900  0.04649700  1
  H  120  1  0.79416100  0.47066200  0.97601800  1
  H  121  1  0.83733600  0.56394500  0.97147200  1
  H  124  1  0.58722100  0.36855700  0.03009800  1
  H  125  1  0.56235800  0.42394700  0.98866100  1
  H  126  1  0.44489200  0.37080500  0.98867700  1
  H  128  1  0.13591800  0.62378300  0.96840900  1
  H  130  1  0.89022500  0.38727600  0.03076700  1
  N  4  1  0.99140100  0.05573000  0.93443600  1
  N  8  1  0.01466900  0.93662800  0.94776700  1
  N  14  1  0.99610600  0.95222900  0.06675800  1
  N  20  1  0.97312900  0.07135200  0.05348100  1
  N  93  1  0.27118000  0.98199000  0.53670100  1
  N  96  1  0.21893600  0.97555700  0.43191400  1
  N  105  1  0.06132400  0.01185200  0.61103900  1
  N  107  1  0.96402400  0.99789700  0.39047100  1
  N  115  1  0.26810900  0.54116500  0.02236800  1
  N  118  1  0.21911700  0.43602800  0.02731700  1
  N  127  1  0.05660900  0.61481800  0.99264100  1
  N  129  1  0.96583600  0.39369200  0.00400200  1
  O  100  1  0.43981900  0.94713100  0.41437000  1
  O  122  1  0.44022500  0.41918400  0.05600600  1
