# generated using pymatgen
data_H36C47(NO)4
_symmetry_space_group_name_H-M   'P 1'
_cell_length_a   22.52615931
_cell_length_b   22.52615931
_cell_length_c   27.80181267
_cell_angle_alpha   113.89866815
_cell_angle_beta   113.89866815
_cell_angle_gamma   90.00000000
_symmetry_Int_Tables_number   1
_chemical_formula_structural   H36C47(NO)4
_chemical_formula_sum   'H72 C94 N8 O8'
_cell_volume   11562.53014651
_cell_formula_units_Z   2
loop_
 _symmetry_equiv_pos_site_id
 _symmetry_equiv_pos_as_xyz
  1  'x, y, z'
loop_
 _atom_site_type_symbol
 _atom_site_label
 _atom_site_symmetry_multiplicity
 _atom_site_fract_x
 _atom_site_fract_y
 _atom_site_fract_z
 _atom_site_occupancy
  C  1  1  0.69474225  0.99877875  0.78773000  1
  C  2  1  0.73771375  0.04738275  0.79066200  1
  C  3  1  0.64391400  0.05468750  0.70420250  1
  C  4  1  0.59825825  0.01468925  0.70718700  1
  C  5  1  0.53083075  0.99838925  0.66549800  1
  C  6  1  0.50818850  0.01416050  0.61734800  1
  C  7  1  0.55527225  0.05250875  0.61465450  1
  C  8  1  0.62136750  0.07432000  0.65843200  1
  C  9  1  0.80313025  0.07061375  0.83641250  1
  C  10  1  0.82514800  0.04828600  0.88018350  1
  C  11  1  0.78411425  0.99854975  0.87754550  1
  C  12  1  0.72015925  0.97306725  0.82943600  1
  C  13  1  0.58788325  0.00430375  0.78775850  1
  C  14  1  0.54788025  0.95864775  0.79074000  1
  C  15  1  0.55517975  0.86484925  0.70427750  1
  C  16  1  0.60377475  0.90782375  0.70719550  1
  C  17  1  0.53195275  0.79942875  0.65853650  1
  C  18  1  0.55427300  0.77740000  0.61476200  1
  C  19  1  0.60398525  0.81844175  0.61737950  1
  C  20  1  0.62948025  0.88239275  0.66548750  1
  C  21  1  0.60419775  0.07172525  0.82945850  1
  C  22  1  0.58839325  0.09438025  0.87759000  1
  C  23  1  0.55002575  0.04729925  0.88027150  1
  C  24  1  0.52825600  0.98119400  0.83651450  1
  C  37  1  0.62116175  0.98139875  0.74746800  1
  C  38  1  0.52722525  0.88743425  0.74752400  1
  C  41  1  0.71512825  0.07534375  0.74741850  1
  C  44  1  0.80143675  0.97666775  0.92248150  1
  C  45  1  0.44137750  0.98650250  0.57241100  1
  C  46  1  0.62587050  0.80110600  0.57244400  1
  C  47  1  0.61601775  0.16120425  0.92250500  1
  C  205  1  0.40451825  0.21399575  0.20718550  1
  C  206  1  0.44442950  0.16526950  0.20415150  1
  C  207  1  0.43734175  0.15814975  0.29077750  1
  C  208  1  0.38862650  0.19807800  0.28777800  1
  C  209  1  0.36342950  0.21491950  0.32987300  1
  C  210  1  0.38987950  0.20012850  0.37855400  1
  C  211  1  0.43933725  0.16141475  0.38102050  1
  C  212  1  0.46096625  0.13889825  0.33678900  1
  C  213  1  0.46363975  0.14164875  0.15811500  1
  C  214  1  0.44113925  0.16332275  0.11391550  1
  C  215  1  0.40243000  0.21278950  0.11640850  1
  C  216  1  0.38763925  0.23919875  0.16509150  1
  C  217  1  0.29764700  0.20846350  0.20722500  1
  C  218  1  0.25471900  0.25417450  0.20421100  1
  C  219  1  0.34846625  0.34789875  0.29081650  1
  C  220  1  0.39416375  0.30496025  0.28776700  1
  C  221  1  0.37088400  0.41314050  0.33686400  1
  C  222  1  0.43676100  0.43483250  0.38105700  1
  C  223  1  0.48374325  0.39364775  0.37852850  1
  C  224  1  0.46147150  0.33018900  0.32982900  1
  C  225  1  0.27239950  0.14116350  0.16514950  1
  C  226  1  0.20893700  0.11892500  0.11645500  1
  C  227  1  0.16776050  0.16591800  0.11396250  1
  C  228  1  0.18945725  0.23177725  0.15819300  1
  C  241  1  0.37123950  0.23137450  0.24748750  1
  C  242  1  0.27727750  0.32535850  0.24752300  1
  C  245  1  0.46519850  0.13738900  0.24745600  1
  C  248  1  0.37302750  0.23306500  0.07058050  1
  C  249  1  0.36963950  0.22954850  0.42440100  1
  C  250  1  0.54983225  0.41004275  0.42436950  1
  C  251  1  0.19251550  0.05283100  0.07061750  1
  C  409  1  0.92639025  0.99663425  0.97616900  1
  C  410  1  0.95309525  0.97462775  0.93490400  1
  C  411  1  0.02250675  0.99000725  0.95576800  1
  C  412  1  0.06773000  0.01774600  0.01626000  1
  C  413  1  0.04101900  0.03504250  0.05746100  1
  C  415  1  0.97154825  0.02868475  0.03670000  1
  C  417  1  0.08006175  0.05144025  0.12064100  1
  C  421  1  0.91421350  0.92890600  0.87142150  1
  C  429  1  0.54479925  0.19497575  0.97623250  1
  C  430  1  0.47682175  0.17568225  0.93496600  1
  C  431  1  0.42825950  0.18108300  0.95581000  1
  C  432  1  0.44352550  0.21384750  0.01630400  1
  C  433  1  0.51142375  0.23781175  0.05751150  1
  C  435  1  0.56013725  0.22348975  0.03675550  1
  C  437  1  0.53553175  0.28457325  0.12069400  1
  C  441  1  0.45222175  0.15793625  0.87148550  1
  C  449  1  0.60588900  0.67615900  0.51878950  1
  C  450  1  0.62798475  0.64944975  0.56004950  1
  C  451  1  0.61266825  0.58003975  0.53921150  1
  C  452  1  0.58501100  0.53483200  0.47872350  1
  C  453  1  0.56758825  0.56150675  0.43749250  1
  C  455  1  0.57390175  0.63097625  0.45825800  1
  C  457  1  0.55119700  0.52246500  0.37431350  1
  C  461  1  0.67369525  0.68836075  0.62353450  1
  C  469  1  0.40754150  0.05775550  0.51871100  1
  C  470  1  0.42694750  0.12572450  0.56000050  1
  C  471  1  0.42163425  0.17429575  0.53917000  1
  C  472  1  0.38887700  0.15905000  0.47867800  1
  C  473  1  0.36481625  0.09116375  0.43745950  1
  C  475  1  0.37905075  0.04242875  0.45819400  1
  C  477  1  0.31804500  0.06708900  0.37428400  1
  C  481  1  0.44468750  0.15031650  0.62348000  1
  H  25  1  0.53872750  0.06008600  0.91479700  1
  H  26  1  0.50075675  0.94846175  0.84012600  1
  H  27  1  0.49565200  0.76832950  0.65498800  1
  H  28  1  0.53253375  0.73156025  0.58026300  1
  H  29  1  0.66493250  0.91383450  0.66839550  1
  H  30  1  0.63266775  0.10427175  0.82649700  1
  H  31  1  0.49829275  0.96989825  0.66844800  1
  H  32  1  0.54248825  0.06378275  0.58011500  1
  H  33  1  0.65410950  0.10177800  0.65479600  1
  H  34  1  0.68872650  0.93759400  0.82651100  1
  H  35  1  0.83423050  0.10693000  0.83997950  1
  H  36  1  0.87098525  0.07002575  0.91468900  1
  H  39  1  0.54093550  0.85763450  0.77171400  1
  H  40  1  0.47323200  0.87693900  0.72336150  1
  H  42  1  0.74493075  0.06163725  0.72322950  1
  H  43  1  0.72562425  0.12933825  0.77158650  1
  H  229  1  0.12222175  0.15333625  0.07912100  1
  H  230  1  0.15842050  0.26456950  0.15457350  1
  H  231  1  0.33810425  0.44419125  0.34049350  1
  H  232  1  0.44935425  0.48035325  0.41592450  1
  H  233  1  0.49404650  0.29875850  0.32700600  1
  H  234  1  0.30383300  0.10859050  0.16795250  1
  H  235  1  0.32805750  0.24355600  0.32707850  1
  H  236  1  0.46160675  0.15071475  0.41585800  1
  H  237  1  0.49736300  0.11146250  0.34038350  1
  H  238  1  0.35904325  0.27460475  0.16791700  1
  H  239  1  0.49109025  0.10526375  0.15450350  1
  H  240  1  0.45182625  0.14106825  0.07906750  1
  H  243  1  0.26686925  0.35526825  0.22343500  1
  H  244  1  0.24738475  0.33575725  0.27162700  1
  H  246  1  0.51919575  0.15107475  0.27153700  1
  H  247  1  0.45149750  0.08339350  0.22336050  1
  H  414  1  0.04128775  0.97346075  0.92565450  1
  H  416  1  0.95277225  0.04072175  0.06674350  1
  H  418  1  0.13011400  0.04223650  0.13156150  1
  H  419  1  0.05641375  0.02096175  0.13259400  1
  H  420  1  0.08247050  0.10339250  0.14762050  1
  H  422  1  0.86410975  0.90840325  0.86006950  1
  H  423  1  0.93796325  0.88671575  0.85886850  1
  H  424  1  0.91190775  0.95491675  0.84523300  1
  H  426  1  0.13700225  0.97021175  0.00134000  1
  H  428  1  0.85791925  0.96098875  0.99015700  1
  H  434  1  0.37937250  0.16755600  0.92568800  1
  H  436  1  0.60895875  0.24146575  0.06680950  1
  H  438  1  0.49637875  0.30463625  0.13161100  1
  H  439  1  0.57109250  0.32704250  0.13265950  1
  H  440  1  0.56014125  0.25960225  0.14766600  1
  H  442  1  0.49096950  0.16713600  0.86014550  1
  H  443  1  0.41589100  0.18754900  0.85893250  1
  H  444  1  0.42837650  0.10572950  0.84528900  1
  H  446  1  0.35936175  0.24653025  0.00137500  1
  H  448  1  0.62729575  0.24454275  0.99022600  1
  H  454  1  0.62926825  0.56124975  0.56931500  1
  H  456  1  0.56178700  0.64972650  0.42819050  1
  H  458  1  0.56046550  0.47243550  0.36341000  1
  H  459  1  0.58163075  0.54614875  0.36234850  1
  H  460  1  0.49922825  0.51999925  0.34733300  1
  H  462  1  0.69414825  0.73847725  0.63487850  1
  H  463  1  0.71592050  0.66465350  0.63609250  1
  H  464  1  0.64769450  0.69063000  0.64972050  1
  H  466  1  0.63247850  0.46552500  0.49362150  1
  H  468  1  0.64152700  0.74460250  0.50475800  1
  H  474  1  0.43520750  0.22317450  0.56931050  1
  H  476  1  0.36105025  0.99360725  0.42814100  1
  H  478  1  0.29800050  0.10626400  0.36339200  1
  H  479  1  0.27556050  0.03154050  0.36230950  1
  H  480  1  0.34300100  0.04247950  0.34729900  1
  H  482  1  0.43542300  0.11157500  0.63480300  1
  H  483  1  0.41511675  0.18669475  0.63604250  1
  H  484  1  0.49690775  0.17410825  0.64967850  1
  H  486  1  0.35632375  0.24329625  0.49369000  1
  H  488  1  0.35800525  0.97525925  0.50473650  1
  N  425  1  0.13279825  0.01239375  0.02854800  1
  N  427  1  0.86154175  0.97758925  0.96368400  1
  N  445  1  0.39073075  0.23150225  0.02856150  1
  N  447  1  0.59716100  0.20149350  0.96373750  1
  N  465  1  0.59030650  0.46974850  0.46641650  1
  N  467  1  0.62492800  0.74099400  0.53123750  1
  N  485  1  0.37128250  0.21188750  0.46646550  1
  N  487  1  0.40105425  0.00539625  0.53121850  1
  O  48  1  0.41324575  0.92977525  0.56759950  1
  O  49  1  0.74955200  0.95334600  0.92732900  1
  O  50  1  0.64915450  0.85298200  0.56756350  1
  O  51  1  0.67279200  0.18930750  0.92737000  1
  O  252  1  0.34828000  0.28724150  0.42964250  1
  O  253  1  0.31542250  0.25459000  0.06543150  1
  O  254  1  0.57645100  0.35756500  0.42951900  1
  O  255  1  0.24497500  0.02619800  0.06543300  1
