# generated using pymatgen
data_H9C18N6O
_symmetry_space_group_name_H-M   'P 1'
_cell_length_a   19.41420000
_cell_length_b   19.41420000
_cell_length_c   77.65670000
_cell_angle_alpha   90.00000000
_cell_angle_beta   90.00000000
_cell_angle_gamma   90.00000000
_symmetry_Int_Tables_number   1
_chemical_formula_structural   H9C18N6O
_chemical_formula_sum   'H144 C288 N96 O16'
_cell_volume   29269.67700613
_cell_formula_units_Z   16
loop_
 _symmetry_equiv_pos_site_id
 _symmetry_equiv_pos_as_xyz
  1  'x, y, z'
loop_
 _atom_site_type_symbol
 _atom_site_label
 _atom_site_symmetry_multiplicity
 _atom_site_fract_x
 _atom_site_fract_y
 _atom_site_fract_z
 _atom_site_occupancy
  C  1  1  0.00855700  0.01886900  0.11659900  1
  C  2  1  0.01495300  0.00024800  0.09895000  1
  C  3  1  0.00236400  0.04693700  0.08536100  1
  C  4  1  0.98228200  0.11491200  0.08932300  1
  C  5  1  0.97734700  0.13639900  0.10663100  1
  C  6  1  0.99017800  0.08835900  0.11990400  1
  C  9  1  0.01750900  0.97020800  0.13027900  1
  C  10  1  0.00907300  0.89857800  0.12736000  1
  C  11  1  0.01355400  0.84898200  0.14059700  1
  C  12  1  0.02774400  0.87103300  0.15752800  1
  C  13  1  0.03669000  0.94171800  0.16115200  1
  C  14  1  0.03171500  0.98995600  0.14755800  1
  C  25  1  0.96904900  0.00981700  0.61585800  1
  C  26  1  0.98617600  0.02285300  0.59834500  1
  C  27  1  0.93816400  0.01490200  0.58481100  1
  C  28  1  0.87101200  0.99185200  0.58867200  1
  C  29  1  0.85134600  0.97973700  0.60588700  1
  C  30  1  0.90031000  0.98866800  0.61913200  1
  C  33  1  0.01827600  0.01603600  0.62948100  1
  C  34  1  0.08982100  0.00849000  0.62631300  1
  C  35  1  0.13955300  0.00997200  0.63957900  1
  C  36  1  0.11779600  0.02123200  0.65668700  1
  C  37  1  0.04724000  0.03001100  0.66049200  1
  C  38  1  0.99879000  0.02704300  0.64691200  1
  C  49  1  0.98715700  0.01350700  0.88032400  1
  C  50  1  0.97703300  0.99453800  0.89784600  1
  C  51  1  0.98617000  0.04118700  0.91161500  1
  C  52  1  0.00596000  0.10954900  0.90799200  1
  C  53  1  0.01446900  0.13134800  0.89080300  1
  C  54  1  0.00530600  0.08331000  0.87735000  1
  C  57  1  0.98322700  0.96493800  0.86646800  1
  C  58  1  0.99201400  0.89341400  0.86942100  1
  C  59  1  0.99303600  0.84421200  0.85604200  1
  C  60  1  0.98497600  0.86669100  0.83888600  1
  C  61  1  0.97662600  0.93740200  0.83518000  1
  C  62  1  0.97447300  0.98490400  0.84898300  1
  C  73  1  0.01865700  0.01734000  0.38049400  1
  C  74  1  0.00033900  0.04261900  0.39704100  1
  C  75  1  0.04789900  0.04648700  0.41079300  1
  C  76  1  0.11639100  0.02476700  0.40801800  1
  C  77  1  0.13706900  0.00010700  0.39172200  1
  C  78  1  0.08819900  0.99686900  0.37828000  1
  C  81  1  0.96962100  0.01071500  0.36686700  1
  C  82  1  0.89861600  0.00126800  0.37038000  1
  C  83  1  0.84915800  0.99137300  0.35727600  1
  C  84  1  0.87081200  0.99216400  0.33991800  1
  C  85  1  0.94106400  0.00116900  0.33574800  1
  C  86  1  0.98907000  0.01072500  0.34924000  1
  C  97  1  0.04988600  0.01744300  0.20300800  1
  C  98  1  0.10436100  0.03888500  0.21386400  1
  C  100  1  0.03911200  0.01374900  0.23915300  1
  C  101  1  0.98231800  0.99298500  0.22893200  1
  C  102  1  0.98797400  0.99525600  0.21088700  1
  C  104  1  0.03311600  0.00976100  0.25721400  1
  C  105  1  0.01944900  0.99979100  0.29326300  1
  C  106  1  0.96401200  0.98075700  0.28239700  1
  C  109  1  0.97051700  0.98549000  0.26438900  1
  C  113  1  0.08075100  0.02325100  0.28531900  1
  C  115  1  0.05640700  0.01732300  0.18526300  1
  C  116  1  0.01561400  0.99505000  0.31105800  1
  C  119  1  0.97120000  0.04565200  0.70227500  1
  C  120  1  0.94926400  0.10074700  0.71288500  1
  C  122  1  0.96950200  0.03570100  0.73846800  1
  C  123  1  0.99098200  0.97841400  0.72851300  1
  C  124  1  0.99133200  0.98363600  0.71044900  1
  C  126  1  0.97018800  0.02988500  0.75656400  1
  C  127  1  0.97375700  0.01643500  0.79271200  1
  C  128  1  0.99386100  0.96066800  0.78206300  1
  C  131  1  0.99222800  0.96701400  0.76402200  1
  C  135  1  0.95245600  0.07793900  0.78448600  1
  C  137  1  0.97180000  0.05112300  0.68447100  1
  C  138  1  0.97713600  0.01314500  0.81055000  1
  C  141  1  0.96522700  0.96733900  0.95377500  1
  C  142  1  0.90963400  0.96577000  0.96551300  1
  C  144  1  0.98623800  0.96312000  0.98955600  1
  C  145  1  0.04387000  0.96242000  0.97836200  1
  C  146  1  0.03296700  0.96438000  0.96047000  1
  C  148  1  0.99806800  0.96462200  0.00745000  1
  C  149  1  0.02372100  0.97416400  0.04299500  1
  C  150  1  0.07943300  0.96889400  0.03134300  1
  C  153  1  0.06696600  0.96481500  0.01351600  1
  C  157  1  0.95606100  0.97252300  0.03621200  1
  C  159  1  0.95373000  0.97378200  0.93632300  1
  C  160  1  0.03533000  0.98167400  0.06043700  1
  C  163  1  0.97736800  0.07608300  0.45209100  1
  C  164  1  0.96147200  0.01499900  0.46118800  1
  C  166  1  0.98664000  0.06828200  0.48810700  1
  C  167  1  0.00278700  0.13104800  0.47969900  1
  C  168  1  0.99825300  0.13452500  0.46162000  1
  C  170  1  0.99145000  0.06521700  0.50618100  1
  C  171  1  0.99880000  0.06144000  0.54235000  1
  C  172  1  0.01575300  0.12265300  0.53339800  1
  C  175  1  0.01186900  0.12505900  0.51529600  1
  C  179  1  0.97981000  0.00311500  0.53247300  1
  C  181  1  0.97374600  0.07823100  0.43437600  1
  C  182  1  0.99969800  0.05945800  0.56018000  1
  C  185  1  0.94730800  0.31261300  0.12367000  1
  C  186  1  0.94731800  0.35044100  0.13924900  1
  C  188  1  0.95219000  0.45718600  0.12423100  1
  C  189  1  0.94911500  0.42249100  0.10820700  1
  C  190  1  0.94642600  0.35017800  0.10802800  1
  C  192  1  0.95948600  0.52922900  0.12426600  1
  C  193  1  0.97957200  0.67249800  0.12380400  1
  C  194  1  0.97159800  0.63591400  0.10816300  1
  C  197  1  0.96232200  0.56416000  0.10827300  1
  C  201  1  0.97605400  0.63466000  0.13936600  1
  C  203  1  0.95290900  0.24044300  0.12414000  1
  C  204  1  0.99091000  0.74396600  0.12345300  1
  C  207  1  0.67610800  0.94292900  0.62266900  1
  C  208  1  0.63801800  0.94018800  0.63819400  1
  C  210  1  0.53141600  0.94800800  0.62314300  1
  C  211  1  0.56640000  0.94735800  0.60714200  1
  C  212  1  0.63870800  0.94461800  0.60700400  1
  C  214  1  0.45937200  0.95575000  0.62315200  1
  C  215  1  0.31612100  0.97699700  0.62265100  1
  C  216  1  0.35310200  0.97106000  0.60701300  1
  C  219  1  0.42479800  0.96123500  0.60715100  1
  C  223  1  0.35359800  0.97086200  0.63822300  1
  C  225  1  0.74828800  0.94884800  0.62322700  1
  C  226  1  0.24470900  0.98895400  0.62228900  1
  C  229  1  0.04919500  0.30744700  0.87424300  1
  C  230  1  0.05388400  0.34509900  0.85868200  1
  C  232  1  0.04633900  0.45201100  0.87354400  1
  C  233  1  0.04456600  0.41744800  0.88959800  1
  C  234  1  0.04632200  0.34511900  0.88985100  1
  C  236  1  0.04006500  0.52413200  0.87335100  1
  C  237  1  0.02158900  0.66759400  0.87339200  1
  C  238  1  0.02466200  0.63108500  0.88915200  1
  C  241  1  0.03318800  0.55924600  0.88924100  1
  C  245  1  0.02919100  0.62959600  0.85794700  1
  C  247  1  0.04310900  0.23533900  0.87370600  1
  C  248  1  0.01059100  0.73911400  0.87351300  1
  C  251  1  0.31231400  0.94963300  0.37708500  1
  C  252  1  0.34987400  0.93426000  0.36194300  1
  C  254  1  0.45704100  0.94750300  0.37647000  1
  C  255  1  0.42246000  0.95983400  0.39223300  1
  C  256  1  0.35008000  0.96073000  0.39244700  1
  C  258  1  0.52935300  0.95178400  0.37613000  1
  C  259  1  0.67323000  0.96808000  0.37562500  1
  C  260  1  0.63661700  0.97390100  0.39132500  1
  C  263  1  0.56459800  0.96687000  0.39164400  1
  C  267  1  0.63511800  0.95234800  0.36058200  1
  C  269  1  0.24036500  0.95733100  0.37624100  1
  C  270  1  0.74476400  0.97934000  0.37536000  1
  C  1089  1  0.26610100  0.32792100  0.12947600  1
  C  1090  1  0.27249700  0.30930000  0.11182700  1
  C  1091  1  0.25990800  0.35598900  0.09823820  1
  C  1092  1  0.23982600  0.42396400  0.10220000  1
  C  1093  1  0.23489100  0.44545100  0.11950800  1
  C  1094  1  0.24772200  0.39741100  0.13278100  1
  C  1097  1  0.27505300  0.27926000  0.14315600  1
  C  1098  1  0.26661700  0.20763000  0.14023700  1
  C  1099  1  0.27109800  0.15803410  0.15347400  1
  C  1100  1  0.28528800  0.18008510  0.17040500  1
  C  1101  1  0.29423400  0.25077000  0.17402900  1
  C  1102  1  0.28925900  0.29900800  0.16043500  1
  C  1113  1  0.22659300  0.31886900  0.62873500  1
  C  1114  1  0.24372000  0.33190500  0.61122200  1
  C  1115  1  0.19570770  0.32395400  0.59768800  1
  C  1116  1  0.12855570  0.30090400  0.60154900  1
  C  1117  1  0.10888970  0.28878900  0.61876400  1
  C  1118  1  0.15785370  0.29772000  0.63200900  1
  C  1121  1  0.27582000  0.32508800  0.64235800  1
  C  1122  1  0.34736500  0.31754200  0.63919000  1
  C  1123  1  0.39709700  0.31902400  0.65245600  1
  C  1124  1  0.37534000  0.33028400  0.66956400  1
  C  1125  1  0.30478400  0.33906300  0.67336900  1
  C  1126  1  0.25633400  0.33609500  0.65978900  1
  C  1137  1  0.24470100  0.32255900  0.89320100  1
  C  1138  1  0.23457700  0.30359000  0.91072300  1
  C  1139  1  0.24371400  0.35023900  0.92449200  1
  C  1140  1  0.26350400  0.41860100  0.92086900  1
  C  1141  1  0.27201300  0.44040000  0.90368000  1
  C  1142  1  0.26285000  0.39236200  0.89022700  1
  C  1145  1  0.24077100  0.27399000  0.87934500  1
  C  1146  1  0.24955800  0.20246600  0.88229800  1
  C  1147  1  0.25058000  0.15326410  0.86891900  1
  C  1148  1  0.24252000  0.17574310  0.85176300  1
  C  1149  1  0.23417000  0.24645400  0.84805700  1
  C  1150  1  0.23201700  0.29395600  0.86186000  1
  C  1161  1  0.27620100  0.32639200  0.39337100  1
  C  1162  1  0.25788300  0.35167100  0.40991800  1
  C  1163  1  0.30544300  0.35553900  0.42367000  1
  C  1164  1  0.37393500  0.33381900  0.42089500  1
  C  1165  1  0.39461300  0.30915900  0.40459900  1
  C  1166  1  0.34574300  0.30592100  0.39115700  1
  C  1169  1  0.22716500  0.31976700  0.37974400  1
  C  1170  1  0.15615970  0.31032000  0.38325700  1
  C  1171  1  0.10670170  0.30042500  0.37015300  1
  C  1172  1  0.12835570  0.30121600  0.35279500  1
  C  1173  1  0.19860770  0.31022100  0.34862500  1
  C  1174  1  0.24661400  0.31977700  0.36211700  1
  C  1185  1  0.30743000  0.32649500  0.21588500  1
  C  1186  1  0.36190500  0.34793700  0.22674100  1
  C  1188  1  0.29665600  0.32280100  0.25203000  1
  C  1189  1  0.23986200  0.30203700  0.24180900  1
  C  1190  1  0.24551800  0.30430800  0.22376400  1
  C  1192  1  0.29066000  0.31881300  0.27009100  1
  C  1193  1  0.27699300  0.30884300  0.30614000  1
  C  1194  1  0.22155600  0.28980900  0.29527400  1
  C  1197  1  0.22806100  0.29454200  0.27726600  1
  C  1201  1  0.33829500  0.33230300  0.29819600  1
  C  1203  1  0.31395100  0.32637500  0.19814000  1
  C  1204  1  0.27315800  0.30410200  0.32393500  1
  C  1207  1  0.22874400  0.35470400  0.71515200  1
  C  1208  1  0.20680800  0.40979900  0.72576200  1
  C  1210  1  0.22704600  0.34475300  0.75134500  1
  C  1211  1  0.24852600  0.28746600  0.74139000  1
  C  1212  1  0.24887600  0.29268800  0.72332600  1
  C  1214  1  0.22773200  0.33893700  0.76944100  1
  C  1215  1  0.23130100  0.32548700  0.80558900  1
  C  1216  1  0.25140500  0.26972000  0.79494000  1
  C  1219  1  0.24977200  0.27606600  0.77689900  1
  C  1223  1  0.21000000  0.38699100  0.79736300  1
  C  1225  1  0.22934400  0.36017500  0.69734800  1
  C  1226  1  0.23468000  0.32219700  0.82342700  1
  C  1229  1  0.22277100  0.27639100  0.96665200  1
  C  1230  1  0.16717770  0.27482200  0.97839000  1
  C  1232  1  0.24378200  0.27217200  0.00243319  1
  C  1233  1  0.30141400  0.27147200  0.99123900  1
  C  1234  1  0.29051100  0.27343200  0.97334700  1
  C  1236  1  0.25561200  0.27367400  0.02032720  1
  C  1237  1  0.28126500  0.28321600  0.05587220  1
  C  1238  1  0.33697700  0.27794600  0.04422020  1
  C  1241  1  0.32451000  0.27386700  0.02639320  1
  C  1245  1  0.21360500  0.28157500  0.04908920  1
  C  1247  1  0.21127400  0.28283400  0.94920000  1
  C  1248  1  0.29287400  0.29072600  0.07331420  1
  C  1251  1  0.23491200  0.38513500  0.46496800  1
  C  1252  1  0.21901600  0.32405100  0.47406500  1
  C  1254  1  0.24418400  0.37733400  0.50098400  1
  C  1255  1  0.26033100  0.44010000  0.49257600  1
  C  1256  1  0.25579700  0.44357700  0.47449700  1
  C  1258  1  0.24899400  0.37426900  0.51905800  1
  C  1259  1  0.25634400  0.37049200  0.55522700  1
  C  1260  1  0.27329700  0.43170500  0.54627500  1
  C  1263  1  0.26941300  0.43411100  0.52817300  1
  C  1267  1  0.23735400  0.31216700  0.54535000  1
  C  1269  1  0.23129000  0.38728300  0.44725300  1
  C  1270  1  0.25724200  0.36851000  0.57305700  1
  C  1273  1  0.20485200  0.62166500  0.13654700  1
  C  1274  1  0.20486200  0.65949300  0.15212600  1
  C  1276  1  0.20973400  0.76623800  0.13710800  1
  C  1277  1  0.20665900  0.73154300  0.12108400  1
  C  1278  1  0.20397000  0.65923000  0.12090500  1
  C  1280  1  0.21703000  0.83828100  0.13714300  1
  C  1281  1  0.23711600  0.98155000  0.13668100  1
  C  1282  1  0.22914200  0.94496600  0.12104000  1
  C  1285  1  0.21986600  0.87321200  0.12115000  1
  C  1289  1  0.23359800  0.94371200  0.15224300  1
  C  1291  1  0.21045300  0.54949500  0.13701700  1
  C  1292  1  0.24845400  0.05301810  0.13633000  1
  C  1295  1  0.93365200  0.25198100  0.63554600  1
  C  1296  1  0.89556200  0.24924000  0.65107100  1
  C  1298  1  0.78896000  0.25706000  0.63602000  1
  C  1299  1  0.82394400  0.25641000  0.62001900  1
  C  1300  1  0.89625200  0.25367000  0.61988100  1
  C  1302  1  0.71691600  0.26480200  0.63602900  1
  C  1303  1  0.57366500  0.28604900  0.63552800  1
  C  1304  1  0.61064600  0.28011200  0.61989000  1
  C  1307  1  0.68234200  0.27028700  0.62002800  1
  C  1311  1  0.61114200  0.27991400  0.65110000  1
  C  1313  1  0.00583172  0.25790000  0.63610400  1
  C  1314  1  0.50225300  0.29800600  0.63516600  1
  C  1317  1  0.30673900  0.61649900  0.88712000  1
  C  1318  1  0.31142800  0.65415100  0.87155900  1
  C  1320  1  0.30388300  0.76106300  0.88642100  1
  C  1321  1  0.30211000  0.72650000  0.90247500  1
  C  1322  1  0.30386600  0.65417100  0.90272800  1
  C  1324  1  0.29760900  0.83318400  0.88622800  1
  C  1325  1  0.27913300  0.97664600  0.88626900  1
  C  1326  1  0.28220600  0.94013700  0.90202900  1
  C  1329  1  0.29073200  0.86829800  0.90211800  1
  C  1333  1  0.28673500  0.93864800  0.87082400  1
  C  1335  1  0.30065300  0.54439100  0.88658300  1
  C  1336  1  0.26813500  0.04816610  0.88639000  1
  C  1339  1  0.56985800  0.25868500  0.38996200  1
  C  1340  1  0.60741800  0.24331200  0.37482000  1
  C  1342  1  0.71458500  0.25655500  0.38934700  1
  C  1343  1  0.68000400  0.26888600  0.40511000  1
  C  1344  1  0.60762400  0.26978200  0.40532400  1
  C  1346  1  0.78689700  0.26083600  0.38900700  1
  C  1347  1  0.93077400  0.27713200  0.38850200  1
  C  1348  1  0.89416100  0.28295300  0.40420200  1
  C  1351  1  0.82214200  0.27592200  0.40452100  1
  C  1355  1  0.89266200  0.26140000  0.37345900  1
  C  1357  1  0.49790900  0.26638300  0.38911800  1
  C  1358  1  0.00230772  0.28839200  0.38823700  1
  H  7  1  0.03044900  0.95184500  0.09564800  1
  H  16  1  0.04042400  0.04041400  0.15047900  1
  H  17  1  0.92067800  0.15854100  0.07392100  1
  H  18  1  0.07840700  0.80963700  0.17157300  1
  H  19  1  0.98204400  0.10405400  0.13222800  1
  H  20  1  0.99331000  0.88199400  0.11559200  1
  H  31  1  0.03389400  0.04100100  0.59523900  1
  H  40  1  0.94832200  0.03529900  0.64993100  1
  H  41  1  0.82699800  0.93681000  0.57185000  1
  H  42  1  0.18001700  0.06925500  0.67108200  1
  H  43  1  0.88593400  0.97575000  0.63131600  1
  H  44  1  0.10603500  0.99565800  0.61427300  1
  H  55  1  0.96193000  0.94577200  0.90091300  1
  H  64  1  0.96421200  0.03502600  0.84607000  1
  H  65  1  0.06414000  0.15341400  0.92417800  1
  H  66  1  0.94094000  0.80515800  0.82354600  1
  H  67  1  0.01641200  0.09925300  0.86519700  1
  H  68  1  0.00366400  0.87668400  0.88146300  1
  H  79  1  0.95213400  0.06202700  0.39904000  1
  H  88  1  0.03877500  0.02171100  0.34597800  1
  H  89  1  0.16116700  0.98513000  0.42725800  1
  H  90  1  0.80659600  0.02777000  0.32390500  1
  H  91  1  0.10307400  0.97526600  0.36692700  1
  H  92  1  0.88293700  0.99639500  0.38282700  1
  H  103  1  0.94704200  0.97966000  0.20352700  1
  H  107  1  0.15021100  0.05534700  0.20885500  1
  H  112  1  0.91891800  0.96257000  0.28750900  1
  H  114  1  0.12249900  0.03766300  0.29250400  1
  H  117  1  0.09184000  0.04785200  0.18001200  1
  H  118  1  0.05871000  0.98660800  0.31764300  1
  H  125  1  0.00686500  0.94211500  0.70329200  1
  H  129  1  0.93382800  0.14660300  0.70767800  1
  H  134  1  0.01083200  0.91544400  0.78736100  1
  H  136  1  0.93772200  0.12006200  0.79149000  1
  H  139  1  0.94365600  0.08850700  0.67927100  1
  H  140  1  0.98459000  0.05650000  0.81709400  1
  H  147  1  0.07464600  0.96531400  0.95238100  1
  H  151  1  0.85975500  0.96816000  0.96131100  1
  H  156  1  0.12920100  0.97044000  0.03571500  1
  H  158  1  0.91398100  0.97553200  0.04409900  1
  H  161  1  0.92083200  0.94225400  0.93048800  1
  H  162  1  0.07061400  0.95246400  0.06616400  1
  H  169  1  0.01013700  0.17967300  0.45547200  1
  H  173  1  0.94656000  0.97128400  0.45484700  1
  H  178  1  0.02945400  0.16619500  0.54001500  1
  H  180  1  0.96757600  0.95734600  0.53823100  1
  H  183  1  0.93206600  0.05642800  0.42927500  1
  H  184  1  0.03429000  0.08719900  0.56658000  1
  H  191  1  0.94667900  0.32531400  0.09640600  1
  H  195  1  0.94829100  0.32613900  0.15093200  1
  H  200  1  0.97442200  0.66094400  0.09657000  1
  H  202  1  0.98111200  0.65822000  0.15106500  1
  H  205  1  0.95655800  0.21651800  0.13583000  1
  H  206  1  0.99181600  0.76820100  0.11177300  1
  H  213  1  0.66371000  0.94680200  0.59541300  1
  H  217  1  0.66218000  0.93932800  0.64989700  1
  H  222  1  0.32839400  0.97577100  0.59541400  1
  H  224  1  0.32977500  0.97436400  0.64992500  1
  H  227  1  0.77234800  0.95032600  0.63493200  1
  H  228  1  0.22065400  0.99166600  0.61060100  1
  H  235  1  0.04256700  0.32035500  0.90145000  1
  H  239  1  0.05565700  0.32070000  0.84701700  1
  H  244  1  0.01882800  0.65626200  0.90065500  1
  H  246  1  0.02769700  0.65310000  0.84618000  1
  H  249  1  0.04235600  0.21140900  0.86198500  1
  H  250  1  0.00604100  0.76327200  0.88514700  1
  H  257  1  0.32542300  0.97218100  0.40374000  1
  H  261  1  0.32544800  0.92603700  0.35045500  1
  H  266  1  0.66177400  0.98614800  0.40251100  1
  H  268  1  0.65864800  0.94718600  0.34888300  1
  H  271  1  0.21633800  0.95044400  0.36465600  1
  H  272  1  0.76901500  0.99006200  0.38672700  1
  H  1095  1  0.28799300  0.26089700  0.10852500  1
  H  1104  1  0.29796800  0.34946600  0.16335600  1
  H  1105  1  0.17822170  0.46759300  0.08679820  1
  H  1106  1  0.33595100  0.11868910  0.18445000  1
  H  1107  1  0.23958800  0.41310600  0.14510500  1
  H  1108  1  0.25085400  0.19104610  0.12846900  1
  H  1119  1  0.29143800  0.35005300  0.60811600  1
  H  1128  1  0.20586600  0.34435100  0.66280800  1
  H  1129  1  0.08454170  0.24586200  0.58472700  1
  H  1130  1  0.43756100  0.37830700  0.68395900  1
  H  1131  1  0.14347770  0.28480200  0.64419300  1
  H  1132  1  0.36357900  0.30471000  0.62715000  1
  H  1143  1  0.21947400  0.25482400  0.91379000  1
  H  1152  1  0.22175600  0.34407800  0.85894700  1
  H  1153  1  0.32168400  0.46246600  0.93705500  1
  H  1154  1  0.19848370  0.11421010  0.83642300  1
  H  1155  1  0.27395600  0.40830500  0.87807400  1
  H  1156  1  0.26120800  0.18573610  0.89434000  1
  H  1167  1  0.20967800  0.37107900  0.41191700  1
  H  1176  1  0.29631900  0.33076300  0.35885500  1
  H  1177  1  0.41871100  0.29418200  0.44013500  1
  H  1178  1  0.06413970  0.33682200  0.33678200  1
  H  1179  1  0.36061800  0.28431800  0.37980400  1
  H  1180  1  0.14048070  0.30544700  0.39570400  1
  H  1191  1  0.20458600  0.28871200  0.21640400  1
  H  1195  1  0.40775500  0.36439900  0.22173200  1
  H  1200  1  0.17646170  0.27162200  0.30038600  1
  H  1202  1  0.38004300  0.34671500  0.30538100  1
  H  1205  1  0.34938400  0.35690400  0.19288900  1
  H  1206  1  0.31625400  0.29566000  0.33052000  1
  H  1213  1  0.26440900  0.25116700  0.71616900  1
  H  1217  1  0.19137170  0.45565500  0.72055500  1
  H  1222  1  0.26837600  0.22449600  0.80023800  1
  H  1224  1  0.19526570  0.42911400  0.80436700  1
  H  1227  1  0.20120000  0.39755900  0.69214800  1
  H  1228  1  0.24213400  0.36555200  0.82997100  1
  H  1235  1  0.33219000  0.27436600  0.96525800  1
  H  1239  1  0.11729870  0.27721200  0.97418800  1
  H  1244  1  0.38674500  0.27949200  0.04859220  1
  H  1246  1  0.17152470  0.28458400  0.05697620  1
  H  1249  1  0.17837570  0.25130600  0.94336500  1
  H  1250  1  0.32815800  0.26151600  0.07904120  1
  H  1257  1  0.26768100  0.48872500  0.46834900  1
  H  1261  1  0.20410400  0.28033600  0.46772400  1
  H  1266  1  0.28699800  0.47524700  0.55289200  1
  H  1268  1  0.22512000  0.26639800  0.55110800  1
  H  1271  1  0.18960970  0.36548000  0.44215200  1
  H  1272  1  0.29183400  0.39625100  0.57945700  1
  H  1279  1  0.20422300  0.63436600  0.10928300  1
  H  1283  1  0.20583500  0.63519100  0.16380900  1
  H  1288  1  0.23196600  0.96999600  0.10944700  1
  H  1290  1  0.23865600  0.96727200  0.16394200  1
  H  1293  1  0.21410200  0.52557000  0.14870700  1
  H  1294  1  0.24936000  0.07725310  0.12465000  1
  H  1301  1  0.92125400  0.25585400  0.60829000  1
  H  1305  1  0.91972400  0.24838000  0.66277400  1
  H  1310  1  0.58593800  0.28482300  0.60829100  1
  H  1312  1  0.58731900  0.28341600  0.66280200  1
  H  1315  1  0.02989170  0.25937800  0.64780900  1
  H  1316  1  0.47819800  0.30071800  0.62347800  1
  H  1323  1  0.30011100  0.62940700  0.91432700  1
  H  1327  1  0.31320100  0.62975200  0.85989400  1
  H  1332  1  0.27637200  0.96531400  0.91353200  1
  H  1334  1  0.28524100  0.96215200  0.85905700  1
  H  1337  1  0.29990000  0.52046100  0.87486200  1
  H  1338  1  0.26358500  0.07232410  0.89802400  1
  H  1345  1  0.58296700  0.28123300  0.41661700  1
  H  1349  1  0.58299200  0.23508900  0.36333200  1
  H  1354  1  0.91931800  0.29520000  0.41538800  1
  H  1356  1  0.91619200  0.25623800  0.36176000  1
  H  1359  1  0.47388200  0.25949600  0.37753300  1
  H  1360  1  0.02655870  0.29911400  0.39960400  1
  N  21  1  0.04563800  0.95928800  0.17754700  1
  N  22  1  0.00290500  0.78082100  0.13792400  1
  N  23  1  0.96198200  0.20336700  0.10959100  1
  N  24  1  0.00260700  0.02816000  0.06890700  1
  N  45  1  0.02970100  0.03730400  0.67696200  1
  N  46  1  0.20762200  0.99912100  0.63680600  1
  N  47  1  0.78480800  0.96262400  0.60882500  1
  N  48  1  0.95298400  0.02582600  0.56833800  1
  N  69  1  0.97311800  0.95550000  0.81865100  1
  N  70  1  0.00325200  0.77606600  0.85885900  1
  N  71  1  0.03043700  0.19834600  0.88810000  1
  N  72  1  0.98460400  0.02190700  0.92801000  1
  N  93  1  0.95821200  0.00226300  0.31913200  1
  N  94  1  0.78138200  0.98065200  0.36054100  1
  N  95  1  0.20389300  0.98169400  0.38975900  1
  N  96  1  0.03165900  0.06929000  0.42644900  1
  N  99  1  0.09750300  0.03595900  0.23125400  1
  N  108  1  0.08550500  0.02754800  0.26791400  1
  N  110  1  0.91855000  0.96694800  0.25363300  1
  N  111  1  0.92414900  0.97045000  0.23685500  1
  N  121  1  0.94945500  0.09425200  0.73029700  1
  N  130  1  0.95127100  0.08259500  0.76704400  1
  N  132  1  0.01183800  0.91463000  0.75351300  1
  N  133  1  0.01123100  0.92001500  0.73670900  1
  N  143  1  0.92175900  0.96449000  0.98273200  1
  N  152  1  0.94560500  0.96815800  0.01897700  1
  N  154  1  0.11915500  0.96309000  0.00187100  1
  N  155  1  0.10822000  0.96203100  0.98523400  1
  N  165  1  0.96670600  0.01306900  0.47859400  1
  N  174  1  0.97658500  0.00686200  0.51505900  1
  N  176  1  0.02636100  0.18318100  0.50623600  1
  N  177  1  0.02214900  0.18598900  0.48940600  1
  N  187  1  0.95068900  0.42016100  0.13904500  1
  N  196  1  0.96632400  0.56553200  0.13910300  1
  N  198  1  0.95782000  0.52710700  0.09347700  1
  N  199  1  0.95175800  0.45994900  0.09344600  1
  N  209  1  0.56828000  0.94389500  0.63795900  1
  N  218  1  0.42268200  0.96064300  0.63798000  1
  N  220  1  0.46215200  0.95882400  0.59237300  1
  N  221  1  0.52927300  0.95246800  0.59237000  1
  N  231  1  0.05135500  0.41484700  0.85880200  1
  N  240  1  0.03793700  0.56035800  0.85841300  1
  N  242  1  0.03308500  0.52229800  0.90409600  1
  N  243  1  0.03831200  0.45507500  0.90426200  1
  N  253  1  0.41969300  0.93478800  0.36204600  1
  N  262  1  0.56572600  0.94494300  0.36129900  1
  N  264  1  0.52758400  0.97659500  0.40629100  1
  N  265  1  0.46023100  0.97346800  0.40655800  1
  N  1109  1  0.30318200  0.26834000  0.19042400  1
  N  1110  1  0.26044900  0.08987310  0.15080100  1
  N  1111  1  0.21952600  0.51241900  0.12246800  1
  N  1112  1  0.26015100  0.33721200  0.08178420  1
  N  1133  1  0.28724500  0.34635600  0.68983900  1
  N  1134  1  0.46516600  0.30817300  0.64968300  1
  N  1135  1  0.04235170  0.27167600  0.62170200  1
  N  1136  1  0.21052800  0.33487800  0.58121500  1
  N  1157  1  0.23066200  0.26455200  0.83152800  1
  N  1158  1  0.26079600  0.08511810  0.87173600  1
  N  1159  1  0.28798100  0.50739800  0.90097700  1
  N  1160  1  0.24214800  0.33095900  0.94088700  1
  N  1181  1  0.21575600  0.31131500  0.33200900  1
  N  1182  1  0.03892570  0.28970400  0.37341800  1
  N  1183  1  0.46143700  0.29074600  0.40263600  1
  N  1184  1  0.28920300  0.37834200  0.43932600  1
  N  1187  1  0.35504700  0.34501100  0.24413100  1
  N  1196  1  0.34304900  0.33660000  0.28079100  1
  N  1198  1  0.17609370  0.27600000  0.26651000  1
  N  1199  1  0.18169270  0.27950200  0.24973200  1
  N  1209  1  0.20699900  0.40330400  0.74317400  1
  N  1218  1  0.20881500  0.39164700  0.77992100  1
  N  1220  1  0.26938200  0.22368200  0.76639000  1
  N  1221  1  0.26877500  0.22906700  0.74958600  1
  N  1231  1  0.17930270  0.27354200  0.99560900  1
  N  1240  1  0.20314900  0.27721000  0.03185420  1
  N  1242  1  0.37669900  0.27214200  0.01474820  1
  N  1243  1  0.36576400  0.27108300  0.99811100  1
  N  1253  1  0.22425000  0.32212100  0.49147100  1
  N  1262  1  0.23412900  0.31591400  0.52793600  1
  N  1264  1  0.28390500  0.49223300  0.51911300  1
  N  1265  1  0.27969300  0.49504100  0.50228300  1
  N  1275  1  0.20823300  0.72921300  0.15192200  1
  N  1284  1  0.22386800  0.87458400  0.15198000  1
  N  1286  1  0.21536400  0.83615900  0.10635400  1
  N  1287  1  0.20930200  0.76900100  0.10632300  1
  N  1297  1  0.82582400  0.25294700  0.65083600  1
  N  1306  1  0.68022600  0.26969500  0.65085700  1
  N  1308  1  0.71969600  0.26787600  0.60525000  1
  N  1309  1  0.78681700  0.26152000  0.60524700  1
  N  1319  1  0.30889900  0.72389900  0.87167900  1
  N  1328  1  0.29548100  0.86941000  0.87129000  1
  N  1330  1  0.29062900  0.83135000  0.91697300  1
  N  1331  1  0.29585600  0.76412700  0.91713900  1
  N  1341  1  0.67723700  0.24384000  0.37492300  1
  N  1350  1  0.82327000  0.25399500  0.37417600  1
  N  1352  1  0.78512800  0.28564700  0.41916800  1
  N  1353  1  0.71777500  0.28252000  0.41943500  1
  O  8  1  0.97035000  0.16077400  0.07634100  1
  O  15  1  0.02996900  0.82390800  0.17055800  1
  O  32  1  0.82367600  0.98484200  0.57578800  1
  O  39  1  0.16507600  0.02116900  0.66969400  1
  O  56  1  0.01497500  0.15525300  0.92115700  1
  O  63  1  0.98854000  0.82000600  0.82577700  1
  O  80  1  0.16339100  0.02922100  0.42104300  1
  O  87  1  0.82379000  0.98188000  0.32711300  1
  O  1096  1  0.22789400  0.46982600  0.08921820  1
  O  1103  1  0.28751300  0.13296010  0.18343500  1
  O  1120  1  0.08121970  0.29389400  0.58866500  1
  O  1127  1  0.42262000  0.33022100  0.68257100  1
  O  1144  1  0.27251900  0.46430500  0.93403400  1
  O  1151  1  0.24608400  0.12905810  0.83865400  1
  O  1168  1  0.42093500  0.33827300  0.43392000  1
  O  1175  1  0.08133370  0.29093200  0.33999000  1
