# generated using pymatgen
data_Zn4H24C44O13
_symmetry_space_group_name_H-M   'P 1'
_cell_length_a   17.62131000
_cell_length_b   41.90753000
_cell_length_c   41.92804000
_cell_angle_alpha   60.15495000
_cell_angle_beta   89.87968000
_cell_angle_gamma   89.97679000
_symmetry_Int_Tables_number   1
_chemical_formula_structural   Zn4H24C44O13
_chemical_formula_sum   'Zn24 H144 C264 O78'
_cell_volume   26855.93987327
_cell_formula_units_Z   6
loop_
 _symmetry_equiv_pos_site_id
 _symmetry_equiv_pos_as_xyz
  1  'x, y, z'
loop_
 _atom_site_type_symbol
 _atom_site_label
 _atom_site_symmetry_multiplicity
 _atom_site_fract_x
 _atom_site_fract_y
 _atom_site_fract_z
 _atom_site_occupancy
  Zn  Zn1  1  0.75334000  0.51998000  0.41120000  1.0
  Zn  Zn2  1  0.25097000  0.47840000  0.59352000  1.0
  Zn  Zn3  1  0.74933000  0.07024000  0.52157000  1.0
  Zn  Zn4  1  0.24887000  0.93111000  0.47682000  1.0
  Zn  Zn5  1  0.74701000  0.40962000  0.07038000  1.0
  Zn  Zn6  1  0.24934000  0.59350000  0.92958000  1.0
  Zn  Zn7  1  0.66124000  0.59680000  0.37440000  1.0
  Zn  Zn8  1  0.33888000  0.40147000  0.63034000  1.0
  Zn  Zn9  1  0.65831000  0.03040000  0.59850000  1.0
  Zn  Zn10  1  0.34298000  0.97116000  0.39996000  1.0
  Zn  Zn11  1  0.65711000  0.37262000  0.03061000  1.0
  Zn  Zn12  1  0.33797000  0.63021000  0.96965000  1.0
  Zn  Zn13  1  0.15794000  0.40135000  0.63044000  1.0
  Zn  Zn14  1  0.84263000  0.59692000  0.37425000  1.0
  Zn  Zn15  1  0.16088000  0.97102000  0.40009000  1.0
  Zn  Zn16  1  0.83950000  0.02889000  0.59835000  1.0
  Zn  Zn17  1  0.15613000  0.62904000  0.97102000  1.0
  Zn  Zn18  1  0.83871000  0.37256000  0.03042000  1.0
  Zn  Zn19  1  0.75293000  0.57152000  0.32430000  1.0
  Zn  Zn20  1  0.24647000  0.42719000  0.68027000  1.0
  Zn  Zn21  1  0.75438000  0.10560000  0.57277000  1.0
  Zn  Zn22  1  0.25101000  0.89549000  0.42575000  1.0
  Zn  Zn23  1  0.74992000  0.32166000  0.10561000  1.0
  Zn  Zn24  1  0.24202000  0.67993000  0.89457000  1.0
  H  H1  1  0.49436000  0.56399000  0.45459000  1.0
  H  H2  1  0.47717000  0.98799000  0.56404000  1.0
  H  H3  1  0.51627000  0.01506000  0.43534000  1.0
  H  H4  1  0.48593000  0.45296000  0.98264000  1.0
  H  H5  1  0.50962000  0.54975000  0.01777000  1.0
  H  H6  1  0.99308000  0.43392000  0.54913000  1.0
  H  H7  1  0.00936000  0.56700000  0.45581000  1.0
  H  H8  1  0.98736000  0.01822000  0.43253000  1.0
  H  H9  1  0.99770000  0.97558000  0.56643000  1.0
  H  H10  1  0.98307000  0.55197000  0.01284000  1.0
  H  H11  1  0.01629000  0.44881000  0.98754000  1.0
  H  H12  1  0.60564000  0.45933000  0.49922000  1.0
  H  H13  1  0.39888000  0.53657000  0.50605000  1.0
  H  H14  1  0.60898000  0.03826000  0.46460000  1.0
  H  H15  1  0.38464000  0.96474000  0.53480000  1.0
  H  H16  1  0.60256000  0.49745000  0.04160000  1.0
  H  H17  1  0.39289000  0.50526000  0.95887000  1.0
  H  H18  1  0.10404000  0.53831000  0.50736000  1.0
  H  H19  1  0.89842000  0.46243000  0.49749000  1.0
  H  H20  1  0.09202000  0.95217000  0.53784000  1.0
  H  H21  1  0.89307000  0.04162000  0.46108000  1.0
  H  H22  1  0.11058000  0.50069000  0.96319000  1.0
  H  H23  1  0.88832000  0.50035000  0.03677000  1.0
  H  H24  1  0.57855000  0.58573000  0.25228000  1.0
  H  H25  1  0.42357000  0.41378000  0.75093000  1.0
  H  H26  1  0.57375000  0.16548000  0.57946000  1.0
  H  H27  1  0.43305000  0.83597000  0.41637000  1.0
  H  H28  1  0.56522000  0.25494000  0.16458000  1.0
  H  H29  1  0.42002000  0.74990000  0.83493000  1.0
  H  H30  1  0.06155000  0.42002000  0.74498000  1.0
  H  H31  1  0.92853000  0.58505000  0.25294000  1.0
  H  H32  1  0.07376000  0.83773000  0.41584000  1.0
  H  H33  1  0.92779000  0.16006000  0.58894000  1.0
  H  H34  1  0.06684000  0.74753000  0.83845000  1.0
  H  H35  1  0.92712000  0.25239000  0.16177000  1.0
  H  H36  1  0.45983000  0.59063000  0.21826000  1.0
  H  H37  1  0.54413000  0.40822000  0.78395000  1.0
  H  H38  1  0.45315000  0.19411000  0.58344000  1.0
  H  H39  1  0.55284000  0.80881000  0.40928000  1.0
  H  H40  1  0.44512000  0.22082000  0.19137000  1.0
  H  H41  1  0.54066000  0.78300000  0.80692000  1.0
  H  H42  1  0.94192000  0.41252000  0.77967000  1.0
  H  H43  1  0.04734000  0.59041000  0.21857000  1.0
  H  H44  1  0.95402000  0.80903000  0.41131000  1.0
  H  H45  1  0.04575000  0.18944000  0.59418000  1.0
  H  H46  1  0.94824000  0.78098000  0.80882000  1.0
  H  H47  1  0.04749000  0.21926000  0.18930000  1.0
  H  H48  1  0.34897000  0.64129000  0.27350000  1.0
  H  H49  1  0.64282000  0.34793000  0.73571000  1.0
  H  H50  1  0.35566000  0.08633000  0.64924000  1.0
  H  H51  1  0.65111000  0.91721000  0.34946000  1.0
  H  H52  1  0.35151000  0.26614000  0.08260000  1.0
  H  H53  1  0.64107000  0.73440000  0.91466000  1.0
  H  H54  1  0.84908000  0.34695000  0.73622000  1.0
  H  H55  1  0.15829000  0.63980000  0.27491000  1.0
  H  H56  1  0.85450000  0.91662000  0.34796000  1.0
  H  H57  1  0.15945000  0.08459000  0.64154000  1.0
  H  H58  1  0.83671000  0.72781000  0.91446000  1.0
  H  H59  1  0.14448000  0.26443000  0.08099000  1.0
  H  H60  1  0.46631000  0.63384000  0.30908000  1.0
  H  H61  1  0.52396000  0.35626000  0.70066000  1.0
  H  H62  1  0.47481000  0.05814000  0.64296000  1.0
  H  H63  1  0.53262000  0.94361000  0.35893000  1.0
  H  H64  1  0.46989000  0.30232000  0.05637000  1.0
  H  H65  1  0.52157000  0.69977000  0.94194000  1.0
  H  H66  1  0.96702000  0.35691000  0.69962000  1.0
  H  H67  1  0.04060000  0.63175000  0.31090000  1.0
  H  H68  1  0.97281000  0.94471000  0.35510000  1.0
  H  H69  1  0.04297000  0.05652000  0.63307000  1.0
  H  H70  1  0.95396000  0.69234000  0.94297000  1.0
  H  H71  1  0.02585000  0.29966000  0.05403000  1.0
  H  H72  1  0.25406000  0.60950000  0.27060000  1.0
  H  H73  1  0.74450000  0.38054000  0.73580000  1.0
  H  H74  1  0.25486000  0.11860000  0.61355000  1.0
  H  H75  1  0.75314000  0.88418000  0.38121000  1.0
  H  H76  1  0.24697000  0.26584000  0.11468000  1.0
  H  H77  1  0.73983000  0.73312000  0.88123000  1.0
  H  H78  1  0.37512000  0.62644000  0.17464000  1.0
  H  H79  1  0.62369000  0.37336000  0.82813000  1.0
  H  H80  1  0.37376000  0.20418000  0.61998000  1.0
  H  H81  1  0.63130000  0.80130000  0.37059000  1.0
  H  H82  1  0.36943000  0.17526000  0.20010000  1.0
  H  H83  1  0.62274000  0.82834000  0.79913000  1.0
  H  H84  1  0.86797000  0.37074000  0.82833000  1.0
  H  H85  1  0.13056000  0.62407000  0.17648000  1.0
  H  H86  1  0.87521000  0.79798000  0.37658000  1.0
  H  H87  1  0.12965000  0.19898000  0.62705000  1.0
  H  H88  1  0.86656000  0.82360000  0.79742000  1.0
  H  H89  1  0.12546000  0.17184000  0.19669000  1.0
  H  H90  1  0.13001000  0.63592000  0.12579000  1.0
  H  H91  1  0.86130000  0.39160000  0.86307000  1.0
  H  H92  1  0.12963000  0.25114000  0.61519000  1.0
  H  H93  1  0.86737000  0.76589000  0.35171000  1.0
  H  H94  1  0.13150000  0.13642000  0.25245000  1.0
  H  H95  1  0.86093000  0.88064000  0.76617000  1.0
  H  H96  1  0.63108000  0.35129000  0.88371000  1.0
  H  H97  1  0.37276000  0.61985000  0.13147000  1.0
  H  H98  1  0.63873000  0.74451000  0.39435000  1.0
  H  H99  1  0.37126000  0.24162000  0.63468000  1.0
  H  H100  1  0.63205000  0.86185000  0.74296000  1.0
  H  H101  1  0.36528000  0.12012000  0.23317000  1.0
  H  H102  1  0.12800000  0.63574000  0.06727000  1.0
  H  H103  1  0.86206000  0.39043000  0.92258000  1.0
  H  H104  1  0.12916000  0.30828000  0.61836000  1.0
  H  H105  1  0.86820000  0.70594000  0.35358000  1.0
  H  H106  1  0.13323000  0.07675000  0.31040000  1.0
  H  H107  1  0.86370000  0.93945000  0.70715000  1.0
  H  H108  1  0.63043000  0.35386000  0.94131000  1.0
  H  H109  1  0.36949000  0.62185000  0.07188000  1.0
  H  H110  1  0.63804000  0.68664000  0.39216000  1.0
  H  H111  1  0.36987000  0.30004000  0.63523000  1.0
  H  H112  1  0.63355000  0.92245000  0.68593000  1.0
  H  H113  1  0.36750000  0.06223000  0.29275000  1.0
  H  H114  1  0.24668000  0.51042000  0.70629000  1.0
  H  H115  1  0.77878000  0.21476000  0.48939000  1.0
  H  H116  1  0.22178000  0.78658000  0.50961000  1.0
  H  H117  1  0.80947000  0.30188000  0.21160000  1.0
  H  H118  1  0.19999000  0.70260000  0.78742000  1.0
  H  H119  1  0.69913000  0.48746000  0.30186000  1.0
  H  H120  1  0.24301000  0.56427000  0.71486000  1.0
  H  H121  1  0.77843000  0.27721000  0.43515000  1.0
  H  H122  1  0.22088000  0.72438000  0.56369000  1.0
  H  H123  1  0.81367000  0.29357000  0.27446000  1.0
  H  H124  1  0.19737000  0.71108000  0.72458000  1.0
  H  H125  1  0.69426000  0.43322000  0.29275000  1.0
  H  H126  1  0.79916000  0.36726000  0.39873000  1.0
  H  H127  1  0.25105000  0.63540000  0.59700000  1.0
  H  H128  1  0.27019000  0.77085000  0.63309000  1.0
  H  H129  1  0.70959000  0.23180000  0.36723000  1.0
  H  H130  1  0.30260000  0.60490000  0.76546000  1.0
  H  H131  1  0.69538000  0.39647000  0.23517000  1.0
  H  H132  1  0.79561000  0.42087000  0.40881000  1.0
  H  H133  1  0.25460000  0.58096000  0.58937000  1.0
  H  H134  1  0.26650000  0.83287000  0.57871000  1.0
  H  H135  1  0.71660000  0.16928000  0.42138000  1.0
  H  H136  1  0.29819000  0.59550000  0.82866000  1.0
  H  H137  1  0.69876000  0.40596000  0.17182000  1.0
  H  H138  1  0.76064000  0.39658000  0.28005000  1.0
  H  H139  1  0.24424000  0.60608000  0.72117000  1.0
  H  H140  1  0.73311000  0.32468000  0.39614000  1.0
  H  H141  1  0.75029000  0.27980000  0.32387000  1.0
  H  H142  1  0.25133000  0.72270000  0.67567000  1.0
  H  H143  1  0.24958000  0.67705000  0.60404000  1.0
  H  H144  1  0.51060000  0.43207000  0.55085000  1.0
  C  C1  1  0.61271000  0.52978000  0.44351000  1.0
  C  C2  1  0.39254000  0.46644000  0.56204000  1.0
  C  C3  1  0.60422000  0.02884000  0.53275000  1.0
  C  C4  1  0.38950000  0.97494000  0.46592000  1.0
  C  C5  1  0.60587000  0.44142000  0.02736000  1.0
  C  C6  1  0.39001000  0.56145000  0.97295000  1.0
  C  C7  1  0.10981000  0.46769000  0.56171000  1.0
  C  C8  1  0.89328000  0.53271000  0.44282000  1.0
  C  C9  1  0.10238000  0.97037000  0.46654000  1.0
  C  C10  1  0.88456000  0.02449000  0.53217000  1.0
  C  C11  1  0.10825000  0.56040000  0.97254000  1.0
  C  C12  1  0.89044000  0.44077000  0.02798000  1.0
  C  C13  1  0.55561000  0.51331000  0.47398000  1.0
  C  C14  1  0.44943000  0.48274000  0.53143000  1.0
  C  C15  1  0.54820000  0.01475000  0.51587000  1.0
  C  C16  1  0.44491000  0.98872000  0.48333000  1.0
  C  C17  1  0.54967000  0.47222000  0.01346000  1.0
  C  C18  1  0.44580000  0.53047000  0.98705000  1.0
  C  C19  1  0.05366000  0.48458000  0.53108000  1.0
  C  C20  1  0.94888000  0.51621000  0.47368000  1.0
  C  C21  1  0.04517000  0.98386000  0.48356000  1.0
  C  C22  1  0.94007000  0.01001000  0.51539000  1.0
  C  C23  1  0.05226000  0.52939000  0.98661000  1.0
  C  C24  1  0.94689000  0.47157000  0.01357000  1.0
  C  C25  1  0.49725000  0.53519000  0.47579000  1.0
  C  C26  1  0.50772000  0.46085000  0.52961000  1.0
  C  C27  1  0.48509000  0.99388000  0.53590000  1.0
  C  C28  1  0.50822000  0.00943000  0.46339000  1.0
  C  C29  1  0.49048000  0.47425000  0.99016000  1.0
  C  C30  1  0.50496000  0.52842000  0.01035000  1.0
  C  C31  1  0.99586000  0.46293000  0.52855000  1.0
  C  C32  1  0.00646000  0.53794000  0.47629000  1.0
  C  C33  1  0.98900000  0.00906000  0.46176000  1.0
  C  C34  1  0.99598000  0.98467000  0.53721000  1.0
  C  C35  1  0.98964000  0.52931000  0.00744000  1.0
  C  C36  1  0.00954000  0.47158000  0.99278000  1.0
  C  C37  1  0.56039000  0.47599000  0.50103000  1.0
  C  C38  1  0.44444000  0.52001000  0.50429000  1.0
  C  C39  1  0.55949000  0.02233000  0.47957000  1.0
  C  C40  1  0.43377000  0.98095000  0.51971000  1.0
  C  C41  1  0.55650000  0.49945000  0.02351000  1.0
  C  C42  1  0.43889000  0.50321000  0.97703000  1.0
  C  C43  1  0.05876000  0.52212000  0.50484000  1.0
  C  C44  1  0.94368000  0.47867000  0.49997000  1.0
  C  C45  1  0.04821000  0.97169000  0.52139000  1.0
  C  C46  1  0.93679000  0.02205000  0.47758000  1.0
  C  C47  1  0.06183000  0.50035000  0.97930000  1.0
  C  C48  1  0.93721000  0.50067000  0.02076000  1.0
  C  C49  1  0.59922000  0.60375000  0.30549000  1.0
  C  C50  1  0.39730000  0.39225000  0.70067000  1.0
  C  C51  1  0.60196000  0.09354000  0.60534000  1.0
  C  C52  1  0.40603000  0.90780000  0.39486000  1.0
  C  C53  1  0.59417000  0.30389000  0.09282000  1.0
  C  C54  1  0.39403000  0.70018000  0.90640000  1.0
  C  C55  1  0.09141000  0.39572000  0.69760000  1.0
  C  C56  1  0.90816000  0.60159000  0.30687000  1.0
  C  C57  1  0.10054000  0.90974000  0.39129000  1.0
  C  C58  1  0.90836000  0.08983000  0.60472000  1.0
  C  C59  1  0.08795000  0.69627000  0.90962000  1.0
  C  C60  1  0.89902000  0.30110000  0.09041000  1.0
  C  C61  1  0.52974000  0.60920000  0.28305000  1.0
  C  C62  1  0.46656000  0.38566000  0.72346000  1.0
  C  C63  1  0.53168000  0.11012000  0.61072000  1.0
  C  C64  1  0.47550000  0.89156000  0.38822000  1.0
  C  C65  1  0.52471000  0.28103000  0.10881000  1.0
  C  C66  1  0.46380000  0.72252000  0.89008000  1.0
  C  C67  1  0.02137000  0.38916000  0.72000000  1.0
  C  C68  1  0.97755000  0.60771000  0.28422000  1.0
  C  C69  1  0.03062000  0.89299000  0.38591000  1.0
  C  C70  1  0.97800000  0.10650000  0.61054000  1.0
  C  C71  1  0.01774000  0.71781000  0.89252000  1.0
  C  C72  1  0.96888000  0.27839000  0.10617000  1.0
  C  C73  1  0.52780000  0.59778000  0.25673000  1.0
  C  C74  1  0.47197000  0.39946000  0.74779000  1.0
  C  C75  1  0.52554000  0.14846000  0.59466000  1.0
  C  C76  1  0.48101000  0.85354000  0.40168000  1.0
  C  C77  1  0.51801000  0.25729000  0.14689000  1.0
  C  C78  1  0.46889000  0.74676000  0.85204000  1.0
  C  C79  1  0.01454000  0.40414000  0.74328000  1.0
  C  C80  1  0.97939000  0.59689000  0.25750000  1.0
  C  C81  1  0.02534000  0.85471000  0.40104000  1.0
  C  C82  1  0.97903000  0.14389000  0.60036000  1.0
  C  C83  1  0.01590000  0.74338000  0.85473000  1.0
  C  C84  1  0.97502000  0.25483000  0.14431000  1.0
  C  C85  1  0.46124000  0.60096000  0.23746000  1.0
  C  C86  1  0.53945000  0.39592000  0.76651000  1.0
  C  C87  1  0.45808000  0.16431000  0.59726000  1.0
  C  C88  1  0.54809000  0.83849000  0.39732000  1.0
  C  C89  1  0.45083000  0.23798000  0.16171000  1.0
  C  C90  1  0.53631000  0.76544000  0.83659000  1.0
  C  C91  1  0.94779000  0.39946000  0.76296000  1.0
  C  C92  1  0.04598000  0.60033000  0.23810000  1.0
  C  C93  1  0.95823000  0.83883000  0.39813000  1.0
  C  C94  1  0.04521000  0.16007000  0.60379000  1.0
  C  C95  1  0.94935000  0.76234000  0.83838000  1.0
  C  C96  1  0.04236000  0.23598000  0.15957000  1.0
  C  C97  1  0.39505000  0.61612000  0.24346000  1.0
  C  C98  1  0.60279000  0.37797000  0.76206000  1.0
  C  C99  1  0.39521000  0.14229000  0.61635000  1.0
  C  C100  1  0.61116000  0.86090000  0.37899000  1.0
  C  C101  1  0.38906000  0.24132000  0.13899000  1.0
  C  C102  1  0.60007000  0.76076000  0.85870000  1.0
  C  C103  1  0.88655000  0.37924000  0.76042000  1.0
  C  C104  1  0.11210000  0.61520000  0.24444000  1.0
  C  C105  1  0.89494000  0.86069000  0.37953000  1.0
  C  C106  1  0.11202000  0.13933000  0.61819000  1.0
  C  C107  1  0.88315000  0.75696000  0.85934000  1.0
  C  C108  1  0.10514000  0.23944000  0.13721000  1.0
  C  C109  1  0.39854000  0.62844000  0.26918000  1.0
  C  C110  1  0.59561000  0.36302000  0.73863000  1.0
  C  C111  1  0.40279000  0.10380000  0.63331000  1.0
  C  C112  1  0.60408000  0.89914000  0.36464000  1.0
  C  C113  1  0.39747000  0.26425000  0.10073000  1.0
  C  C114  1  0.59335000  0.73737000  0.89698000  1.0
  C  C115  1  0.89487000  0.36356000  0.73769000  1.0
  C  C116  1  0.10865000  0.62711000  0.27047000  1.0
  C  C117  1  0.90178000  0.89914000  0.36351000  1.0
  C  C118  1  0.10946000  0.10156000  0.62935000  1.0
  C  C119  1  0.88629000  0.73177000  0.89740000  1.0
  C  C120  1  0.09753000  0.26222000  0.09888000  1.0
  C  C121  1  0.46440000  0.62473000  0.28893000  1.0
  C  C122  1  0.52889000  0.36716000  0.71929000  1.0
  C  C123  1  0.46970000  0.08784000  0.63030000  1.0
  C  C124  1  0.53762000  0.91419000  0.36946000  1.0
  C  C125  1  0.46389000  0.28416000  0.08586000  1.0
  C  C126  1  0.52645000  0.71825000  0.91247000  1.0
  C  C127  1  0.96097000  0.36871000  0.71745000  1.0
  C  C128  1  0.04270000  0.62309000  0.29040000  1.0
  C  C129  1  0.96820000  0.91508000  0.36699000  1.0
  C  C130  1  0.04399000  0.08547000  0.62514000  1.0
  C  C131  1  0.95215000  0.71212000  0.91371000  1.0
  C  C132  1  0.03085000  0.28172000  0.08359000  1.0
  C  C133  1  0.32289000  0.61848000  0.22433000  1.0
  C  C134  1  0.67560000  0.37564000  0.78065000  1.0
  C  C135  1  0.32233000  0.15876000  0.61835000  1.0
  C  C136  1  0.68368000  0.84451000  0.37627000  1.0
  C  C137  1  0.31661000  0.22193000  0.15483000  1.0
  C  C138  1  0.67308000  0.77888000  0.84213000  1.0
  C  C139  1  0.81442000  0.37584000  0.78006000  1.0
  C  C140  1  0.18408000  0.61790000  0.22500000  1.0
  C  C141  1  0.82260000  0.84394000  0.37730000  1.0
  C  C142  1  0.18361000  0.15682000  0.62019000  1.0
  C  C143  1  0.81188000  0.77676000  0.84217000  1.0
  C  C144  1  0.17783000  0.22075000  0.15378000  1.0
  C  C145  1  0.25368000  0.61535000  0.24227000  1.0
  C  C146  1  0.74478000  0.37687000  0.76337000  1.0
  C  C147  1  0.25362000  0.14224000  0.61766000  1.0
  C  C148  1  0.75311000  0.86011000  0.37779000  1.0
  C  C149  1  0.24716000  0.23828000  0.13848000  1.0
  C  C150  1  0.74157000  0.76076000  0.85763000  1.0
  C  C151  1  0.32145000  0.62322000  0.18873000  1.0
  C  C152  1  0.67719000  0.37370000  0.81503000  1.0
  C  C153  1  0.32021000  0.19119000  0.62030000  1.0
  C  C154  1  0.68480000  0.81239000  0.37365000  1.0
  C  C155  1  0.31569000  0.18760000  0.18718000  1.0
  C  C156  1  0.67561000  0.81366000  0.81038000  1.0
  C  C157  1  0.81401000  0.37308000  0.81482000  1.0
  C  C158  1  0.18469000  0.62231000  0.18958000  1.0
  C  C159  1  0.82162000  0.81113000  0.37598000  1.0
  C  C160  1  0.18363000  0.18861000  0.62347000  1.0
  C  C161  1  0.81243000  0.81130000  0.80998000  1.0
  C  C162  1  0.17902000  0.18603000  0.18575000  1.0
  C  C163  1  0.25276000  0.62450000  0.17100000  1.0
  C  C164  1  0.74583000  0.37248000  0.83261000  1.0
  C  C165  1  0.25132000  0.20676000  0.62285000  1.0
  C  C166  1  0.75322000  0.79490000  0.37409000  1.0
  C  C167  1  0.24748000  0.16913000  0.20320000  1.0
  C  C168  1  0.74489000  0.83016000  0.79357000  1.0
  C  C169  1  0.25156000  0.62727000  0.13422000  1.0
  C  C170  1  0.74616000  0.37152000  0.86846000  1.0
  C  C171  1  0.25048000  0.24128000  0.62472000  1.0
  C  C172  1  0.75309000  0.76000000  0.37312000  1.0
  C  C173  1  0.24818000  0.13321000  0.23790000  1.0
  C  C174  1  0.74634000  0.86637000  0.75928000  1.0
  C  C175  1  0.18314000  0.63221000  0.11485000  1.0
  C  C176  1  0.81094000  0.38237000  0.88036000  1.0
  C  C177  1  0.18274000  0.26105000  0.62022000  1.0
  C  C178  1  0.81742000  0.74838000  0.36159000  1.0
  C  C179  1  0.18310000  0.12004000  0.26042000  1.0
  C  C180  1  0.81130000  0.88905000  0.74844000  1.0
  C  C181  1  0.68155000  0.36077000  0.89140000  1.0
  C  C182  1  0.31853000  0.62374000  0.11775000  1.0
  C  C183  1  0.68877000  0.73691000  0.38443000  1.0
  C  C184  1  0.31770000  0.25603000  0.63044000  1.0
  C  C185  1  0.68251000  0.87898000  0.73600000  1.0
  C  C186  1  0.31430000  0.11142000  0.25003000  1.0
  C  C187  1  0.18134000  0.63248000  0.08155000  1.0
  C  C188  1  0.81157000  0.38222000  0.91361000  1.0
  C  C189  1  0.18195000  0.29353000  0.62166000  1.0
  C  C190  1  0.81802000  0.71496000  0.36202000  1.0
  C  C191  1  0.18380000  0.08670000  0.29329000  1.0
  C  C192  1  0.81295000  0.92241000  0.71552000  1.0
  C  C193  1  0.68101000  0.36167000  0.92414000  1.0
  C  C194  1  0.31729000  0.62460000  0.08415000  1.0
  C  C195  1  0.68821000  0.70405000  0.38376000  1.0
  C  C196  1  0.31749000  0.28886000  0.63115000  1.0
  C  C197  1  0.68310000  0.91277000  0.70365000  1.0
  C  C198  1  0.31592000  0.07854000  0.28337000  1.0
  C  C199  1  0.24846000  0.62861000  0.06576000  1.0
  C  C200  1  0.74629000  0.37219000  0.93574000  1.0
  C  C201  1  0.24952000  0.30799000  0.62696000  1.0
  C  C202  1  0.75315000  0.69256000  0.37281000  1.0
  C  C203  1  0.25058000  0.06575000  0.30536000  1.0
  C  C204  1  0.74857000  0.93474000  0.69286000  1.0
  C  C205  1  0.75329000  0.65703000  0.37274000  1.0
  C  C206  1  0.24956000  0.34295000  0.62819000  1.0
  C  C207  1  0.74948000  0.97038000  0.65756000  1.0
  C  C208  1  0.25207000  0.03067000  0.34118000  1.0
  C  C209  1  0.74641000  0.37279000  0.97099000  1.0
  C  C210  1  0.24685000  0.62880000  0.03012000  1.0
  C  C211  1  0.74950000  0.49012000  0.36084000  1.0
  C  C212  1  0.25300000  0.50926000  0.64264000  1.0
  C  C213  1  0.75251000  0.15044000  0.49156000  1.0
  C  C214  1  0.24603000  0.85123000  0.50769000  1.0
  C  C215  1  0.75361000  0.35946000  0.15004000  1.0
  C  C216  1  0.24698000  0.64332000  0.84983000  1.0
  C  C217  1  0.74769000  0.45739000  0.35582000  1.0
  C  C218  1  0.25135000  0.54218000  0.64731000  1.0
  C  C219  1  0.74857000  0.18801000  0.45879000  1.0
  C  C220  1  0.24475000  0.81373000  0.54064000  1.0
  C  C221  1  0.75426000  0.35449000  0.18781000  1.0
  C  C222  1  0.24863000  0.64842000  0.81204000  1.0
  C  C223  1  0.24781000  0.53801000  0.68259000  1.0
  C  C224  1  0.76443000  0.21886000  0.46240000  1.0
  C  C225  1  0.23202000  0.78274000  0.53686000  1.0
  C  C226  1  0.78551000  0.32255000  0.21713000  1.0
  C  C227  1  0.22159000  0.68126000  0.78228000  1.0
  C  C228  1  0.72008000  0.46083000  0.32290000  1.0
  C  C229  1  0.24584000  0.56869000  0.68708000  1.0
  C  C230  1  0.76308000  0.25394000  0.43180000  1.0
  C  C231  1  0.23230000  0.74770000  0.56757000  1.0
  C  C232  1  0.78670000  0.31788000  0.25239000  1.0
  C  C233  1  0.22126000  0.68602000  0.74701000  1.0
  C  C234  1  0.71857000  0.43049000  0.31781000  1.0
  C  C235  1  0.74686000  0.39615000  0.34491000  1.0
  C  C236  1  0.24756000  0.60472000  0.65669000  1.0
  C  C237  1  0.74412000  0.25971000  0.39666000  1.0
  C  C238  1  0.24652000  0.74212000  0.60309000  1.0
  C  C239  1  0.75454000  0.34434000  0.25976000  1.0
  C  C240  1  0.24967000  0.65861000  0.74010000  1.0
  C  C241  1  0.77507000  0.39317000  0.37773000  1.0
  C  C242  1  0.25026000  0.60833000  0.62142000  1.0
  C  C243  1  0.25865000  0.77362000  0.60637000  1.0
  C  C244  1  0.72638000  0.22852000  0.39364000  1.0
  C  C245  1  0.27816000  0.62609000  0.77009000  1.0
  C  C246  1  0.72255000  0.37609000  0.23013000  1.0
  C  C247  1  0.77432000  0.42318000  0.38342000  1.0
  C  C248  1  0.25224000  0.57775000  0.61672000  1.0
  C  C249  1  0.25725000  0.80879000  0.57583000  1.0
  C  C250  1  0.72940000  0.19322000  0.42405000  1.0
  C  C251  1  0.27677000  0.62079000  0.80561000  1.0
  C  C252  1  0.72330000  0.38139000  0.19460000  1.0
  C  C253  1  0.74714000  0.36421000  0.33892000  1.0
  C  C254  1  0.24742000  0.63737000  0.66180000  1.0
  C  C255  1  0.74478000  0.29735000  0.36426000  1.0
  C  C256  1  0.24808000  0.70455000  0.63568000  1.0
  C  C257  1  0.75256000  0.33883000  0.29752000  1.0
  C  C258  1  0.24901000  0.66377000  0.70249000  1.0
  C  C259  1  0.75318000  0.36903000  0.30338000  1.0
  C  C260  1  0.24707000  0.63333000  0.69712000  1.0
  C  C261  1  0.74166000  0.32833000  0.36885000  1.0
  C  C262  1  0.24824000  0.67327000  0.63157000  1.0
  C  C263  1  0.74944000  0.30325000  0.32826000  1.0
  C  C264  1  0.24939000  0.69914000  0.67152000  1.0
  O  O1  1  0.75205000  0.57131000  0.37117000  1.0
  O  O2  1  0.24834000  0.42708000  0.63360000  1.0
  O  O3  1  0.74985000  0.05861000  0.57302000  1.0
  O  O4  1  0.25190000  0.94254000  0.42536000  1.0
  O  O5  1  0.74806000  0.36920000  0.05934000  1.0
  O  O6  1  0.24631000  0.63323000  0.94144000  1.0
  O  O7  1  0.66314000  0.50804000  0.44305000  1.0
  O  O8  1  0.34083000  0.48799000  0.56169000  1.0
  O  O9  1  0.65901000  0.04805000  0.51216000  1.0
  O  O10  1  0.33358000  0.95610000  0.48593000  1.0
  O  O11  1  0.65877000  0.44187000  0.04793000  1.0
  O  O12  1  0.33667000  0.56059000  0.95282000  1.0
  O  O13  1  0.16275000  0.48870000  0.56136000  1.0
  O  O14  1  0.84441000  0.51078000  0.44164000  1.0
  O  O15  1  0.15250000  0.94789000  0.48798000  1.0
  O  O16  1  0.83690000  0.04831000  0.51025000  1.0
  O  O17  1  0.15908000  0.56152000  0.95018000  1.0
  O  O18  1  0.83691000  0.44162000  0.04817000  1.0
  O  O19  1  0.65956000  0.59376000  0.29584000  1.0
  O  O20  1  0.33783000  0.40369000  0.70956000  1.0
  O  O21  1  0.65855000  0.11517000  0.59031000  1.0
  O  O22  1  0.34788000  0.88677000  0.40783000  1.0
  O  O23  1  0.65227000  0.29584000  0.11381000  1.0
  O  O24  1  0.33718000  0.70726000  0.88489000  1.0
  O  O25  1  0.14822000  0.40963000  0.70541000  1.0
  O  O26  1  0.84808000  0.59142000  0.29718000  1.0
  O  O27  1  0.15943000  0.88923000  0.40292000  1.0
  O  O28  1  0.84751000  0.10898000  0.59673000  1.0
  O  O29  1  0.14839000  0.70711000  0.89005000  1.0
  O  O30  1  0.84011000  0.29159000  0.11110000  1.0
  O  O31  1  0.59252000  0.60925000  0.33284000  1.0
  O  O32  1  0.40360000  0.38627000  0.67367000  1.0
  O  O33  1  0.59991000  0.05917000  0.61578000  1.0
  O  O34  1  0.41070000  0.94131000  0.38737000  1.0
  O  O35  1  0.58956000  0.32997000  0.05946000  1.0
  O  O36  1  0.39677000  0.67550000  0.94043000  1.0
  O  O37  1  0.08890000  0.38711000  0.67229000  1.0
  O  O38  1  0.91469000  0.60658000  0.33444000  1.0
  O  O39  1  0.09598000  0.94314000  0.38420000  1.0
  O  O40  1  0.91502000  0.05794000  0.60790000  1.0
  O  O41  1  0.08205000  0.66874000  0.94222000  1.0
  O  O42  1  0.90387000  0.32855000  0.05773000  1.0
  O  O43  1  0.68885000  0.64153000  0.37609000  1.0
  O  O44  1  0.31436000  0.35643000  0.62883000  1.0
  O  O45  1  0.68555000  0.98259000  0.64155000  1.0
  O  O46  1  0.31717000  0.01609000  0.35357000  1.0
  O  O47  1  0.68163000  0.37106000  0.98569000  1.0
  O  O48  1  0.31096000  0.62703000  0.01669000  1.0
  O  O49  1  0.18481000  0.35665000  0.62858000  1.0
  O  O50  1  0.81784000  0.64492000  0.36937000  1.0
  O  O51  1  0.18792000  0.01807000  0.35673000  1.0
  O  O52  1  0.81431000  0.98575000  0.64608000  1.0
  O  O53  1  0.18153000  0.63063000  0.01589000  1.0
  O  O54  1  0.81105000  0.37507000  0.98360000  1.0
  O  O55  1  0.60662000  0.56419000  0.42059000  1.0
  O  O56  1  0.40018000  0.43236000  0.58595000  1.0
  O  O57  1  0.59279000  0.02055000  0.56621000  1.0
  O  O58  1  0.40265000  0.98319000  0.43264000  1.0
  O  O59  1  0.59657000  0.41729000  0.01748000  1.0
  O  O60  1  0.40001000  0.58607000  0.98215000  1.0
  O  O61  1  0.10009000  0.43376000  0.58557000  1.0
  O  O62  1  0.89947000  0.56720000  0.42014000  1.0
  O  O63  1  0.09662000  0.98244000  0.43197000  1.0
  O  O64  1  0.88926000  0.01204000  0.56683000  1.0
  O  O65  1  0.10026000  0.58323000  0.98417000  1.0
  O  O66  1  0.90042000  0.41611000  0.01886000  1.0
  O  O67  1  0.74427000  0.52144000  0.33162000  1.0
  O  O68  1  0.25187000  0.47793000  0.67202000  1.0
  O  O69  1  0.76433000  0.14842000  0.52259000  1.0
  O  O70  1  0.23747000  0.85333000  0.47644000  1.0
  O  O71  1  0.76632000  0.33092000  0.14726000  1.0
  O  O72  1  0.22961000  0.67150000  0.85251000  1.0
  O  O73  1  0.75622000  0.48427000  0.39374000  1.0
  O  O74  1  0.25525000  0.51504000  0.60961000  1.0
  O  O75  1  0.74411000  0.12316000  0.48610000  1.0
  O  O76  1  0.25582000  0.87837000  0.51331000  1.0
  O  O77  1  0.74060000  0.39200000  0.12336000  1.0
  O  O78  1  0.26272000  0.61124000  0.87667000  1.0
