# generated using pymatgen
data_CuH5C26N7O6
_symmetry_space_group_name_H-M   'P 1'
_cell_length_a   7.40841000
_cell_length_b   8.73467000
_cell_length_c   27.81256000
_cell_angle_alpha   92.48683000
_cell_angle_beta   94.25151000
_cell_angle_gamma   102.91863000
_symmetry_Int_Tables_number   1
_chemical_formula_structural   CuH5C26N7O6
_chemical_formula_sum   'Cu2 H10 C52 N14 O12'
_cell_volume   1746.03775781
_cell_formula_units_Z   2
loop_
 _symmetry_equiv_pos_site_id
 _symmetry_equiv_pos_as_xyz
  1  'x, y, z'
loop_
 _atom_site_type_symbol
 _atom_site_label
 _atom_site_symmetry_multiplicity
 _atom_site_fract_x
 _atom_site_fract_y
 _atom_site_fract_z
 _atom_site_occupancy
  Cu  Cu0  1  0.31562000  0.48262000  0.49462000  1
  Cu  Cu1  1  0.68438000  0.51738000  0.50538000  1
  H  H2  1  0.73478000  0.88433000  0.04303000  1
  H  H3  1  0.37200000  0.09979000  0.02576000  1
  H  H4  1  0.26523000  0.11566000  0.95697000  1
  H  H5  1  0.05221000  0.62198000  0.53763000  1
  H  H6  1  0.94779000  0.37802000  0.46237000  1
  H  H7  1  0.80839000  0.57619000  0.35923000  1
  H  H8  1  0.19161000  0.42381000  0.64077000  1
  H  H9  1  0.83270000  0.56949000  0.27239000  1
  H  H10  1  0.16730000  0.43050000  0.72761000  1
  H  H11  1  0.62799000  0.90021000  0.97424000  1
  C  C12  1  0.54578000  0.79974000  0.50242000  1
  C  C13  1  0.61833000  0.63562000  0.13108000  1
  C  C14  1  0.49200000  0.50484000  0.64591000  1
  C  C15  1  0.50800000  0.49516000  0.35409000  1
  C  C16  1  0.58021000  0.64066000  0.02866000  1
  C  C17  1  0.41979000  0.35933000  0.97134000  1
  C  C18  1  0.45072000  0.35511000  0.02237000  1
  C  C19  1  0.54928000  0.64489000  0.97763000  1
  C  C20  1  0.52564000  0.49652000  0.05099000  1
  C  C21  1  0.47436000  0.50347000  0.94901000  1
  C  C22  1  0.67126000  0.77566000  0.05805000  1
  C  C23  1  0.45422000  0.20026000  0.49758000  1
  C  C24  1  0.32875000  0.22433000  0.94195000  1
  C  C25  1  0.68934000  0.77507000  0.10814000  1
  C  C26  1  0.31067000  0.22492000  0.89186000  1
  C  C27  1  0.49811000  0.50225000  0.59271000  1
  C  C28  1  0.50189000  0.49775000  0.40729000  1
  C  C29  1  0.58687000  0.78755000  0.95434000  1
  C  C30  1  0.41312000  0.21245000  0.04566000  1
  C  C31  1  0.56657000  0.96558000  0.50950000  1
  C  C32  1  0.43343000  0.03442000  0.49050000  1
  C  C33  1  0.49331000  0.64665000  0.82414000  1
  C  C34  1  0.45361000  0.50615000  0.89769000  1
  C  C35  1  0.50669000  0.35334000  0.17586000  1
  C  C36  1  0.38601000  0.36760000  0.81830000  1
  C  C37  1  0.61399000  0.63239000  0.18170000  1
  C  C38  1  0.30327000  0.46273000  0.71411000  1
  C  C39  1  0.69673000  0.53726000  0.28589000  1
  C  C40  1  0.31795000  0.46037000  0.66458000  1
  C  C41  1  0.68205000  0.53962000  0.33542000  1
  C  C42  1  0.65457000  0.55069000  0.67849000  1
  C  C43  1  0.34543000  0.44931000  0.32151000  1
  C  C44  1  0.63927000  0.54607000  0.72863000  1
  C  C45  1  0.54639000  0.49384000  0.10231000  1
  C  C46  1  0.36074000  0.45393000  0.27137000  1
  C  C47  1  0.46251000  0.50513000  0.74632000  1
  C  C48  1  0.53749000  0.49487000  0.25368000  1
  C  C49  1  0.83636000  0.60864000  0.66149000  1
  C  C50  1  0.16364000  0.39136000  0.33851000  1
  C  C51  1  0.80460000  0.58092000  0.76223000  1
  C  C52  1  0.19540000  0.41908000  0.23777000  1
  C  C53  1  0.62729000  0.94455000  0.88497000  1
  C  C54  1  0.37271000  0.05545000  0.11503000  1
  C  C55  1  0.78806000  0.92032000  0.13423000  1
  C  C56  1  0.50601000  0.65024000  0.87513000  1
  C  C57  1  0.21195000  0.07967000  0.86577000  1
  C  C58  1  0.72550000  0.04777000  0.54194000  1
  C  C59  1  0.27450000  0.95223000  0.45806000  1
  C  C60  1  0.49399000  0.34976000  0.12487000  1
  C  C61  1  0.57026000  0.79155000  0.90433000  1
  C  C62  1  0.42974000  0.20844000  0.09567000  1
  C  C63  1  0.38167000  0.36437000  0.86893000  1
  N  N64  1  0.44438000  0.50656000  0.79747000  1
  N  N65  1  0.32615000  0.93289000  0.13026000  1
  N  N66  1  0.86716000  0.03676000  0.15486000  1
  N  N67  1  0.13285000  0.96323000  0.84514000  1
  N  N68  1  0.85192000  0.11263000  0.56773000  1
  N  N69  1  0.14808000  0.88737000  0.43227000  1
  N  N70  1  0.55562000  0.49343000  0.20254000  1
  N  N71  1  0.96149000  0.54357000  0.51349000  1
  N  N72  1  0.03851000  0.45643000  0.48651000  1
  N  N73  1  0.98143000  0.65585000  0.64805000  1
  N  N74  1  0.01857000  0.34414000  0.35195000  1
  N  N75  1  0.93649000  0.60846000  0.78903000  1
  N  N76  1  0.06351000  0.39153000  0.21097000  1
  N  N77  1  0.67385000  0.06710000  0.86974000  1
  O  O78  1  0.38022000  0.71388000  0.49650000  1
  O  O79  1  0.46801000  0.21902000  0.19911000  1
  O  O80  1  0.66163000  0.76688000  0.21006000  1
  O  O81  1  0.33837000  0.23311000  0.78994000  1
  O  O82  1  0.61978000  0.28612000  0.50350000  1
  O  O83  1  0.69164000  0.74322000  0.50559000  1
  O  O84  1  0.30836000  0.25678000  0.49441000  1
  O  O85  1  0.34431000  0.48530000  0.56519000  1
  O  O86  1  0.65569000  0.51470000  0.43481000  1
  O  O87  1  0.65572000  0.51465000  0.57428000  1
  O  O88  1  0.34428000  0.48535000  0.42572000  1
  O  O89  1  0.53199000  0.78098000  0.80089000  1
