# generated using pymatgen
data_CuH16C16S2I
_symmetry_space_group_name_H-M   'P 1'
_cell_length_a   7.04763000
_cell_length_b   12.07327000
_cell_length_c   21.02838000
_cell_angle_alpha   90.00045000
_cell_angle_beta   89.99137000
_cell_angle_gamma   89.97695000
_symmetry_Int_Tables_number   1
_chemical_formula_structural   CuH16C16S2I
_chemical_formula_sum   'Cu4 H64 C64 S8 I4'
_cell_volume   1789.26136744
_cell_formula_units_Z   4
loop_
 _symmetry_equiv_pos_site_id
 _symmetry_equiv_pos_as_xyz
  1  'x, y, z'
loop_
 _atom_site_type_symbol
 _atom_site_label
 _atom_site_symmetry_multiplicity
 _atom_site_fract_x
 _atom_site_fract_y
 _atom_site_fract_z
 _atom_site_occupancy
  Cu  Cu1  1  0.25879000  0.84722000  0.75008000  1.0
  Cu  Cu2  1  0.24218000  0.34514000  0.24989000  1.0
  Cu  Cu3  1  0.74121000  0.15279000  0.24992000  1.0
  Cu  Cu4  1  0.75782000  0.65487000  0.75011000  1.0
  H  H1  1  0.36069000  0.18259000  0.89550000  1.0
  H  H2  1  0.52068000  0.25896000  0.99058000  1.0
  H  H3  1  0.29234000  0.99526000  0.10420000  1.0
  H  H4  1  0.14211000  0.91541000  0.00839000  1.0
  H  H5  1  0.07660000  0.91521000  0.89789000  1.0
  H  H6  1  0.09716000  0.03892000  0.85334000  1.0
  H  H7  1  0.36387000  0.76603000  0.90358000  1.0
  H  H8  1  0.56751000  0.78009000  0.85515000  1.0
  H  H9  1  0.13910000  0.68247000  0.10451000  1.0
  H  H10  1  0.97941000  0.75896000  0.00944000  1.0
  H  H11  1  0.20785000  0.49523000  0.89579000  1.0
  H  H12  1  0.35789000  0.41528000  0.99159000  1.0
  H  H13  1  0.42380000  0.41500000  0.10203000  1.0
  H  H14  1  0.40276000  0.53856000  0.14668000  1.0
  H  H15  1  0.13587000  0.26553000  0.09630000  1.0
  H  H16  1  0.93238000  0.27984000  0.14479000  1.0
  H  H17  1  0.63929000  0.81745000  0.39550000  1.0
  H  H18  1  0.47931000  0.74107000  0.49059000  1.0
  H  H19  1  0.70770000  0.00472000  0.60421000  1.0
  H  H20  1  0.85794000  0.08457000  0.50839000  1.0
  H  H21  1  0.92344000  0.08484000  0.39790000  1.0
  H  H22  1  0.90289000  0.96114000  0.35334000  1.0
  H  H23  1  0.63607000  0.23405000  0.40358000  1.0
  H  H24  1  0.43249000  0.21996000  0.35514000  1.0
  H  H25  1  0.86087000  0.31754000  0.60452000  1.0
  H  H26  1  0.02056000  0.24106000  0.50944000  1.0
  H  H27  1  0.79215000  0.50478000  0.39581000  1.0
  H  H28  1  0.64209000  0.58472000  0.49162000  1.0
  H  H29  1  0.57615000  0.58502000  0.60206000  1.0
  H  H30  1  0.59723000  0.46146000  0.64672000  1.0
  H  H31  1  0.86416000  0.73450000  0.59629000  1.0
  H  H32  1  0.06763000  0.72023000  0.64478000  1.0
  H  H33  1  0.63931000  0.81742000  0.10450000  1.0
  H  H34  1  0.47932000  0.74105000  0.00942000  1.0
  H  H35  1  0.70766000  0.00475000  0.89580000  1.0
  H  H36  1  0.85789000  0.08460000  0.99161000  1.0
  H  H37  1  0.92340000  0.08480000  0.10211000  1.0
  H  H38  1  0.90284000  0.96109000  0.14666000  1.0
  H  H39  1  0.63613000  0.23397000  0.09642000  1.0
  H  H40  1  0.43249000  0.21992000  0.14485000  1.0
  H  H41  1  0.86090000  0.31754000  0.89548000  1.0
  H  H42  1  0.02058000  0.24105000  0.99056000  1.0
  H  H43  1  0.79215000  0.50477000  0.10421000  1.0
  H  H44  1  0.64211000  0.58473000  0.00841000  1.0
  H  H45  1  0.57620000  0.58501000  0.89797000  1.0
  H  H46  1  0.59724000  0.46144000  0.85332000  1.0
  H  H47  1  0.86413000  0.73448000  0.90370000  1.0
  H  H48  1  0.06762000  0.72017000  0.85520000  1.0
  H  H49  1  0.36071000  0.18256000  0.60450000  1.0
  H  H50  1  0.52069000  0.25894000  0.50941000  1.0
  H  H51  1  0.29230000  0.99529000  0.39579000  1.0
  H  H52  1  0.14206000  0.91543000  0.49161000  1.0
  H  H53  1  0.07656000  0.91517000  0.60210000  1.0
  H  H54  1  0.09711000  0.03886000  0.64666000  1.0
  H  H55  1  0.36393000  0.76595000  0.59642000  1.0
  H  H56  1  0.56751000  0.78004000  0.64486000  1.0
  H  H57  1  0.13913000  0.68247000  0.39548000  1.0
  H  H58  1  0.97944000  0.75895000  0.49056000  1.0
  H  H59  1  0.20785000  0.49523000  0.60419000  1.0
  H  H60  1  0.35791000  0.41529000  0.50838000  1.0
  H  H61  1  0.42385000  0.41499000  0.39794000  1.0
  H  H62  1  0.40277000  0.53855000  0.35328000  1.0
  H  H63  1  0.13584000  0.26550000  0.40371000  1.0
  H  H64  1  0.93237000  0.27978000  0.35521000  1.0
  C  C1  1  0.34197000  0.14237000  0.94142000  1.0
  C  C2  1  0.43090000  0.18593000  0.99516000  1.0
  C  C3  1  0.41616000  0.13286000  0.05438000  1.0
  C  C4  1  0.30379000  0.03768000  0.05877000  1.0
  C  C5  1  0.22029000  0.99253000  0.00476000  1.0
  C  C6  1  0.24044000  0.04271000  0.94517000  1.0
  C  C7  1  0.17199000  0.98400000  0.88664000  1.0
  C  C8  1  0.47524000  0.82418000  0.88907000  1.0
  C  C9  1  0.15776000  0.64214000  0.05863000  1.0
  C  C10  1  0.06900000  0.68582000  0.00487000  1.0
  C  C11  1  0.08378000  0.63286000  0.94563000  1.0
  C  C12  1  0.19610000  0.53760000  0.94122000  1.0
  C  C13  1  0.27948000  0.49234000  0.99526000  1.0
  C  C14  1  0.25925000  0.54241000  0.05488000  1.0
  C  C15  1  0.32804000  0.48362000  0.11338000  1.0
  C  C16  1  0.02474000  0.32385000  0.11089000  1.0
  C  C17  1  0.65801000  0.85767000  0.44141000  1.0
  C  C18  1  0.56908000  0.81409000  0.49517000  1.0
  C  C19  1  0.58384000  0.86714000  0.55439000  1.0
  C  C20  1  0.69621000  0.96230000  0.55879000  1.0
  C  C21  1  0.77972000  0.00748000  0.50475000  1.0
  C  C22  1  0.75953000  0.95733000  0.44516000  1.0
  C  C23  1  0.82803000  0.01606000  0.38663000  1.0
  C  C24  1  0.52476000  0.17587000  0.38905000  1.0
  C  C25  1  0.84223000  0.35788000  0.55864000  1.0
  C  C26  1  0.93097000  0.31420000  0.50487000  1.0
  C  C27  1  0.91623000  0.36716000  0.44562000  1.0
  C  C28  1  0.80388000  0.46240000  0.44124000  1.0
  C  C29  1  0.72051000  0.50766000  0.49529000  1.0
  C  C30  1  0.74077000  0.45762000  0.55492000  1.0
  C  C31  1  0.67194000  0.51642000  0.61342000  1.0
  C  C32  1  0.97524000  0.67619000  0.61091000  1.0
  C  C33  1  0.65803000  0.85763000  0.05858000  1.0
  C  C34  1  0.56910000  0.81408000  0.00484000  1.0
  C  C35  1  0.58384000  0.86715000  0.94562000  1.0
  C  C36  1  0.69621000  0.96232000  0.94123000  1.0
  C  C37  1  0.77970000  0.00748000  0.99524000  1.0
  C  C38  1  0.75955000  0.95730000  0.05483000  1.0
  C  C39  1  0.82800000  0.01600000  0.11336000  1.0
  C  C40  1  0.52476000  0.17582000  0.11093000  1.0
  C  C41  1  0.84224000  0.35787000  0.94137000  1.0
  C  C42  1  0.93100000  0.31419000  0.99513000  1.0
  C  C43  1  0.91622000  0.36715000  0.05437000  1.0
  C  C44  1  0.80390000  0.46240000  0.05878000  1.0
  C  C45  1  0.72052000  0.50766000  0.00474000  1.0
  C  C46  1  0.74075000  0.45759000  0.94512000  1.0
  C  C47  1  0.67196000  0.51638000  0.88662000  1.0
  C  C48  1  0.97526000  0.67616000  0.88911000  1.0
  C  C49  1  0.34198000  0.14234000  0.55859000  1.0
  C  C50  1  0.43092000  0.18591000  0.50483000  1.0
  C  C51  1  0.41615000  0.13287000  0.44561000  1.0
  C  C52  1  0.30378000  0.03770000  0.44121000  1.0
  C  C53  1  0.22028000  0.99253000  0.49525000  1.0
  C  C54  1  0.24047000  0.04268000  0.55484000  1.0
  C  C55  1  0.17196000  0.98395000  0.61337000  1.0
  C  C56  1  0.47524000  0.82413000  0.61095000  1.0
  C  C57  1  0.15777000  0.64213000  0.44136000  1.0
  C  C58  1  0.06902000  0.68580000  0.49513000  1.0
  C  C59  1  0.08377000  0.63285000  0.55438000  1.0
  C  C60  1  0.19612000  0.53761000  0.55876000  1.0
  C  C61  1  0.27948000  0.49235000  0.50471000  1.0
  C  C62  1  0.25922000  0.54238000  0.44508000  1.0
  C  C63  1  0.32805000  0.48359000  0.38658000  1.0
  C  C64  1  0.02475000  0.32382000  0.38909000  1.0
  S  S1  1  0.37195000  0.93207000  0.83825000  1.0
  S  S2  1  0.12859000  0.43127000  0.16187000  1.0
  S  S3  1  0.62818000  0.06802000  0.33823000  1.0
  S  S4  1  0.87126000  0.56886000  0.66193000  1.0
  S  S5  1  0.62805000  0.06793000  0.16175000  1.0
  S  S6  1  0.87141000  0.56874000  0.83813000  1.0
  S  S7  1  0.37182000  0.93199000  0.66177000  1.0
  S  S8  1  0.12874000  0.43114000  0.33807000  1.0
  I  I1  1  0.86359000  0.86756000  0.75007000  1.0
  I  I2  1  0.63717000  0.36582000  0.24994000  1.0
  I  I3  1  0.13641000  0.13244000  0.24993000  1.0
  I  I4  1  0.36283000  0.63419000  0.75006000  1.0
