# generated using pymatgen
data_Co2H19C25N3O8
_symmetry_space_group_name_H-M   'P 1'
_cell_length_a   15.79661000
_cell_length_b   15.80191000
_cell_length_c   21.51559000
_cell_angle_alpha   89.98602000
_cell_angle_beta   89.97856000
_cell_angle_gamma   60.00326000
_symmetry_Int_Tables_number   1
_chemical_formula_structural   Co2H19C25N3O8
_chemical_formula_sum   'Co12 H114 C150 N18 O48'
_cell_volume   4651.27059206
_cell_formula_units_Z   6
loop_
 _symmetry_equiv_pos_site_id
 _symmetry_equiv_pos_as_xyz
  1  'x, y, z'
loop_
 _atom_site_type_symbol
 _atom_site_label
 _atom_site_symmetry_multiplicity
 _atom_site_fract_x
 _atom_site_fract_y
 _atom_site_fract_z
 _atom_site_occupancy
  Co  Co1  1  0.70144000  0.44812000  0.09564000  1.0
  Co  Co2  1  0.51252000  0.51366000  0.19369000  1.0
  Co  Co3  1  0.85000000  0.70137000  0.42964000  1.0
  Co  Co4  1  0.97332000  0.51242000  0.52738000  1.0
  Co  Co5  1  0.44891000  0.85001000  0.76183000  1.0
  Co  Co6  1  0.51424000  0.97291000  0.86011000  1.0
  Co  Co7  1  0.29865000  0.55181000  0.59564000  1.0
  Co  Co8  1  0.48729000  0.48517000  0.69342000  1.0
  Co  Co9  1  0.14976000  0.29832000  0.92985000  1.0
  Co  Co10  1  0.02719000  0.48721000  0.02737000  1.0
  Co  Co11  1  0.55161000  0.14988000  0.26330000  1.0
  Co  Co12  1  0.48607000  0.02668000  0.36102000  1.0
  H  H1  1  0.66529000  0.52472000  0.56165000  1.0
  H  H2  1  0.44508000  0.54887000  0.43431000  1.0
  H  H3  1  0.67201000  0.60430000  0.37142000  1.0
  H  H4  1  0.44151000  0.61393000  0.32657000  1.0
  H  H5  1  0.53682000  0.63352000  0.30101000  1.0
  H  H6  1  0.70987000  0.39775000  0.32812000  1.0
  H  H7  1  0.69178000  0.50056000  0.28375000  1.0
  H  H8  1  0.45987000  0.46397000  0.33433000  1.0
  H  H9  1  0.58129000  0.38198000  0.35940000  1.0
  H  H10  1  0.64074000  0.30399000  0.09356000  1.0
  H  H11  1  0.70734000  0.12695000  0.08322000  1.0
  H  H12  1  0.99019000  0.10000000  0.04739000  1.0
  H  H13  1  0.91078000  0.27884000  0.05829000  1.0
  H  H14  1  0.97874000  0.95173000  0.04668000  1.0
  H  H15  1  0.77777000  0.97838000  0.08221000  1.0
  H  H16  1  0.75933000  0.83786000  0.07026000  1.0
  H  H17  1  0.83343000  0.65826000  0.05522000  1.0
  H  H18  1  0.11334000  0.61786000  0.05065000  1.0
  H  H19  1  0.05206000  0.79544000  0.06470000  1.0
  H  H20  1  0.80899000  0.66516000  0.89531000  1.0
  H  H21  1  0.00665000  0.44545000  0.76841000  1.0
  H  H22  1  0.72466000  0.67183000  0.70457000  1.0
  H  H23  1  0.94487000  0.44207000  0.65973000  1.0
  H  H24  1  0.82980000  0.53770000  0.63484000  1.0
  H  H25  1  0.89396000  0.71014000  0.66158000  1.0
  H  H26  1  0.80801000  0.69292000  0.61793000  1.0
  H  H27  1  0.07685000  0.45989000  0.66666667  1.0
  H  H28  1  0.03876000  0.58088000  0.69172000  1.0
  H  H29  1  0.05517000  0.64060000  0.42712000  1.0
  H  H30  1  0.16559000  0.70730000  0.41656000  1.0
  H  H31  1  0.90958000  0.98993000  0.38077000  1.0
  H  H32  1  0.81021000  0.91039000  0.39187000  1.0
  H  H33  1  0.06925000  0.97862000  0.38007000  1.0
  H  H34  1  0.24365000  0.77779000  0.41554000  1.0
  H  H35  1  0.40256000  0.75946000  0.40364000  1.0
  H  H36  1  0.50818000  0.83352000  0.38879000  1.0
  H  H37  1  0.26867000  0.11340000  0.38403000  1.0
  H  H38  1  0.15229000  0.05202000  0.39787000  1.0
  H  H39  1  0.52531000  0.80814000  0.22839000  1.0
  H  H40  1  0.54852000  0.00595000  0.10231000  1.0
  H  H41  1  0.60397000  0.72444000  0.03760000  1.0
  H  H42  1  0.61342000  0.94514000  0.99347000  1.0
  H  H43  1  0.63330000  0.83005000  0.96822000  1.0
  H  H44  1  0.39715000  0.89302000  0.99437000  1.0
  H  H45  1  0.50039000  0.80786000  0.95032000  1.0
  H  H46  1  0.46346000  0.07659000  0.00051000  1.0
  H  H47  1  0.38119000  0.03753000  0.02547000  1.0
  H  H48  1  0.30438000  0.05522000  0.75996000  1.0
  H  H49  1  0.12721000  0.16568000  0.74997000  1.0
  H  H50  1  0.10025000  0.90989000  0.71404000  1.0
  H  H51  1  0.27923000  0.81050000  0.72466000  1.0
  H  H52  1  0.95205000  0.06943000  0.71335000  1.0
  H  H53  1  0.97847000  0.24376000  0.74892000  1.0
  H  H54  1  0.83795000  0.40253000  0.73691000  1.0
  H  H55  1  0.65835000  0.50804000  0.72153000  1.0
  H  H56  1  0.61787000  0.26867000  0.71716000  1.0
  H  H57  1  0.79551000  0.15236000  0.73154000  1.0
  H  H58  1  0.33503000  0.47372000  0.06149000  1.0
  H  H59  1  0.55468000  0.45126000  0.93446000  1.0
  H  H60  1  0.32787000  0.39593000  0.87085000  1.0
  H  H61  1  0.55846000  0.38653000  0.82637000  1.0
  H  H62  1  0.46317000  0.36694000  0.80085000  1.0
  H  H63  1  0.29061000  0.60296000  0.82799000  1.0
  H  H64  1  0.30793000  0.50006000  0.78395000  1.0
  H  H65  1  0.54028000  0.53691000  0.83298000  1.0
  H  H66  1  0.41888000  0.62016000  0.85730000  1.0
  H  H67  1  0.35920000  0.69588000  0.59369000  1.0
  H  H68  1  0.29261000  0.87290000  0.58331000  1.0
  H  H69  1  0.00978000  0.89985000  0.54738000  1.0
  H  H70  1  0.08927000  0.72098000  0.55827000  1.0
  H  H71  1  0.02139000  0.04810000  0.54663000  1.0
  H  H72  1  0.22240000  0.02119000  0.58231000  1.0
  H  H73  1  0.24093000  0.16175000  0.57028000  1.0
  H  H74  1  0.16693000  0.34131000  0.55522000  1.0
  H  H75  1  0.88693000  0.38181000  0.55077000  1.0
  H  H76  1  0.94820000  0.20425000  0.56481000  1.0
  H  H77  1  0.19147000  0.33460000  0.39512000  1.0
  H  H78  1  0.99354000  0.55477000  0.26869000  1.0
  H  H79  1  0.27560000  0.32878000  0.20437000  1.0
  H  H80  1  0.05468000  0.55885000  0.16011000  1.0
  H  H81  1  0.16979000  0.46364000  0.13485000  1.0
  H  H82  1  0.10655000  0.29115000  0.16233000  1.0
  H  H83  1  0.19210000  0.30821000  0.11794000  1.0
  H  H84  1  0.92267000  0.54072000  0.16674000  1.0
  H  H85  1  0.96131000  0.41953000  0.19179000  1.0
  H  H86  1  0.94499000  0.35901000  0.92760000  1.0
  H  H87  1  0.83442000  0.29255000  0.91661000  1.0
  H  H88  1  0.09038000  0.00989000  0.88066000  1.0
  H  H89  1  0.18988000  0.08922000  0.89206000  1.0
  H  H90  1  0.93055000  0.02134000  0.87987000  1.0
  H  H91  1  0.75629000  0.22215000  0.91553000  1.0
  H  H92  1  0.59719000  0.24056000  0.90368000  1.0
  H  H93  1  0.49162000  0.16657000  0.88842000  1.0
  H  H94  1  0.73109000  0.88671000  0.88366000  1.0
  H  H95  1  0.84746000  0.94800000  0.89805000  1.0
  H  H96  1  0.47447000  0.19061000  0.72855000  1.0
  H  H97  1  0.45154000  0.99439000  0.60109000  1.0
  H  H98  1  0.39556000  0.27703000  0.53822000  1.0
  H  H99  1  0.38635000  0.05586000  0.49353000  1.0
  H  H100  1  0.36694000  0.17045000  0.46774000  1.0
  H  H101  1  0.60353000  0.10647000  0.49539000  1.0
  H  H102  1  0.50060000  0.19218000  0.45155000  1.0
  H  H103  1  0.53629000  0.92357000  0.50060000  1.0
  H  H104  1  0.61873000  0.96204000  0.52589000  1.0
  H  H105  1  0.69604000  0.94475000  0.26096000  1.0
  H  H106  1  0.87306000  0.83428000  0.24995000  1.0
  H  H107  1  0.89985000  0.09011000  0.21396000  1.0
  H  H108  1  0.72101000  0.18960000  0.22543000  1.0
  H  H109  1  0.04823000  0.93044000  0.21322000  1.0
  H  H110  1  0.02158000  0.75626000  0.24897000  1.0
  H  H111  1  0.16179000  0.59738000  0.23684000  1.0
  H  H112  1  0.34140000  0.49155000  0.22165000  1.0
  H  H113  1  0.38241000  0.73058000  0.21682000  1.0
  H  H114  1  0.20486000  0.84724000  0.23128000  1.0
  C  C1  1  0.67833000  0.56505000  0.46715000  1.0
  C  C2  1  0.63529000  0.53895000  0.51483000  1.0
  C  C3  1  0.54970000  0.53531000  0.50274000  1.0
  C  C4  1  0.51140000  0.55218000  0.44230000  1.0
  C  C5  1  0.55658000  0.57355000  0.39367000  1.0
  C  C6  1  0.63801000  0.58273000  0.40726000  1.0
  C  C7  1  0.52085000  0.58391000  0.32764000  1.0
  C  C8  1  0.67266000  0.44270000  0.28727000  1.0
  C  C9  1  0.71380000  0.38142000  0.22805000  1.0
  C  C10  1  0.53644000  0.42158000  0.31897000  1.0
  C  C11  1  0.53982000  0.34928000  0.27049000  1.0
  C  C12  1  0.76496000  0.57927000  0.47607000  1.0
  C  C13  1  0.49506000  0.51798000  0.55375000  1.0
  C  C14  1  0.71730000  0.25625000  0.08210000  1.0
  C  C15  1  0.75570000  0.15664000  0.07677000  1.0
  C  C16  1  0.85609000  0.09577000  0.06417000  1.0
  C  C17  1  0.91218000  0.14174000  0.05724000  1.0
  C  C18  1  0.86799000  0.24268000  0.06308000  1.0
  C  C19  1  0.90164000  0.99034000  0.05949000  1.0
  C  C20  1  0.85517000  0.93919000  0.07027000  1.0
  C  C21  1  0.89878000  0.83408000  0.06612000  1.0
  C  C22  1  0.83823000  0.79220000  0.06536000  1.0
  C  C23  1  0.87877000  0.69217000  0.05761000  1.0
  C  C24  1  0.03559000  0.67002000  0.05493000  1.0
  C  C25  1  0.00035000  0.76913000  0.06202000  1.0
  C  C26  1  0.75641000  0.67828000  0.80057000  1.0
  C  C27  1  0.82523000  0.63526000  0.84847000  1.0
  C  C28  1  0.91478000  0.54983000  0.83663000  1.0
  C  C29  1  0.93691000  0.51173000  0.77614000  1.0
  C  C30  1  0.87070000  0.55681000  0.72732000  1.0
  C  C31  1  0.77982000  0.63801000  0.74068000  1.0
  C  C32  1  0.89573000  0.52140000  0.66119000  1.0
  C  C33  1  0.88519000  0.67342000  0.62083000  1.0
  C  C34  1  0.90463000  0.71423000  0.56115000  1.0
  C  C35  1  0.04280000  0.53645000  0.65136000  1.0
  C  C36  1  0.11102000  0.54005000  0.60233000  1.0
  C  C37  1  0.65528000  0.76492000  0.80909000  1.0
  C  C38  1  0.98644000  0.49513000  0.88787000  1.0
  C  C39  1  0.02631000  0.71714000  0.41564000  1.0
  C  C40  1  0.08751000  0.75558000  0.41021000  1.0
  C  C41  1  0.04796000  0.85593000  0.39757000  1.0
  C  C42  1  0.94589000  0.91196000  0.39071000  1.0
  C  C43  1  0.88917000  0.86772000  0.39665000  1.0
  C  C44  1  0.10781000  0.90155000  0.39288000  1.0
  C  C45  1  0.20544000  0.85518000  0.40361000  1.0
  C  C46  1  0.26693000  0.89886000  0.39951000  1.0
  C  C47  1  0.36938000  0.83834000  0.39877000  1.0
  C  C48  1  0.42891000  0.87887000  0.39108000  1.0
  C  C49  1  0.29427000  0.03565000  0.38829000  1.0
  C  C50  1  0.23035000  0.00040000  0.39531000  1.0
  C  C51  1  0.56483000  0.75613000  0.13357000  1.0
  C  C52  1  0.53916000  0.82461000  0.18165000  1.0
  C  C53  1  0.53570000  0.91393000  0.17013000  1.0
  C  C54  1  0.55182000  0.93623000  0.10971000  1.0
  C  C55  1  0.57290000  0.87035000  0.06069000  1.0
  C  C56  1  0.58225000  0.77952000  0.07380000  1.0
  C  C57  1  0.58346000  0.89576000  0.99463000  1.0
  C  C58  1  0.44249000  0.88487000  0.95363000  1.0
  C  C59  1  0.38162000  0.90463000  0.89413000  1.0
  C  C60  1  0.42125000  0.04228000  0.98509000  1.0
  C  C61  1  0.34924000  0.11067000  0.93630000  1.0
  C  C62  1  0.57927000  0.65504000  0.14198000  1.0
  C  C63  1  0.51949000  0.98505000  0.22163000  1.0
  C  C64  1  0.25663000  0.02641000  0.74856000  1.0
  C  C65  1  0.15694000  0.08765000  0.74343000  1.0
  C  C66  1  0.09606000  0.04815000  0.73084000  1.0
  C  C67  1  0.14203000  0.94613000  0.72386000  1.0
  C  C68  1  0.24303000  0.88941000  0.72953000  1.0
  C  C69  1  0.99059000  0.10795000  0.72619000  1.0
  C  C70  1  0.93931000  0.20553000  0.73698000  1.0
  C  C71  1  0.83417000  0.26694000  0.73280000  1.0
  C  C72  1  0.79225000  0.36936000  0.73195000  1.0
  C  C73  1  0.69224000  0.42882000  0.72400000  1.0
  C  C74  1  0.67006000  0.29424000  0.72139000  1.0
  C  C75  1  0.76918000  0.23036000  0.72868000  1.0
  C  C76  1  0.32154000  0.43462000  0.96681000  1.0
  C  C77  1  0.36477000  0.46017000  0.01461000  1.0
  C  C78  1  0.45035000  0.46386000  0.00268000  1.0
  C  C79  1  0.48833000  0.44790000  0.94219000  1.0
  C  C80  1  0.44306000  0.42700000  0.89341000  1.0
  C  C81  1  0.36169000  0.41750000  0.90683000  1.0
  C  C82  1  0.47910000  0.41659000  0.82744000  1.0
  C  C83  1  0.32729000  0.55778000  0.78712000  1.0
  C  C84  1  0.28594000  0.61889000  0.72787000  1.0
  C  C85  1  0.46391000  0.57902000  0.81727000  1.0
  C  C86  1  0.46069000  0.65029000  0.76790000  1.0
  C  C87  1  0.23496000  0.42037000  0.97602000  1.0
  C  C88  1  0.50510000  0.48047000  0.05390000  1.0
  C  C89  1  0.28266000  0.74361000  0.58219000  1.0
  C  C90  1  0.24427000  0.84321000  0.57684000  1.0
  C  C91  1  0.14392000  0.90406000  0.56417000  1.0
  C  C92  1  0.08779000  0.85813000  0.55726000  1.0
  C  C93  1  0.13199000  0.75720000  0.56310000  1.0
  C  C94  1  0.09847000  0.00946000  0.55947000  1.0
  C  C95  1  0.14502000  0.06050000  0.57032000  1.0
  C  C96  1  0.10146000  0.16560000  0.56621000  1.0
  C  C97  1  0.16203000  0.20746000  0.56542000  1.0
  C  C98  1  0.12152000  0.30748000  0.55765000  1.0
  C  C99  1  0.96468000  0.32968000  0.55505000  1.0
  C  C100  1  0.99990000  0.23057000  0.56213000  1.0
  C  C101  1  0.24389000  0.32165000  0.30037000  1.0
  C  C102  1  0.17517000  0.36464000  0.34831000  1.0
  C  C103  1  0.08571000  0.45020000  0.33661000  1.0
  C  C104  1  0.06337000  0.48847000  0.27620000  1.0
  C  C105  1  0.12954000  0.44359000  0.22733000  1.0
  C  C106  1  0.22046000  0.36225000  0.24054000  1.0
  C  C107  1  0.10408000  0.47958000  0.16134000  1.0
  C  C108  1  0.11499000  0.32764000  0.12134000  1.0
  C  C109  1  0.09527000  0.28609000  0.06228000  1.0
  C  C110  1  0.95708000  0.46413000  0.15145000  1.0
  C  C111  1  0.88914000  0.46013000  0.10232000  1.0
  C  C112  1  0.34499000  0.23494000  0.30901000  1.0
  C  C113  1  0.01437000  0.50484000  0.38795000  1.0
  C  C114  1  0.97378000  0.28254000  0.91595000  1.0
  C  C115  1  0.91251000  0.24421000  0.91030000  1.0
  C  C116  1  0.95201000  0.14391000  0.89751000  1.0
  C  C117  1  0.05410000  0.08783000  0.89069000  1.0
  C  C118  1  0.11090000  0.13194000  0.89681000  1.0
  C  C119  1  0.89207000  0.09839000  0.89272000  1.0
  C  C120  1  0.79444000  0.14478000  0.90355000  1.0
  C  C121  1  0.73288000  0.10118000  0.89942000  1.0
  C  C122  1  0.63042000  0.16170000  0.89865000  1.0
  C  C123  1  0.57090000  0.12121000  0.89068000  1.0
  C  C124  1  0.70551000  0.96445000  0.88790000  1.0
  C  C125  1  0.76942000  0.99964000  0.89524000  1.0
  C  C126  1  0.43449000  0.24418000  0.63404000  1.0
  C  C127  1  0.46045000  0.17494000  0.68166000  1.0
  C  C128  1  0.46431000  0.08566000  0.66947000  1.0
  C  C129  1  0.44803000  0.06410000  0.60900000  1.0
  C  C130  1  0.42676000  0.13066000  0.56046000  1.0
  C  C131  1  0.41729000  0.22138000  0.57404000  1.0
  C  C132  1  0.41646000  0.10508000  0.49453000  1.0
  C  C133  1  0.55828000  0.11507000  0.45455000  1.0
  C  C134  1  0.61891000  0.09543000  0.39505000  1.0
  C  C135  1  0.57874000  0.95773000  0.48538000  1.0
  C  C136  1  0.65087000  0.88929000  0.43657000  1.0
  C  C137  1  0.41968000  0.34531000  0.64308000  1.0
  C  C138  1  0.48116000  0.01342000  0.72015000  1.0
  C  C139  1  0.74370000  0.97360000  0.24931000  1.0
  C  C140  1  0.84332000  0.91235000  0.24365000  1.0
  C  C141  1  0.90416000  0.95184000  0.23088000  1.0
  C  C142  1  0.85814000  0.05388000  0.22403000  1.0
  C  C143  1  0.75720000  0.11066000  0.23017000  1.0
  C  C144  1  0.00963000  0.89197000  0.22609000  1.0
  C  C145  1  0.06079000  0.79441000  0.23693000  1.0
  C  C146  1  0.16591000  0.73283000  0.23273000  1.0
  C  C147  1  0.20761000  0.63044000  0.23190000  1.0
  C  C148  1  0.30760000  0.57078000  0.22401000  1.0
  C  C149  1  0.33009000  0.70522000  0.22126000  1.0
  C  C150  1  0.23101000  0.76926000  0.22854000  1.0
  N  N1  1  0.56459000  0.49017000  0.29213000  1.0
  N  N2  1  0.77184000  0.29998000  0.07510000  1.0
  N  N3  1  0.97635000  0.63081000  0.05193000  1.0
  N  N4  1  0.94544000  0.56523000  0.62536000  1.0
  N  N5  1  0.92802000  0.77164000  0.40877000  1.0
  N  N6  1  0.39276000  0.97645000  0.38547000  1.0
  N  N7  1  0.49007000  0.94537000  0.95865000  1.0
  N  N8  1  0.30039000  0.92818000  0.74144000  1.0
  N  N9  1  0.63085000  0.39265000  0.71822000  1.0
  N  N10  1  0.43541000  0.51007000  0.79156000  1.0
  N  N11  1  0.22810000  0.69992000  0.57515000  1.0
  N  N12  1  0.02393000  0.36890000  0.55204000  1.0
  N  N13  1  0.05448000  0.43570000  0.12554000  1.0
  N  N14  1  0.07207000  0.22799000  0.90907000  1.0
  N  N15  1  0.60705000  0.02369000  0.88475000  1.0
  N  N16  1  0.51029000  0.05488000  0.45907000  1.0
  N  N17  1  0.69993000  0.07189000  0.24247000  1.0
  N  N18  1  0.36911000  0.60681000  0.21823000  1.0
  O  O1  1  0.65863000  0.42459000  0.17855000  1.0
  O  O2  1  0.79191000  0.30418000  0.22803000  1.0
  O  O3  1  0.51641000  0.37903000  0.21494000  1.0
  O  O4  1  0.56450000  0.26457000  0.29077000  1.0
  O  O5  1  0.76830000  0.63855000  0.43732000  1.0
  O  O6  1  0.82647000  0.53298000  0.51919000  1.0
  O  O7  1  0.53758000  0.48731000  0.60590000  1.0
  O  O8  1  0.40821000  0.53759000  0.54041000  1.0
  O  O9  1  0.91644000  0.65823000  0.51224000  1.0
  O  O10  1  0.90346000  0.79244000  0.55987000  1.0
  O  O11  1  0.10420000  0.51674000  0.54685000  1.0
  O  O12  1  0.17092000  0.56515000  0.62226000  1.0
  O  O13  1  0.59362000  0.76988000  0.76895000  1.0
  O  O14  1  0.63876000  0.82526000  0.85326000  1.0
  O  O15  1  0.97382000  0.53748000  0.94014000  1.0
  O  O16  1  0.05421000  0.40849000  0.87467000  1.0
  O  O17  1  0.42499000  0.91635000  0.84465000  1.0
  O  O18  1  0.30434000  0.90377000  0.89378000  1.0
  O  O19  1  0.37910000  0.10391000  0.88074000  1.0
  O  O20  1  0.26438000  0.17065000  0.95643000  1.0
  O  O21  1  0.63843000  0.59282000  0.10302000  1.0
  O  O22  1  0.53323000  0.63917000  0.18500000  1.0
  O  O23  1  0.49153000  0.97110000  0.27420000  1.0
  O  O24  1  0.53718000  0.05358000  0.20832000  1.0
  O  O25  1  0.34094000  0.57566000  0.67836000  1.0
  O  O26  1  0.20784000  0.69624000  0.72794000  1.0
  O  O27  1  0.48372000  0.62014000  0.71240000  1.0
  O  O28  1  0.43595000  0.73524000  0.78773000  1.0
  O  O29  1  0.23102000  0.36155000  0.93724000  1.0
  O  O30  1  0.17386000  0.46627000  0.01946000  1.0
  O  O31  1  0.46305000  0.50852000  0.10638000  1.0
  O  O32  1  0.59126000  0.46299000  0.04044000  1.0
  O  O33  1  0.08379000  0.34087000  0.01269000  1.0
  O  O34  1  0.09593000  0.20807000  0.06248000  1.0
  O  O35  1  0.89606000  0.48324000  0.04678000  1.0
  O  O36  1  0.82929000  0.43488000  0.12216000  1.0
  O  O37  1  0.40684000  0.23016000  0.26903000  1.0
  O  O38  1  0.36129000  0.17457000  0.35314000  1.0
  O  O39  1  0.02824000  0.46270000  0.44039000  1.0
  O  O40  1  0.94573000  0.59104000  0.37463000  1.0
  O  O41  1  0.57492000  0.08367000  0.34601000  1.0
  O  O42  1  0.69605000  0.09645000  0.39406000  1.0
  O  O43  1  0.62087000  0.89590000  0.38106000  1.0
  O  O44  1  0.73581000  0.82944000  0.45661000  1.0
  O  O45  1  0.36274000  0.40722000  0.60317000  1.0
  O  O46  1  0.46333000  0.36165000  0.68747000  1.0
  O  O47  1  0.51043000  0.02562000  0.77265000  1.0
  O  O48  1  0.46265000  0.94566000  0.70611000  1.0
