# generated using pymatgen
data_CuH5C5IN3
_symmetry_space_group_name_H-M   'P 1'
_cell_length_a   20.01371798
_cell_length_b   20.01350000
_cell_length_c   20.01350000
_cell_angle_alpha   109.47100000
_cell_angle_beta   109.47144127
_cell_angle_gamma   109.47144127
_symmetry_Int_Tables_number   1
_chemical_formula_structural   CuH5C5IN3
_chemical_formula_sum   'Cu24 H120 C120 I24 N72'
_cell_volume   6170.93246487
_cell_formula_units_Z   24
loop_
 _symmetry_equiv_pos_site_id
 _symmetry_equiv_pos_as_xyz
  1  'x, y, z'
loop_
 _atom_site_type_symbol
 _atom_site_label
 _atom_site_symmetry_multiplicity
 _atom_site_fract_x
 _atom_site_fract_y
 _atom_site_fract_z
 _atom_site_occupancy
  Cu  Cu1  1  0.75190000  0.62886000  0.95990000  1.0
  Cu  Cu2  1  0.74810000  0.70800000  0.87696000  1.0
  Cu  Cu3  1  0.16896000  0.79200000  0.54010000  1.0
  Cu  Cu4  1  0.33104000  0.87114000  0.62304000  1.0
  Cu  Cu5  1  0.87696000  0.24810000  0.20800000  1.0
  Cu  Cu6  1  0.95990000  0.25190000  0.12886000  1.0
  Cu  Cu7  1  0.62304000  0.83104000  0.37114000  1.0
  Cu  Cu8  1  0.54010000  0.66896000  0.29200000  1.0
  Cu  Cu9  1  0.37114000  0.12304000  0.33104000  1.0
  Cu  Cu10  1  0.29200000  0.04010000  0.16896000  1.0
  Cu  Cu11  1  0.20800000  0.37696000  0.74810000  1.0
  Cu  Cu12  1  0.12886000  0.45990000  0.75190000  1.0
  Cu  Cu13  1  0.24810000  0.87696000  0.70800000  1.0
  Cu  Cu14  1  0.25190000  0.95990000  0.62886000  1.0
  Cu  Cu15  1  0.83104000  0.62304000  0.87114000  1.0
  Cu  Cu16  1  0.66896000  0.54010000  0.79200000  1.0
  Cu  Cu17  1  0.12304000  0.37114000  0.83104000  1.0
  Cu  Cu18  1  0.04010000  0.29200000  0.66896000  1.0
  Cu  Cu19  1  0.37696000  0.20800000  0.24810000  1.0
  Cu  Cu20  1  0.45990000  0.12886000  0.25190000  1.0
  Cu  Cu21  1  0.62886000  0.75190000  0.45990000  1.0
  Cu  Cu22  1  0.70800000  0.74810000  0.37696000  1.0
  Cu  Cu23  1  0.79200000  0.16896000  0.04010000  1.0
  Cu  Cu24  1  0.87114000  0.33104000  0.12304000  1.0
  H  H1  1  0.80310000  0.78070000  0.09860000  1.0
  H  H2  1  0.77420000  0.62680000  0.22020000  1.0
  H  H3  1  0.86680000  0.88480000  0.41400000  1.0
  H  H4  1  0.92800000  0.90530000  0.37950000  1.0
  H  H5  1  0.83500000  0.88160000  0.32760000  1.0
  H  H6  1  0.69690000  0.79550000  0.97760000  1.0
  H  H7  1  0.72580000  0.94600000  0.85260000  1.0
  H  H8  1  0.63320000  0.04720000  0.01800000  1.0
  H  H9  1  0.57200000  0.95150000  0.97730000  1.0
  H  H10  1  0.66500000  0.99260000  0.04660000  1.0
  H  H11  1  0.18210000  0.70450000  0.40140000  1.0
  H  H12  1  0.90660000  0.55400000  0.27980000  1.0
  H  H13  1  0.97080000  0.45280000  0.08600000  1.0
  H  H14  1  0.02580000  0.54850000  0.12050000  1.0
  H  H15  1  0.05400000  0.50740000  0.17240000  1.0
  H  H16  1  0.31790000  0.71930000  0.52240000  1.0
  H  H17  1  0.59340000  0.87320000  0.64740000  1.0
  H  H18  1  0.52920000  0.61520000  0.48200000  1.0
  H  H19  1  0.47420000  0.59470000  0.52270000  1.0
  H  H20  1  0.44600000  0.61840000  0.45340000  1.0
  H  H21  1  0.97760000  0.19690000  0.29550000  1.0
  H  H22  1  0.85260000  0.22580000  0.44600000  1.0
  H  H23  1  0.01800000  0.13320000  0.54720000  1.0
  H  H24  1  0.97730000  0.07200000  0.45150000  1.0
  H  H25  1  0.04660000  0.16500000  0.49260000  1.0
  H  H26  1  0.09860000  0.30310000  0.28070000  1.0
  H  H27  1  0.22020000  0.27420000  0.12680000  1.0
  H  H28  1  0.41400000  0.36680000  0.38480000  1.0
  H  H29  1  0.37950000  0.42800000  0.40530000  1.0
  H  H30  1  0.32760000  0.33500000  0.38160000  1.0
  H  H31  1  0.52240000  0.81790000  0.21930000  1.0
  H  H32  1  0.64740000  0.09340000  0.37320000  1.0
  H  H33  1  0.48200000  0.02920000  0.11520000  1.0
  H  H34  1  0.52270000  0.97420000  0.09470000  1.0
  H  H35  1  0.45340000  0.94600000  0.11840000  1.0
  H  H36  1  0.40140000  0.68210000  0.20450000  1.0
  H  H37  1  0.27980000  0.40660000  0.05400000  1.0
  H  H38  1  0.08600000  0.47080000  0.95280000  1.0
  H  H39  1  0.12050000  0.52580000  0.04850000  1.0
  H  H40  1  0.17240000  0.55400000  0.00740000  1.0
  H  H41  1  0.21930000  0.02240000  0.31790000  1.0
  H  H42  1  0.37320000  0.14740000  0.59340000  1.0
  H  H43  1  0.11520000  0.98200000  0.52920000  1.0
  H  H44  1  0.09470000  0.02270000  0.47420000  1.0
  H  H45  1  0.11840000  0.95340000  0.44600000  1.0
  H  H46  1  0.20450000  0.90140000  0.18210000  1.0
  H  H47  1  0.05400000  0.77980000  0.90660000  1.0
  H  H48  1  0.95280000  0.58600000  0.97080000  1.0
  H  H49  1  0.04850000  0.62050000  0.02580000  1.0
  H  H50  1  0.00740000  0.67240000  0.05400000  1.0
  H  H51  1  0.29550000  0.47760000  0.69690000  1.0
  H  H52  1  0.44600000  0.35260000  0.72580000  1.0
  H  H53  1  0.54720000  0.51800000  0.63320000  1.0
  H  H54  1  0.45150000  0.47730000  0.57200000  1.0
  H  H55  1  0.49260000  0.54660000  0.66500000  1.0
  H  H56  1  0.28070000  0.59860000  0.80310000  1.0
  H  H57  1  0.12680000  0.72020000  0.77420000  1.0
  H  H58  1  0.38480000  0.91400000  0.86680000  1.0
  H  H59  1  0.40530000  0.87950000  0.92800000  1.0
  H  H60  1  0.38160000  0.82760000  0.83500000  1.0
  H  H61  1  0.19690000  0.97760000  0.79550000  1.0
  H  H62  1  0.22580000  0.85260000  0.94600000  1.0
  H  H63  1  0.13320000  0.01800000  0.04720000  1.0
  H  H64  1  0.07200000  0.97730000  0.95150000  1.0
  H  H65  1  0.16500000  0.04660000  0.99260000  1.0
  H  H66  1  0.30310000  0.09860000  0.78070000  1.0
  H  H67  1  0.27420000  0.22020000  0.62680000  1.0
  H  H68  1  0.36680000  0.41400000  0.88480000  1.0
  H  H69  1  0.42800000  0.37950000  0.90530000  1.0
  H  H70  1  0.33500000  0.32760000  0.88160000  1.0
  H  H71  1  0.81790000  0.52240000  0.71930000  1.0
  H  H72  1  0.09340000  0.64740000  0.87320000  1.0
  H  H73  1  0.02920000  0.48200000  0.61520000  1.0
  H  H74  1  0.97420000  0.52270000  0.59470000  1.0
  H  H75  1  0.94600000  0.45340000  0.61840000  1.0
  H  H76  1  0.68210000  0.40140000  0.70450000  1.0
  H  H77  1  0.40660000  0.27980000  0.55400000  1.0
  H  H78  1  0.47080000  0.08600000  0.45280000  1.0
  H  H79  1  0.52580000  0.12050000  0.54850000  1.0
  H  H80  1  0.55400000  0.17240000  0.50740000  1.0
  H  H81  1  0.02240000  0.21930000  0.81790000  1.0
  H  H82  1  0.14740000  0.37320000  0.09340000  1.0
  H  H83  1  0.98200000  0.11520000  0.02920000  1.0
  H  H84  1  0.02270000  0.09470000  0.97420000  1.0
  H  H85  1  0.95340000  0.11840000  0.94600000  1.0
  H  H86  1  0.90140000  0.20450000  0.68210000  1.0
  H  H87  1  0.77980000  0.05400000  0.40660000  1.0
  H  H88  1  0.58600000  0.95280000  0.47080000  1.0
  H  H89  1  0.62050000  0.04850000  0.52580000  1.0
  H  H90  1  0.67240000  0.00740000  0.55400000  1.0
  H  H91  1  0.47760000  0.29550000  0.19690000  1.0
  H  H92  1  0.35260000  0.44600000  0.22580000  1.0
  H  H93  1  0.51800000  0.54720000  0.13320000  1.0
  H  H94  1  0.47730000  0.45150000  0.07200000  1.0
  H  H95  1  0.54660000  0.49260000  0.16500000  1.0
  H  H96  1  0.59860000  0.28070000  0.30310000  1.0
  H  H97  1  0.72020000  0.12680000  0.27420000  1.0
  H  H98  1  0.91400000  0.38480000  0.36680000  1.0
  H  H99  1  0.87950000  0.40530000  0.42800000  1.0
  H  H100  1  0.82760000  0.38160000  0.33500000  1.0
  H  H101  1  0.78070000  0.80310000  0.59860000  1.0
  H  H102  1  0.62680000  0.77420000  0.72020000  1.0
  H  H103  1  0.88480000  0.86680000  0.91400000  1.0
  H  H104  1  0.90530000  0.92800000  0.87950000  1.0
  H  H105  1  0.88160000  0.83500000  0.82760000  1.0
  H  H106  1  0.79550000  0.69690000  0.47760000  1.0
  H  H107  1  0.94600000  0.72580000  0.35260000  1.0
  H  H108  1  0.04720000  0.63320000  0.51800000  1.0
  H  H109  1  0.95150000  0.57200000  0.47730000  1.0
  H  H110  1  0.99260000  0.66500000  0.54660000  1.0
  H  H111  1  0.70450000  0.18210000  0.90140000  1.0
  H  H112  1  0.55400000  0.90660000  0.77980000  1.0
  H  H113  1  0.45280000  0.97080000  0.58600000  1.0
  H  H114  1  0.54850000  0.02580000  0.62050000  1.0
  H  H115  1  0.50740000  0.05400000  0.67240000  1.0
  H  H116  1  0.71930000  0.31790000  0.02240000  1.0
  H  H117  1  0.87320000  0.59340000  0.14740000  1.0
  H  H118  1  0.61520000  0.52920000  0.98200000  1.0
  H  H119  1  0.59470000  0.47420000  0.02270000  1.0
  H  H120  1  0.61840000  0.44600000  0.95340000  1.0
  C  C1  1  0.79680000  0.74840000  0.12400000  1.0
  C  C2  1  0.81640000  0.74240000  0.23600000  1.0
  C  C3  1  0.78130000  0.65840000  0.19410000  1.0
  C  C4  1  0.75720000  0.62300000  0.11180000  1.0
  C  C5  1  0.87140000  0.87130000  0.36450000  1.0
  C  C6  1  0.70320000  0.82720000  0.95160000  1.0
  C  C7  1  0.68360000  0.91960000  0.92600000  1.0
  C  C8  1  0.71870000  0.91280000  0.87710000  1.0
  C  C9  1  0.74280000  0.85460000  0.86580000  1.0
  C  C10  1  0.62860000  0.99310000  0.99990000  1.0
  C  C11  1  0.12440000  0.67280000  0.37600000  1.0
  C  C12  1  0.00640000  0.58040000  0.26400000  1.0
  C  C13  1  0.96430000  0.58720000  0.30590000  1.0
  C  C14  1  0.01120000  0.64540000  0.38820000  1.0
  C  C15  1  0.00680000  0.50690000  0.13550000  1.0
  C  C16  1  0.37560000  0.75160000  0.54840000  1.0
  C  C17  1  0.49360000  0.75760000  0.57400000  1.0
  C  C18  1  0.53570000  0.84160000  0.62290000  1.0
  C  C19  1  0.48880000  0.87700000  0.63420000  1.0
  C  C20  1  0.49320000  0.62870000  0.50010000  1.0
  C  C21  1  0.95160000  0.20320000  0.32720000  1.0
  C  C22  1  0.92600000  0.18360000  0.41960000  1.0
  C  C23  1  0.87710000  0.21870000  0.41280000  1.0
  C  C24  1  0.86580000  0.24280000  0.35460000  1.0
  C  C25  1  0.99990000  0.12860000  0.49310000  1.0
  C  C26  1  0.12400000  0.29680000  0.24840000  1.0
  C  C27  1  0.23600000  0.31640000  0.24240000  1.0
  C  C28  1  0.19410000  0.28130000  0.15840000  1.0
  C  C29  1  0.11180000  0.25720000  0.12300000  1.0
  C  C30  1  0.36450000  0.37140000  0.37130000  1.0
  C  C31  1  0.54840000  0.87560000  0.25160000  1.0
  C  C32  1  0.57400000  0.99360000  0.25760000  1.0
  C  C33  1  0.62290000  0.03570000  0.34160000  1.0
  C  C34  1  0.63420000  0.98880000  0.37700000  1.0
  C  C35  1  0.50010000  0.99320000  0.12870000  1.0
  C  C36  1  0.37600000  0.62440000  0.17280000  1.0
  C  C37  1  0.26400000  0.50640000  0.08040000  1.0
  C  C38  1  0.30590000  0.46430000  0.08720000  1.0
  C  C39  1  0.38820000  0.51120000  0.14540000  1.0
  C  C40  1  0.13550000  0.50680000  0.00690000  1.0
  C  C41  1  0.25160000  0.04840000  0.37560000  1.0
  C  C42  1  0.25760000  0.07400000  0.49360000  1.0
  C  C43  1  0.34160000  0.12290000  0.53570000  1.0
  C  C44  1  0.37700000  0.13420000  0.48880000  1.0
  C  C45  1  0.12870000  0.00010000  0.49320000  1.0
  C  C46  1  0.17280000  0.87600000  0.12440000  1.0
  C  C47  1  0.08040000  0.76400000  0.00640000  1.0
  C  C48  1  0.08720000  0.80590000  0.96430000  1.0
  C  C49  1  0.14540000  0.88820000  0.01120000  1.0
  C  C50  1  0.00690000  0.63550000  0.00680000  1.0
  C  C51  1  0.32720000  0.45160000  0.70320000  1.0
  C  C52  1  0.41960000  0.42600000  0.68360000  1.0
  C  C53  1  0.41280000  0.37710000  0.71870000  1.0
  C  C54  1  0.35460000  0.36580000  0.74280000  1.0
  C  C55  1  0.49310000  0.49990000  0.62860000  1.0
  C  C56  1  0.24840000  0.62400000  0.79680000  1.0
  C  C57  1  0.24240000  0.73600000  0.81640000  1.0
  C  C58  1  0.15840000  0.69410000  0.78130000  1.0
  C  C59  1  0.12300000  0.61180000  0.75720000  1.0
  C  C60  1  0.37130000  0.86450000  0.87140000  1.0
  C  C61  1  0.20320000  0.95160000  0.82720000  1.0
  C  C62  1  0.18360000  0.92600000  0.91960000  1.0
  C  C63  1  0.21870000  0.87710000  0.91280000  1.0
  C  C64  1  0.24280000  0.86580000  0.85460000  1.0
  C  C65  1  0.12860000  0.99990000  0.99310000  1.0
  C  C66  1  0.29680000  0.12400000  0.74840000  1.0
  C  C67  1  0.31640000  0.23600000  0.74240000  1.0
  C  C68  1  0.28130000  0.19410000  0.65840000  1.0
  C  C69  1  0.25720000  0.11180000  0.62300000  1.0
  C  C70  1  0.37140000  0.36450000  0.87130000  1.0
  C  C71  1  0.87560000  0.54840000  0.75160000  1.0
  C  C72  1  0.99360000  0.57400000  0.75760000  1.0
  C  C73  1  0.03570000  0.62290000  0.84160000  1.0
  C  C74  1  0.98880000  0.63420000  0.87700000  1.0
  C  C75  1  0.99320000  0.50010000  0.62870000  1.0
  C  C76  1  0.62440000  0.37600000  0.67280000  1.0
  C  C77  1  0.50640000  0.26400000  0.58040000  1.0
  C  C78  1  0.46430000  0.30590000  0.58720000  1.0
  C  C79  1  0.51120000  0.38820000  0.64540000  1.0
  C  C80  1  0.50680000  0.13550000  0.50690000  1.0
  C  C81  1  0.04840000  0.25160000  0.87560000  1.0
  C  C82  1  0.07400000  0.25760000  0.99360000  1.0
  C  C83  1  0.12290000  0.34160000  0.03570000  1.0
  C  C84  1  0.13420000  0.37700000  0.98880000  1.0
  C  C85  1  0.00010000  0.12870000  0.99320000  1.0
  C  C86  1  0.87600000  0.17280000  0.62440000  1.0
  C  C87  1  0.76400000  0.08040000  0.50640000  1.0
  C  C88  1  0.80590000  0.08720000  0.46430000  1.0
  C  C89  1  0.88820000  0.14540000  0.51120000  1.0
  C  C90  1  0.63550000  0.00690000  0.50680000  1.0
  C  C91  1  0.45160000  0.32720000  0.20320000  1.0
  C  C92  1  0.42600000  0.41960000  0.18360000  1.0
  C  C93  1  0.37710000  0.41280000  0.21870000  1.0
  C  C94  1  0.36580000  0.35460000  0.24280000  1.0
  C  C95  1  0.49990000  0.49310000  0.12860000  1.0
  C  C96  1  0.62400000  0.24840000  0.29680000  1.0
  C  C97  1  0.73600000  0.24240000  0.31640000  1.0
  C  C98  1  0.69410000  0.15840000  0.28130000  1.0
  C  C99  1  0.61180000  0.12300000  0.25720000  1.0
  C  C100  1  0.86450000  0.37130000  0.37140000  1.0
  C  C101  1  0.74840000  0.79680000  0.62400000  1.0
  C  C102  1  0.74240000  0.81640000  0.73600000  1.0
  C  C103  1  0.65840000  0.78130000  0.69410000  1.0
  C  C104  1  0.62300000  0.75720000  0.61180000  1.0
  C  C105  1  0.87130000  0.87140000  0.86450000  1.0
  C  C106  1  0.82720000  0.70320000  0.45160000  1.0
  C  C107  1  0.91960000  0.68360000  0.42600000  1.0
  C  C108  1  0.91280000  0.71870000  0.37710000  1.0
  C  C109  1  0.85460000  0.74280000  0.36580000  1.0
  C  C110  1  0.99310000  0.62860000  0.49990000  1.0
  C  C111  1  0.67280000  0.12440000  0.87600000  1.0
  C  C112  1  0.58040000  0.00640000  0.76400000  1.0
  C  C113  1  0.58720000  0.96430000  0.80590000  1.0
  C  C114  1  0.64540000  0.01120000  0.88820000  1.0
  C  C115  1  0.50690000  0.00680000  0.63550000  1.0
  C  C116  1  0.75160000  0.37560000  0.04840000  1.0
  C  C117  1  0.75760000  0.49360000  0.07400000  1.0
  C  C118  1  0.84160000  0.53570000  0.12290000  1.0
  C  C119  1  0.87700000  0.48880000  0.13420000  1.0
  C  C120  1  0.62870000  0.49320000  0.00010000  1.0
  I  I1  1  0.75972000  0.49836000  0.89182000  1.0
  I  I2  1  0.74028000  0.63210000  0.73864000  1.0
  I  I3  1  0.10654000  0.86790000  0.60818000  1.0
  I  I4  1  0.39346000  0.00164000  0.76136000  1.0
  I  I5  1  0.73864000  0.24028000  0.13210000  1.0
  I  I6  1  0.89182000  0.25972000  0.99836000  1.0
  I  I7  1  0.76136000  0.89346000  0.50164000  1.0
  I  I8  1  0.60818000  0.60654000  0.36790000  1.0
  I  I9  1  0.50164000  0.26136000  0.39346000  1.0
  I  I10  1  0.36790000  0.10818000  0.10654000  1.0
  I  I11  1  0.13210000  0.23864000  0.74028000  1.0
  I  I12  1  0.99836000  0.39182000  0.75972000  1.0
  I  I13  1  0.24028000  0.73864000  0.63210000  1.0
  I  I14  1  0.25972000  0.89182000  0.49836000  1.0
  I  I15  1  0.89346000  0.76136000  0.00164000  1.0
  I  I16  1  0.60654000  0.60818000  0.86790000  1.0
  I  I17  1  0.26136000  0.50164000  0.89346000  1.0
  I  I18  1  0.10818000  0.36790000  0.60654000  1.0
  I  I19  1  0.23864000  0.13210000  0.24028000  1.0
  I  I20  1  0.39182000  0.99836000  0.25972000  1.0
  I  I21  1  0.49836000  0.75972000  0.39182000  1.0
  I  I22  1  0.63210000  0.74028000  0.23864000  1.0
  I  I23  1  0.86790000  0.10654000  0.10818000  1.0
  I  I24  1  0.00164000  0.39346000  0.26136000  1.0
  N  N1  1  0.82330000  0.78960000  0.20390000  1.0
  N  N2  1  0.76240000  0.66740000  0.07440000  1.0
  N  N3  1  0.84810000  0.78510000  0.32340000  1.0
  N  N4  1  0.67670000  0.88060000  0.96630000  1.0
  N  N5  1  0.73760000  0.81200000  0.90500000  1.0
  N  N6  1  0.65190000  0.97530000  0.93700000  1.0
  N  N7  1  0.08570000  0.61940000  0.29610000  1.0
  N  N8  1  0.09300000  0.68800000  0.42560000  1.0
  N  N9  1  0.96170000  0.52470000  0.17660000  1.0
  N  N10  1  0.41430000  0.71040000  0.53370000  1.0
  N  N11  1  0.40700000  0.83260000  0.59500000  1.0
  N  N12  1  0.53830000  0.71490000  0.56300000  1.0
  N  N13  1  0.96630000  0.17670000  0.38060000  1.0
  N  N14  1  0.90500000  0.23760000  0.31200000  1.0
  N  N15  1  0.93700000  0.15190000  0.47530000  1.0
  N  N16  1  0.20390000  0.32330000  0.28960000  1.0
  N  N17  1  0.07440000  0.26240000  0.16740000  1.0
  N  N18  1  0.32340000  0.34810000  0.28510000  1.0
  N  N19  1  0.53370000  0.91430000  0.21040000  1.0
  N  N20  1  0.59500000  0.90700000  0.33260000  1.0
  N  N21  1  0.56300000  0.03830000  0.21490000  1.0
  N  N22  1  0.29610000  0.58570000  0.11940000  1.0
  N  N23  1  0.42560000  0.59300000  0.18800000  1.0
  N  N24  1  0.17660000  0.46170000  0.02470000  1.0
  N  N25  1  0.21040000  0.03370000  0.41430000  1.0
  N  N26  1  0.33260000  0.09500000  0.40700000  1.0
  N  N27  1  0.21490000  0.06300000  0.53830000  1.0
  N  N28  1  0.11940000  0.79610000  0.08570000  1.0
  N  N29  1  0.18800000  0.92560000  0.09300000  1.0
  N  N30  1  0.02470000  0.67660000  0.96170000  1.0
  N  N31  1  0.38060000  0.46630000  0.67670000  1.0
  N  N32  1  0.31200000  0.40500000  0.73760000  1.0
  N  N33  1  0.47530000  0.43700000  0.65190000  1.0
  N  N34  1  0.28960000  0.70390000  0.82330000  1.0
  N  N35  1  0.16740000  0.57440000  0.76240000  1.0
  N  N36  1  0.28510000  0.82340000  0.84810000  1.0
  N  N37  1  0.17670000  0.96630000  0.88060000  1.0
  N  N38  1  0.23760000  0.90500000  0.81200000  1.0
  N  N39  1  0.15190000  0.93700000  0.97530000  1.0
  N  N40  1  0.32330000  0.20390000  0.78960000  1.0
  N  N41  1  0.26240000  0.07440000  0.66740000  1.0
  N  N42  1  0.34810000  0.32340000  0.78510000  1.0
  N  N43  1  0.91430000  0.53370000  0.71040000  1.0
  N  N44  1  0.90700000  0.59500000  0.83260000  1.0
  N  N45  1  0.03830000  0.56300000  0.71490000  1.0
  N  N46  1  0.58570000  0.29610000  0.61940000  1.0
  N  N47  1  0.59300000  0.42560000  0.68800000  1.0
  N  N48  1  0.46170000  0.17660000  0.52470000  1.0
  N  N49  1  0.03370000  0.21040000  0.91430000  1.0
  N  N50  1  0.09500000  0.33260000  0.90700000  1.0
  N  N51  1  0.06300000  0.21490000  0.03830000  1.0
  N  N52  1  0.79610000  0.11940000  0.58570000  1.0
  N  N53  1  0.92560000  0.18800000  0.59300000  1.0
  N  N54  1  0.67660000  0.02470000  0.46170000  1.0
  N  N55  1  0.46630000  0.38060000  0.17670000  1.0
  N  N56  1  0.40500000  0.31200000  0.23760000  1.0
  N  N57  1  0.43700000  0.47530000  0.15190000  1.0
  N  N58  1  0.70390000  0.28960000  0.32330000  1.0
  N  N59  1  0.57440000  0.16740000  0.26240000  1.0
  N  N60  1  0.82340000  0.28510000  0.34810000  1.0
  N  N61  1  0.78960000  0.82330000  0.70390000  1.0
  N  N62  1  0.66740000  0.76240000  0.57440000  1.0
  N  N63  1  0.78510000  0.84810000  0.82340000  1.0
  N  N64  1  0.88060000  0.67670000  0.46630000  1.0
  N  N65  1  0.81200000  0.73760000  0.40500000  1.0
  N  N66  1  0.97530000  0.65190000  0.43700000  1.0
  N  N67  1  0.61940000  0.08570000  0.79610000  1.0
  N  N68  1  0.68800000  0.09300000  0.92560000  1.0
  N  N69  1  0.52470000  0.96170000  0.67660000  1.0
  N  N70  1  0.71040000  0.41430000  0.03370000  1.0
  N  N71  1  0.83260000  0.40700000  0.09500000  1.0
  N  N72  1  0.71490000  0.53830000  0.06300000  1.0
