# generated using pymatgen
data_Cr6H33C50NO26
_symmetry_space_group_name_H-M   'P 1'
_cell_length_a   10.88636000
_cell_length_b   10.91088000
_cell_length_c   18.82619000
_cell_angle_alpha   89.63312000
_cell_angle_beta   89.80436000
_cell_angle_gamma   119.72145000
_symmetry_Int_Tables_number   1
_chemical_formula_structural   Cr6H33C50NO26
_chemical_formula_sum   'Cr6 H33 C50 N1 O26'
_cell_volume   1941.89751707
_cell_formula_units_Z   1
loop_
 _symmetry_equiv_pos_site_id
 _symmetry_equiv_pos_as_xyz
  1  'x, y, z'
loop_
 _atom_site_type_symbol
 _atom_site_label
 _atom_site_symmetry_multiplicity
 _atom_site_fract_x
 _atom_site_fract_y
 _atom_site_fract_z
 _atom_site_occupancy
  Cr  Cr0  1  0.60707000  0.39790000  0.49777000  1
  Cr  Cr1  1  0.60176000  0.70860000  0.49874000  1
  Cr  Cr2  1  0.29120000  0.39347000  0.50354000  1
  Cr  Cr3  1  0.06238000  0.93854000  0.99236000  1
  Cr  Cr4  1  0.37485000  0.93745000  0.00548000  1
  Cr  Cr5  1  0.06201000  0.62508000  0.99881000  1
  H  H6  1  0.40222000  0.90145000  0.21183000  1
  H  H7  1  0.82636000  0.47710000  0.17733000  1
  H  H8  1  0.83779000  0.87939000  0.17948000  1
  H  H9  1  0.52515000  0.84482000  0.18812000  1
  H  H10  1  0.81781000  0.86796000  0.30581000  1
  H  H11  1  0.20428000  0.42256000  0.70622000  1
  H  H12  1  0.20357000  0.44573000  0.83266000  1
  H  H13  1  0.49870000  0.89309000  0.81264000  1
  H  H14  1  0.50860000  0.86674000  0.68359000  1
  H  H15  1  0.54352000  0.15786000  0.68446000  1
  H  H16  1  0.53966000  0.14282000  0.81121000  1
  H  H17  1  0.26311000  0.42591000  0.29731000  1
  H  H18  1  0.15715000  0.17245000  0.81728000  1
  H  H19  1  0.16242000  0.19014000  0.68847000  1
  H  H20  1  0.93380000  0.89607000  0.66385000  1
  H  H21  1  0.55357000  0.80753000  0.30448000  1
  H  H22  1  0.97245000  0.91949000  0.78962000  1
  H  H23  1  0.82375000  0.47191000  0.81028000  1
  H  H24  1  0.78049000  0.44711000  0.68274000  1
  H  H25  1  0.44179000  0.87894000  0.32841000  1
  H  H26  1  0.13983000  0.73092000  0.22047000  1
  H  H27  1  0.17447000  0.71575000  0.33906000  1
  H  H28  1  0.07268000  0.54451000  0.21208000  1
  H  H29  1  0.23201000  0.45049000  0.18151000  1
  H  H30  1  0.44968000  0.54127000  0.29082000  1
  H  H31  1  0.45220000  0.47259000  0.16090000  1
  H  H32  1  0.54239000  0.64458000  0.18046000  1
  H  H33  1  0.09819000  0.52831000  0.32987000  1
  H  H34  1  0.11985000  0.11509000  0.32473000  1
  H  H35  1  0.08937000  0.07513000  0.19566000  1
  H  H36  1  0.54179000  0.25623000  0.17146000  1
  H  H37  1  0.56960000  0.28299000  0.29720000  1
  H  H38  1  0.80321000  0.46423000  0.30691000  1
  C  C39  1  0.76395000  0.64673000  0.39041000  1
  C  C40  1  0.44830000  0.22529000  0.20390000  1
  C  C41  1  0.46391000  0.23834000  0.27626000  1
  C  C42  1  0.34664000  0.62184000  0.39873000  1
  C  C43  1  0.34624000  0.19650000  0.32083000  1
  C  C44  1  0.81104000  0.55497000  0.27908000  1
  C  C45  1  0.82140000  0.56105000  0.20524000  1
  C  C46  1  0.83268000  0.67848000  0.16841000  1
  C  C47  1  0.82872000  0.78686000  0.20603000  1
  C  C48  1  0.82018000  0.78162000  0.27898000  1
  C  C49  1  0.80882000  0.66475000  0.31627000  1
  C  C50  1  0.32691000  0.54888000  0.19968000  1
  C  C51  1  0.27014000  0.52604000  0.72836000  1
  C  C52  1  0.27179000  0.53866000  0.80113000  1
  C  C53  1  0.34942000  0.67140000  0.83223000  1
  C  C54  1  0.37423000  0.23272000  0.39563000  1
  C  C55  1  0.43815000  0.78932000  0.78968000  1
  C  C56  1  0.44077000  0.77532000  0.71608000  1
  C  C57  1  0.35237000  0.64414000  0.68496000  1
  C  C58  1  0.45753000  0.15989000  0.71258000  1
  C  C59  1  0.45775000  0.15535000  0.78536000  1
  C  C60  1  0.34900000  0.15820000  0.82370000  1
  C  C61  1  0.30025000  0.67429000  0.18793000  1
  C  C62  1  0.24324000  0.17208000  0.78842000  1
  C  C63  1  0.24406000  0.17848000  0.71512000  1
  C  C64  1  0.35335000  0.17606000  0.67706000  1
  C  C65  1  0.91164000  0.80328000  0.69494000  1
  C  C66  1  0.78090000  0.64953000  0.59759000  1
  C  C67  1  0.93055000  0.81549000  0.76703000  1
  C  C68  1  0.89261000  0.69517000  0.80941000  1
  C  C69  1  0.84770000  0.56418000  0.77834000  1
  C  C70  1  0.82649000  0.55135000  0.70566000  1
  C  C71  1  0.85072000  0.67000000  0.66478000  1
  C  C72  1  0.33080000  0.64714000  0.32336000  1
  C  C73  1  0.29818000  0.10343000  0.10342000  1
  C  C74  1  0.27536000  0.68878000  0.11222000  1
  C  C75  1  0.88393000  0.70774000  0.09528000  1
  C  C76  1  0.32566000  0.10803000  0.89607000  1
  C  C77  1  0.30610000  0.68993000  0.90289000  1
  C  C78  1  0.35974000  0.61992000  0.60936000  1
  C  C79  1  0.91733000  0.71533000  0.88454000  1
  C  C80  1  0.38206000  0.22776000  0.60487000  1
  C  C81  1  0.42542000  0.81333000  0.21798000  1
  C  C82  1  0.44659000  0.79510000  0.29717000  1
  C  C83  1  0.18404000  0.63222000  0.31008000  1
  C  C84  1  0.16476000  0.64478000  0.23014000  1
  C  C85  1  0.34547000  0.53342000  0.27994000  1
  C  C86  1  0.21137000  0.14372000  0.29122000  1
  C  C87  1  0.19466000  0.12502000  0.21774000  1
  C  C88  1  0.31335000  0.16227000  0.17413000  1
  N  N89  1  0.44887000  0.56651000  0.15799000  1
  O  O90  1  0.49257000  0.25557000  0.41858000  1
  O  O91  1  0.16280000  0.59329000  0.08475000  1
  O  O92  1  0.93467000  0.63537000  0.06841000  1
  O  O93  1  0.71981000  0.52739000  0.42109000  1
  O  O94  1  0.93170000  0.82879000  0.90814000  1
  O  O95  1  0.20127000  0.05748000  0.92063000  1
  O  O96  1  0.41532000  0.08048000  0.92321000  1
  O  O97  1  0.37321000  0.80964000  0.93295000  1
  O  O98  1  0.18399000  0.59646000  0.92350000  1
  O  O99  1  0.95432000  0.63831000  0.91893000  1
  O  O100  1  0.16641000  0.83369000  0.99888000  1
  O  O101  1  0.47554000  0.69592000  0.57594000  1
  O  O102  1  0.73969000  0.73974000  0.41542000  1
  O  O103  1  0.46775000  0.69515000  0.42617000  1
  O  O104  1  0.25507000  0.50343000  0.42362000  1
  O  O105  1  0.30075000  0.27639000  0.42805000  1
  O  O106  1  0.50098000  0.25640000  0.58015000  1
  O  O107  1  0.72760000  0.52816000  0.57086000  1
  O  O108  1  0.74809000  0.74057000  0.57698000  1
  O  O109  1  0.26347000  0.50426000  0.58519000  1
  O  O110  1  0.30854000  0.27716000  0.57782000  1
  O  O111  1  0.50001000  0.49999000  0.50002000  1
  O  O112  1  0.91051000  0.82561000  0.06939000  1
  O  O113  1  0.18163000  0.05454000  0.07012000  1
  O  O114  1  0.39413000  0.07731000  0.08447000  1
  O  O115  1  0.35356000  0.80670000  0.08243000  1
