# generated using pymatgen
data_CaH8(C9O4)2
_symmetry_space_group_name_H-M   'P 1'
_cell_length_a   8.76949000
_cell_length_b   11.43522000
_cell_length_c   13.32591684
_cell_angle_alpha   65.12283441
_cell_angle_beta   82.56077565
_cell_angle_gamma   74.52179000
_symmetry_Int_Tables_number   1
_chemical_formula_structural   CaH8(C9O4)2
_chemical_formula_sum   'Ca2 H16 C36 O16'
_cell_volume   1168.14504760
_cell_formula_units_Z   2
loop_
 _symmetry_equiv_pos_site_id
 _symmetry_equiv_pos_as_xyz
  1  'x, y, z'
loop_
 _atom_site_type_symbol
 _atom_site_label
 _atom_site_symmetry_multiplicity
 _atom_site_fract_x
 _atom_site_fract_y
 _atom_site_fract_z
 _atom_site_occupancy
  Ca  Ca0  1  0.74417000  0.16461000  0.67647000  1
  Ca  Ca1  1  0.25583000  0.83539000  0.32352000  1
  H  H2  1  0.31378000  0.53968000  0.52386000  1
  H  H3  1  0.57400000  0.83531000  0.52451000  1
  H  H4  1  0.63201000  0.74889000  0.86538000  1
  H  H5  1  0.41186000  0.50696000  0.78012000  1
  H  H6  1  0.18212000  0.93825000  0.52413000  1
  H  H7  1  0.91875000  0.64401000  0.52469000  1
  H  H8  1  0.86172000  0.38871000  0.86521000  1
  H  H9  1  0.08415000  0.71455000  0.78033000  1
  H  H10  1  0.68622000  0.46031000  0.47614000  1
  H  H11  1  0.42600000  0.16468000  0.47549000  1
  H  H12  1  0.36799000  0.25110000  0.13462000  1
  H  H13  1  0.58814000  0.49303000  0.21988000  1
  H  H14  1  0.81789000  0.06175000  0.47586000  1
  H  H15  1  0.08125000  0.35599000  0.47530000  1
  H  H16  1  0.13829000  0.61128000  0.13479000  1
  H  H17  1  0.91585000  0.28544000  0.21967000  1
  C  C18  1  0.55854000  0.77471000  0.61161000  1
  C  C19  1  0.59023000  0.72622000  0.80380000  1
  C  C20  1  0.48685000  0.66827000  0.64376000  1
  C  C21  1  0.60982000  0.80398000  0.69164000  1
  C  C22  1  0.68833000  0.91776000  0.65498000  1
  C  C23  1  0.46745000  0.58947000  0.75602000  1
  C  C24  1  0.50564000  0.53564000  0.95102000  1
  C  C25  1  0.52024000  0.61730000  0.83731000  1
  C  C26  1  0.42927000  0.64398000  0.55636000  1
  C  C27  1  0.93468000  0.61742000  0.61169000  1
  C  C28  1  0.90334000  0.47321000  0.80376000  1
  C  C29  1  0.00748000  0.69092000  0.64392000  1
  C  C30  1  0.88301000  0.50835000  0.69160000  1
  C  C31  1  0.80573000  0.43095000  0.65459000  1
  C  C32  1  0.02728000  0.65707000  0.75607000  1
  C  C33  1  0.99250000  0.51401000  0.95107000  1
  C  C34  1  0.97466000  0.54775000  0.83732000  1
  C  C35  1  0.06824000  0.80090000  0.55684000  1
  C  C36  1  0.44147000  0.22529000  0.38838000  1
  C  C37  1  0.40977000  0.27378000  0.19619000  1
  C  C38  1  0.51315000  0.33173000  0.35623000  1
  C  C39  1  0.39018000  0.19601000  0.30836000  1
  C  C40  1  0.31167000  0.08224000  0.34501000  1
  C  C41  1  0.53255000  0.41052000  0.24398000  1
  C  C42  1  0.49436000  0.46436000  0.04897000  1
  C  C43  1  0.47976000  0.38270000  0.16268000  1
  C  C44  1  0.57073000  0.35602000  0.44364000  1
  C  C45  1  0.06532000  0.38258000  0.38831000  1
  C  C46  1  0.09666000  0.52678000  0.19624000  1
  C  C47  1  0.99253000  0.30907000  0.35608000  1
  C  C48  1  0.11699000  0.49164000  0.30840000  1
  C  C49  1  0.19427000  0.56905000  0.34540000  1
  C  C50  1  0.97273000  0.34292000  0.24393000  1
  C  C51  1  0.00750000  0.48599000  0.04892000  1
  C  C52  1  0.02534000  0.45224000  0.16268000  1
  C  C53  1  0.93176000  0.19909000  0.44316000  1
  O  O54  1  0.70976000  0.95734000  0.72805000  1
  O  O55  1  0.72692000  0.96680000  0.55320000  1
  O  O56  1  0.36432000  0.54236000  0.59029000  1
  O  O57  1  0.43887000  0.72026000  0.45608000  1
  O  O58  1  0.78017000  0.32061000  0.72772000  1
  O  O59  1  0.77263000  0.48065000  0.55283000  1
  O  O60  1  0.12836000  0.87131000  0.59070000  1
  O  O61  1  0.06710000  0.82080000  0.45666000  1
  O  O62  1  0.29024000  0.04266000  0.27194000  1
  O  O63  1  0.27308000  0.03319000  0.44680000  1
  O  O64  1  0.63569000  0.45765000  0.40970000  1
  O  O65  1  0.56113000  0.27973000  0.54392000  1
  O  O66  1  0.21984000  0.67938000  0.27228000  1
  O  O67  1  0.22737000  0.51935000  0.44716000  1
  O  O68  1  0.87164000  0.12869000  0.40929000  1
  O  O69  1  0.93290000  0.17919000  0.54334000  1
