# generated using pymatgen
data_ZnH8C21N2O11
_symmetry_space_group_name_H-M   'P 1'
_cell_length_a   7.87591000
_cell_length_b   8.54016000
_cell_length_c   23.40225000
_cell_angle_alpha   86.86804000
_cell_angle_beta   84.63741000
_cell_angle_gamma   86.53276000
_symmetry_Int_Tables_number   1
_chemical_formula_structural   ZnH8C21N2O11
_chemical_formula_sum   'Zn2 H16 C42 N4 O22'
_cell_volume   1562.41177090
_cell_formula_units_Z   2
loop_
 _symmetry_equiv_pos_site_id
 _symmetry_equiv_pos_as_xyz
  1  'x, y, z'
loop_
 _atom_site_type_symbol
 _atom_site_label
 _atom_site_symmetry_multiplicity
 _atom_site_fract_x
 _atom_site_fract_y
 _atom_site_fract_z
 _atom_site_occupancy
  Zn  Zn0  1  0.69307000  0.51800000  0.49339000  1
  Zn  Zn1  1  0.30693000  0.48200000  0.50661000  1
  H  H2  1  0.12324000  0.82464000  0.91284000  1
  H  H3  1  0.59091000  0.20398000  0.62788000  1
  H  H4  1  0.41881000  0.74782000  0.21328000  1
  H  H5  1  0.58274000  0.25625000  0.78729000  1
  H  H6  1  0.30054000  0.00825000  0.50575000  1
  H  H7  1  0.69946000  0.99177000  0.49415000  1
  H  H8  1  0.85281000  0.31989000  0.56356000  1
  H  H9  1  0.14719000  0.68011000  0.43644000  1
  H  H10  1  0.87983000  0.18164000  0.08662000  1
  H  H11  1  0.12379000  0.82619000  0.09681000  1
  H  H12  1  0.87912000  0.18116000  0.90282000  1
  H  H13  1  0.57562000  0.25897000  0.21680000  1
  H  H14  1  0.42558000  0.74503000  0.78242000  1
  H  H15  1  0.59330000  0.20546000  0.37720000  1
  H  H16  1  0.40518000  0.79457000  0.62207000  1
  H  H17  1  0.40903000  0.79639000  0.37292000  1
  C  C18  1  0.45484000  0.79427000  0.50103000  1
  C  C19  1  0.55057000  0.36029000  0.70266000  1
  C  C20  1  0.45190000  0.64119000  0.23802000  1
  C  C21  1  0.54926000  0.36229000  0.76227000  1
  C  C22  1  0.49723000  0.50349000  0.20937000  1
  C  C23  1  0.50427000  0.50071000  0.79051000  1
  C  C24  1  0.43107000  0.95785000  0.50185000  1
  C  C25  1  0.56893000  0.04217000  0.49805000  1
  C  C26  1  0.49974000  0.50042000  0.39001000  1
  C  C27  1  0.50025000  0.49967000  0.60999000  1
  C  C28  1  0.64943000  0.45606000  0.87650000  1
  C  C29  1  0.54516000  0.20573000  0.49893000  1
  C  C30  1  0.35291000  0.55018000  0.12328000  1
  C  C31  1  0.35656000  0.54644000  0.88329000  1
  C  C32  1  0.64573000  0.45963000  0.11657000  1
  C  C33  1  0.35641000  0.56376000  0.94276000  1
  C  C34  1  0.64625000  0.44298000  0.05704000  1
  C  C35  1  0.50173000  0.50280000  0.96988000  1
  C  C36  1  0.50101000  0.50407000  0.02991000  1
  C  C37  1  0.64769000  0.44040000  0.93674000  1
  C  C38  1  0.35499000  0.56638000  0.06305000  1
  C  C39  1  0.21662000  0.63938000  0.97526000  1
  C  C40  1  0.54268000  0.36466000  0.23995000  1
  C  C41  1  0.78618000  0.36761000  0.02452000  1
  C  C42  1  0.21627000  0.64134000  0.03557000  1
  C  C43  1  0.78654000  0.36564000  0.96420000  1
  C  C44  1  0.08431000  0.73561000  0.94554000  1
  C  C45  1  0.91859000  0.27146000  0.05421000  1
  C  C46  1  0.08433000  0.74040000  0.06888000  1
  C  C47  1  0.91853000  0.26656000  0.93091000  1
  C  C48  1  0.60047000  0.21358000  0.33072000  1
  C  C49  1  0.39913000  0.78766000  0.66852000  1
  C  C50  1  0.39812000  0.78934000  0.32731000  1
  C  C51  1  0.45830000  0.63878000  0.75958000  1
  C  C52  1  0.60197000  0.21199000  0.67345000  1
  C  C53  1  0.98450000  0.34328000  0.55646000  1
  C  C54  1  0.01550000  0.65672000  0.44354000  1
  C  C55  1  0.54679000  0.36206000  0.29942000  1
  C  C56  1  0.45337000  0.63993000  0.70017000  1
  C  C57  1  0.49890000  0.50140000  0.32823000  1
  C  C58  1  0.50102000  0.49989000  0.67175000  1
  C  C59  1  0.44980000  0.64173000  0.29768000  1
  N  N60  1  0.50344000  0.50087000  0.85161000  1
  N  N61  1  0.49866000  0.50478000  0.14823000  1
  N  N62  1  0.04967000  0.45795000  0.51544000  1
  N  N63  1  0.95033000  0.54205000  0.48456000  1
  O  O64  1  0.61075000  0.73857000  0.49621000  1
  O  O65  1  0.20623000  0.57519000  0.15702000  1
  O  O66  1  0.21106000  0.57120000  0.85708000  1
  O  O67  1  0.79102000  0.43450000  0.14289000  1
  O  O68  1  0.93304000  0.71112000  0.95513000  1
  O  O69  1  0.06970000  0.29688000  0.04491000  1
  O  O70  1  0.93232000  0.72237000  0.06751000  1
  O  O71  1  0.07056000  0.28401000  0.93254000  1
  O  O72  1  0.65486000  0.09801000  0.30479000  1
  O  O73  1  0.34549000  0.90396000  0.69415000  1
  O  O74  1  0.34167000  0.90552000  0.30101000  1
  O  O75  1  0.38925000  0.26143000  0.50379000  1
  O  O76  1  0.65833000  0.09630000  0.70004000  1
  O  O77  1  0.08280000  0.26584000  0.58551000  1
  O  O78  1  0.91720000  0.73414000  0.41448000  1
  O  O79  1  0.32161000  0.71162000  0.50611000  1
  O  O80  1  0.67839000  0.28838000  0.49389000  1
  O  O81  1  0.64460000  0.51352000  0.41121000  1
  O  O82  1  0.35540000  0.48648000  0.58879000  1
  O  O83  1  0.35545000  0.48657000  0.42110000  1
  O  O84  1  0.64455000  0.51343000  0.57890000  1
  O  O85  1  0.79598000  0.43101000  0.84268000  1
