# generated using pymatgen
data_BaP4H26C24SO17
_symmetry_space_group_name_H-M   'P 1'
_cell_length_a   8.24936000
_cell_length_b   14.44554000
_cell_length_c   14.98494000
_cell_angle_alpha   96.60191000
_cell_angle_beta   97.35434000
_cell_angle_gamma   91.77279000
_symmetry_Int_Tables_number   1
_chemical_formula_structural   BaP4H26C24SO17
_chemical_formula_sum   'Ba2 P8 H52 C48 S2 O34'
_cell_volume   1757.37860546
_cell_formula_units_Z   2
loop_
 _symmetry_equiv_pos_site_id
 _symmetry_equiv_pos_as_xyz
  1  'x, y, z'
loop_
 _atom_site_type_symbol
 _atom_site_label
 _atom_site_symmetry_multiplicity
 _atom_site_fract_x
 _atom_site_fract_y
 _atom_site_fract_z
 _atom_site_occupancy
  Ba  Ba0  1  0.83340000  0.54331000  0.45352000  1
  Ba  Ba1  1  0.35642000  0.45677000  0.54648000  1
  P  P2  1  0.01860000  0.41679000  0.29597000  1
  P  P3  1  0.63566000  0.71653000  0.56090000  1
  P  P4  1  0.03572000  0.78365000  0.36987000  1
  P  P5  1  0.17109000  0.58329000  0.70403000  1
  P  P6  1  0.15021000  0.21344000  0.62677000  1
  P  P7  1  0.56211000  0.60565000  0.21029000  1
  P  P8  1  0.55821000  0.27012000  0.43035000  1
  P  P9  1  0.64012000  0.38724000  0.78929000  1
  H  H10  1  0.50323000  0.79527000  0.25804000  1
  H  H11  1  0.68803000  0.89853000  0.19713000  1
  H  H12  1  0.82588000  0.90898000  0.75985000  1
  H  H13  1  0.89456000  0.84615000  0.85357000  1
  H  H14  1  0.68231000  0.86526000  0.82769000  1
  H  H15  1  0.40117000  0.75441000  0.14470000  1
  H  H16  1  0.48513000  0.91441000  0.14065000  1
  H  H17  1  0.33720000  0.34286000  0.30385000  1
  H  H18  1  0.53710000  0.39355000  0.29323000  1
  H  H19  1  0.33339000  0.24586000  0.15617000  1
  H  H20  1  0.36996000  0.36644000  0.14202000  1
  H  H21  1  0.15627000  0.87439000  0.58561000  1
  H  H22  1  0.53747000  0.29003000  0.14692000  1
  H  H23  1  0.62376000  0.84523000  0.08229000  1
  H  H24  1  0.10008000  0.83036000  0.10279000  1
  H  H25  1  0.23817000  0.32229000  0.79572000  1
  H  H26  1  0.03345000  0.26871000  0.78719000  1
  H  H27  1  0.33866000  0.21925000  0.90977000  1
  H  H28  1  0.17148000  0.28614000  0.94478000  1
  H  H29  1  0.13635000  0.16429000  0.90092000  1
  H  H30  1  0.76221000  0.23643000  0.72577000  1
  H  H31  1  0.56569000  0.17537000  0.70557000  1
  H  H32  1  0.07389000  0.86399000  0.68813000  1
  H  H33  1  0.78997000  0.08133000  0.77221000  1
  H  H34  1  0.63323000  0.10008000  0.84583000  1
  H  H35  1  0.97477000  0.67063000  0.19883000  1
  H  H36  1  0.82564000  0.16715000  0.87111000  1
  H  H37  1  0.83908000  0.36942000  0.12376000  1
  H  H38  1  0.72749000  0.35553000  0.96790000  1
  H  H39  1  0.47557000  0.63338000  0.03491000  1
  H  H40  1  0.31318000  0.53263000  0.30343000  1
  H  H41  1  0.91181000  0.44311000  0.69784000  1
  H  H42  1  0.32295000  0.68919000  0.44542000  1
  H  H43  1  0.86294000  0.28705000  0.37130000  1
  H  H44  1  0.19011000  0.96530000  0.40355000  1
  H  H45  1  0.98697000  0.02604000  0.61347000  1
  H  H46  1  0.17716000  0.72835000  0.22189000  1
  H  H47  1  0.86775000  0.29251000  0.53519000  1
  H  H48  1  0.79292000  0.89641000  0.57879000  1
  H  H49  1  0.06938000  0.70869000  0.05794000  1
  H  H50  1  0.89605000  0.77573000  0.08109000  1
  H  H51  1  0.31712000  0.72572000  0.61369000  1
  H  H52  1  0.09839000  0.71271000  0.58523000  1
  H  H53  1  0.51461000  0.99351000  0.70774000  1
  H  H54  1  0.07292000  0.25408000  0.39626000  1
  H  H55  1  0.61657000  0.56036000  0.68639000  1
  H  H56  1  0.15824000  0.81813000  0.87944000  1
  H  H57  1  0.24204000  0.98787000  0.20782000  1
  H  H58  1  0.80720000  0.15220000  0.25344000  1
  H  H59  1  0.88084000  0.11235000  0.36168000  1
  H  H60  1  0.00988000  0.11581000  0.27439000  1
  H  H61  1  0.88281000  0.74778000  0.69869000  1
  C  C62  1  0.58320000  0.86443000  0.14956000  1
  C  C63  1  0.91841000  0.44038000  0.92469000  1
  C  C64  1  0.04915000  0.45974000  0.11219000  1
  C  C65  1  0.04530000  0.73777000  0.20022000  1
  C  C66  1  0.90445000  0.40602000  0.07953000  1
  C  C67  1  0.83938000  0.39764000  0.98816000  1
  C  C68  1  0.11338000  0.47311000  0.20637000  1
  C  C69  1  0.26155000  0.52459000  0.23274000  1
  C  C70  1  0.08325000  0.52668000  0.79703000  1
  C  C71  1  0.14198000  0.54429000  0.89264000  1
  C  C72  1  0.06622000  0.49372000  0.95461000  1
  C  C73  1  0.52021000  0.77771000  0.18563000  1
  C  C74  1  0.27439000  0.60788000  0.93054000  1
  C  C75  1  0.36161000  0.59382000  0.01379000  1
  C  C76  1  0.28515000  0.54972000  0.07679000  1
  C  C77  1  0.02648000  0.76508000  0.10458000  1
  C  C78  1  0.13262000  0.50168000  0.04818000  1
  C  C79  1  0.35115000  0.55903000  0.16908000  1
  C  C80  1  0.95241000  0.46081000  0.76957000  1
  C  C81  1  0.70748000  0.93558000  0.53909000  1
  C  C82  1  0.51251000  0.79609000  0.49319000  1
  C  C83  1  0.35780000  0.76253000  0.44946000  1
  C  C84  1  0.45438000  0.33013000  0.27692000  1
  C  C85  1  0.24172000  0.82469000  0.41986000  1
  C  C86  1  0.28303000  0.91843000  0.42588000  1
  C  C87  1  0.44522000  0.95099000  0.45226000  1
  C  C88  1  0.55715000  0.89337000  0.49587000  1
  C  C89  1  0.19939000  0.74193000  0.63773000  1
  C  C90  1  0.64253000  0.08450000  0.47949000  1
  C  C91  1  0.74957000  0.02993000  0.53291000  1
  C  C92  1  0.68645000  0.18236000  0.48287000  1
  C  C93  1  0.83501000  0.21897000  0.53235000  1
  C  C94  1  0.94622000  0.16248000  0.57487000  1
  C  C95  1  0.42149000  0.30689000  0.17426000  1
  C  C96  1  0.90207000  0.06872000  0.57709000  1
  C  C97  1  0.49681000  0.03787000  0.42968000  1
  C  C98  1  0.18071000  0.84775000  0.65218000  1
  C  C99  1  0.96585000  0.25250000  0.34297000  1
  C  C100  1  0.91267000  0.15196000  0.30691000  1
  C  C101  1  0.77265000  0.75968000  0.73258000  1
  C  C102  1  0.79586000  0.85017000  0.79737000  1
  C  C103  1  0.32943000  0.89885000  0.70540000  1
  C  C104  1  0.28080000  0.70696000  0.91249000  1
  C  C105  1  0.16618000  0.25679000  0.79935000  1
  C  C106  1  0.20566000  0.22983000  0.89465000  1
  C  C107  1  0.66171000  0.20853000  0.75948000  1
  C  C108  1  0.73188000  0.13450000  0.81573000  1
  C  C109  1  0.85548000  0.42994000  0.83187000  1
  S  S110  1  0.73306000  0.66468000  0.79081000  1
  S  S111  1  0.41415000  0.05871000  0.31773000  1
  O  O112  1  0.84123000  0.44416000  0.28043000  1
  O  O113  1  0.28357000  0.16951000  0.57390000  1
  O  O114  1  0.20793000  0.18459000  0.73647000  1
  O  O115  1  0.11286000  0.44735000  0.39371000  1
  O  O116  1  0.56061000  0.61373000  0.54077000  1
  O  O117  1  0.38746000  0.27029000  0.46721000  1
  O  O118  1  0.52775000  0.25372000  0.31193000  1
  O  O119  1  0.51616000  0.45119000  0.83212000  1
  O  O120  1  0.59035000  0.27605000  0.81600000  1
  O  O121  1  0.59794000  0.61570000  0.32769000  1
  O  O122  1  0.68018000  0.53364000  0.17526000  1
  O  O123  1  0.63075000  0.76573000  0.67304000  1
  O  O124  1  0.00757000  0.29558000  0.27012000  1
  O  O125  1  0.63546000  0.70916000  0.17642000  1
  O  O126  1  0.80224000  0.72974000  0.53285000  1
  O  O127  1  0.01718000  0.66479000  0.37108000  1
  O  O128  1  0.90319000  0.82891000  0.42202000  1
  O  O129  1  0.37348000  0.88401000  0.78322000  1
  O  O130  1  0.41427000  0.96538000  0.66640000  1
  O  O131  1  0.85703000  0.65771000  0.87160000  1
  O  O132  1  0.56822000  0.67151000  0.82129000  1
  O  O133  1  0.73156000  0.57302000  0.71224000  1
  O  O134  1  0.98422000  0.80779000  0.25825000  1
  O  O135  1  0.40594000  0.75597000  0.93657000  1
  O  O136  1  0.13813000  0.74904000  0.88228000  1
  O  O137  1  0.29687000  0.13559000  0.32303000  1
  O  O138  1  0.54926000  0.08191000  0.26512000  1
  O  O139  1  0.31045000  0.96410000  0.25877000  1
  O  O140  1  0.34848000  0.55587000  0.71962000  1
  O  O141  1  0.07683000  0.55273000  0.60630000  1
  O  O142  1  0.59176000  0.38438000  0.67232000  1
  O  O143  1  0.19304000  0.70546000  0.71991000  1
  O  O144  1  0.62909000  0.38635000  0.45924000  1
  O  O145  1  0.17252000  0.33529000  0.62892000  1
