# generated using pymatgen
data_H19C36(N3O)2
_symmetry_space_group_name_H-M   'P 1'
_cell_length_a   9.98463333
_cell_length_b   58.30375000
_cell_length_c   58.30380000
_cell_angle_alpha   120.00008511
_cell_angle_beta   89.95740000
_cell_angle_gamma   90.00000007
_symmetry_Int_Tables_number   1
_chemical_formula_structural   H19C36(N3O)2
_chemical_formula_sum   'H114 C216 N36 O12'
_cell_volume   29393.78884391
_cell_formula_units_Z   6
loop_
 _symmetry_equiv_pos_site_id
 _symmetry_equiv_pos_as_xyz
  1  'x, y, z'
loop_
 _atom_site_type_symbol
 _atom_site_label
 _atom_site_symmetry_multiplicity
 _atom_site_fract_x
 _atom_site_fract_y
 _atom_site_fract_z
 _atom_site_occupancy
  C  1  1  0.02822300  0.99579367  0.58507933  1
  C  2  1  0.03040600  0.99720967  0.48692267  1
  C  10  1  0.02635900  0.98681833  0.60326533  1
  C  13  1  0.02797700  0.98886933  0.45989833  1
  C  28  1  0.02816800  0.95946833  0.58930700  1
  C  29  1  0.02611400  0.96152033  0.44594167  1
  C  34  1  0.03048600  0.95112667  0.56228133  1
  C  35  1  0.02817600  0.95254433  0.46412600  1
  C  46  1  0.03164100  0.92427067  0.54149933  1
  C  47  1  0.03153800  0.91588867  0.51405900  1
  C  49  1  0.02912900  0.91644833  0.47593200  1
  C  50  1  0.02926700  0.89001567  0.46980600  1
  C  51  1  0.03085100  0.88967133  0.49329233  1
  C  52  1  0.02709500  0.92549633  0.45739600  1
  C  53  1  0.03152800  0.02406567  0.50770233  1
  C  54  1  0.03153400  0.03244833  0.53514133  1
  C  56  1  0.02914800  0.03188833  0.57327033  1
  C  57  1  0.02919800  0.05832167  0.57939367  1
  C  58  1  0.03076200  0.05866600  0.55590733  1
  C  59  1  0.02708500  0.02284133  0.59180767  1
  C  60  1  0.02047500  0.04248967  0.61911933  1
  C  61  1  0.89539100  0.05300333  0.63111533  1
  C  62  1  0.88880000  0.07399733  0.65744333  1
  C  63  1  0.00706500  0.08489067  0.67238300  1
  C  64  1  0.13177500  0.07423900  0.66030800  1
  C  65  1  0.13871800  0.05320733  0.63397800  1
  C  66  1  0.03092100  0.04420367  0.50066467  1
  C  67  1  0.90867300  0.05394467  0.49674100  1
  C  68  1  0.90791100  0.07504733  0.49151433  1
  C  69  1  0.02875900  0.08676033  0.48994833  1
  C  70  1  0.15107600  0.07691067  0.49386967  1
  C  71  1  0.15219800  0.05583500  0.49912933  1
  C  72  1  0.02041500  0.90585400  0.43008567  1
  C  73  1  0.13862700  0.89523333  0.41513567  1
  C  74  1  0.13165600  0.87426800  0.38877600  1
  C  75  1  0.00695500  0.86363533  0.37673900  1
  C  76  1  0.88874000  0.87441533  0.39178433  1
  C  77  1  0.89534100  0.89532867  0.41814733  1
  C  78  1  0.03111200  0.90412733  0.54853033  1
  C  79  1  0.15238800  0.89244833  0.54997433  1
  C  80  1  0.90886600  0.89437367  0.55245467  1
  C  81  1  0.90812100  0.87320367  0.55757967  1
  C  82  1  0.02897900  0.86143833  0.55904800  1
  C  83  1  0.15128700  0.87131067  0.55514233  1
  C  109  1  0.02970900  0.55427233  0.03856467  1
  C  110  1  0.02793700  0.54087667  0.01121467  1
  C  111  1  0.02991100  0.51371667  0.00224333  1
  C  113  1  0.03211300  0.53559267  0.04691067  1
  C  114  1  0.03325400  0.54167067  0.07376700  1
  C  115  1  0.03313900  0.52261500  0.08215200  1
  C  117  1  0.03066600  0.48393067  0.08159933  1
  C  118  1  0.03087100  0.50424033  0.10803133  1
  C  119  1  0.03241400  0.52806933  0.10837167  1
  C  120  1  0.02854300  0.45634867  0.07255567  1
  C  121  1  0.02965900  0.43602733  0.04550833  1
  C  123  1  0.03201300  0.41415200  0.00084200  1
  C  124  1  0.02943000  0.39547233  0.00918767  1
  C  125  1  0.02752100  0.40886800  0.03653667  1
  C  126  1  0.03327700  0.40807200  0.97398533  1
  C  127  1  0.03332400  0.42712500  0.96559933  1
  C  129  1  0.03093100  0.46581133  0.96615333  1
  C  130  1  0.03106300  0.44549833  0.93972067  1
  C  131  1  0.03264400  0.42166900  0.93938000  1
  C  132  1  0.02888600  0.49339433  0.97519733  1
  C  133  1  0.02219600  0.50104967  0.95554433  1
  C  134  1  0.89707500  0.50252100  0.94506633  1
  C  135  1  0.89044400  0.50782133  0.92405300  1
  C  136  1  0.00866600  0.51191033  0.91314867  1
  C  137  1  0.13339700  0.51050233  0.92376933  1
  C  138  1  0.14040800  0.50522333  0.94481233  1
  C  139  1  0.03260400  0.38089533  0.95385200  1
  C  140  1  0.91030500  0.36724567  0.94415367  1
  C  141  1  0.90945200  0.34091567  0.92305467  1
  C  142  1  0.03025600  0.32761067  0.91131500  1
  C  143  1  0.15260900  0.34137167  0.92111133  1
  C  144  1  0.15382600  0.36770900  0.94218233  1
  C  145  1  0.02188300  0.44868333  0.09220267  1
  C  146  1  0.14009900  0.44433167  0.10277500  1
  C  147  1  0.13314900  0.43893933  0.12374367  1
  C  148  1  0.00847100  0.43757833  0.13444067  1
  C  149  1  0.89024300  0.44184633  0.12369500  1
  C  150  1  0.89682300  0.44728433  0.10277200  1
  C  151  1  0.03265500  0.56884500  0.09390733  1
  C  152  1  0.15389900  0.58198333  0.10555933  1
  C  153  1  0.91037400  0.58251000  0.10368500  1
  C  154  1  0.90955200  0.60880400  0.12485600  1
  C  155  1  0.03036000  0.62204500  0.13661500  1
  C  156  1  0.15270800  0.60827633  0.12672167  1
  C  187  1  0.03080100  0.40873333  0.44377767  1
  C  188  1  0.02881700  0.39478000  0.45717433  1
  C  189  1  0.03082100  0.41296800  0.48433367  1
  C  191  1  0.03332500  0.43575800  0.46245700  1
  C  192  1  0.03462700  0.45653600  0.45637733  1
  C  193  1  0.03450500  0.48397700  0.47543300  1
  C  195  1  0.03182300  0.52210800  0.51411700  1
  C  196  1  0.03200300  0.52823000  0.49380700  1
  C  197  1  0.03373000  0.50474233  0.46997867  1
  C  198  1  0.02958000  0.54064733  0.54170033  1
  C  199  1  0.03071000  0.53392300  0.56202200  1
  C  201  1  0.03312600  0.51113233  0.58389700  1
  C  202  1  0.03052200  0.53815767  0.60257667  1
  C  203  1  0.02854600  0.55211067  0.58918167  1
  C  204  1  0.03438500  0.49035567  0.58997667  1
  C  205  1  0.03427700  0.46291600  0.57092333  1
  C  207  1  0.03175200  0.42478467  0.53223967  1
  C  208  1  0.03190100  0.41866500  0.55255200  1
  C  209  1  0.03355400  0.44215267  0.57637967  1
  C  210  1  0.02961400  0.40624533  0.50465700  1
  C  211  1  0.02264800  0.37893933  0.49700267  1
  C  212  1  0.89738300  0.36705233  0.49560100  1
  C  213  1  0.89040400  0.34073567  0.49028567  1
  C  214  1  0.00845200  0.32569667  0.48617667  1
  C  215  1  0.13332900  0.33766500  0.48751800  1
  C  216  1  0.14066900  0.36397967  0.49278267  1
  C  217  1  0.03377100  0.49739867  0.61715367  1
  C  218  1  0.91149700  0.50134333  0.63084033  1
  C  219  1  0.91070600  0.50659433  0.65717733  1
  C  220  1  0.03154200  0.50814233  0.67043633  1
  C  221  1  0.15387500  0.50419167  0.65664067  1
  C  222  1  0.15503200  0.49892933  0.63030233  1
  C  223  1  0.02256400  0.56795533  0.54936533  1
  C  224  1  0.14055900  0.58293600  0.55367900  1
  C  225  1  0.13321400  0.60929900  0.55908900  1
  C  226  1  0.00835100  0.62129067  0.56046800  1
  C  227  1  0.89033400  0.60622000  0.55623100  1
  C  228  1  0.89732500  0.57985500  0.55076733  1
  C  229  1  0.03405600  0.44950333  0.42920333  1
  C  230  1  0.15530800  0.44803400  0.41604333  1
  C  231  1  0.91178700  0.44560600  0.41556267  1
  C  232  1  0.91098700  0.44050433  0.38927567  1
  C  233  1  0.03181200  0.43901800  0.37600700  1
  C  234  1  0.15414600  0.44289333  0.38974700  1
  C  265  1  0.07121300  0.68909900  0.19200233  1
  C  266  1  0.17301100  0.70615000  0.20864667  1
  C  268  1  0.01375000  0.73730067  0.23866300  1
  C  269  1  0.90594900  0.72135367  0.22282567  1
  C  270  1  0.93686000  0.69728900  0.19951100  1
  C  272  1  0.98820300  0.76127667  0.26231767  1
  C  273  1  0.07321700  0.79943400  0.30080833  1
  C  274  1  0.94277500  0.80895000  0.31029000  1
  C  275  1  0.83386800  0.79364300  0.29450767  1
  C  278  1  0.85435800  0.76966800  0.27045300  1
  C  279  1  0.74724200  0.75384600  0.25452933  1
  C  280  1  0.77281300  0.72989400  0.23092367  1
  C  285  1  0.10536600  0.66532700  0.16951100  1
  C  286  1  0.91913700  0.83207933  0.33419967  1
  C  289  1  0.07270000  0.42734733  0.30894033  1
  C  290  1  0.17450300  0.42693433  0.29186067  1
  C  292  1  0.01524200  0.42580333  0.26075267  1
  C  293  1  0.90744000  0.42591800  0.27672933  1
  C  294  1  0.93834800  0.42666867  0.30078700  1
  C  296  1  0.98969600  0.42548500  0.23678467  1
  C  297  1  0.07471400  0.42582167  0.19860833  1
  C  298  1  0.94427200  0.42579533  0.18912867  1
  C  299  1  0.83536000  0.42532067  0.20446367  1
  C  302  1  0.85585100  0.42523433  0.22842967  1
  C  303  1  0.74873500  0.42513700  0.24428133  1
  C  304  1  0.77430600  0.42548033  0.26822533  1
  C  309  1  0.10685600  0.42864100  0.33270967  1
  C  310  1  0.92063600  0.42658633  0.16601100  1
  C  313  1  0.07020100  0.80606833  0.57073133  1
  C  314  1  0.17219900  0.78944433  0.57113433  1
  C  316  1  0.01329300  0.75938233  0.57224533  1
  C  317  1  0.90529900  0.77519633  0.57213800  1
  C  318  1  0.93593400  0.79852567  0.57140167  1
  C  320  1  0.98803400  0.73571600  0.57255533  1
  C  321  1  0.07353100  0.69724200  0.57221200  1
  C  322  1  0.94320600  0.68772300  0.57223667  1
  C  323  1  0.83409700  0.70348033  0.57271333  1
  C  326  1  0.85428900  0.72754500  0.57280300  1
  C  327  1  0.74697800  0.74344600  0.57290667  1
  C  328  1  0.77226400  0.76706300  0.57257167  1
  C  333  1  0.10409900  0.82857533  0.56946967  1
  C  334  1  0.91987900  0.66380400  0.57144967  1
  C  337  1  0.07111200  0.26035767  0.85626233  1
  C  338  1  0.17294200  0.24319833  0.83969533  1
  C  340  1  0.01373400  0.21192433  0.80988833  1
  C  341  1  0.90590200  0.22798033  0.82565467  1
  C  342  1  0.93677300  0.25216133  0.84882700  1
  C  344  1  0.98823300  0.18782333  0.78637600  1
  C  345  1  0.07332600  0.14943133  0.74808533  1
  C  346  1  0.94290400  0.13989100  0.73868100  1
  C  347  1  0.83395900  0.15530967  0.75440033  1
  C  350  1  0.85439900  0.17941433  0.77831567  1
  C  351  1  0.74725300  0.19534833  0.79416967  1
  C  352  1  0.77278200  0.21942467  0.81763333  1
  C  357  1  0.10523600  0.28422633  0.87862167  1
  C  358  1  0.91931900  0.11663667  0.71489600  1
  C  361  1  0.07252000  0.52035900  0.73768200  1
  C  362  1  0.17436300  0.52094167  0.75480833  1
  C  364  1  0.01517700  0.52241333  0.78612967  1
  C  365  1  0.90733000  0.52213400  0.77010700  1
  C  366  1  0.93818700  0.52112867  0.74591933  1
  C  368  1  0.98968600  0.52299533  0.81023433  1
  C  369  1  0.07480400  0.52307167  0.84859000  1
  C  370  1  0.94438700  0.52321033  0.85816733  1
  C  371  1  0.83543400  0.52352433  0.84278533  1
  C  374  1  0.85586100  0.52334600  0.81868033  1
  C  375  1  0.74870600  0.52327800  0.80278133  1
  C  376  1  0.77421700  0.52267200  0.77870100  1
  C  381  1  0.10662300  0.51884800  0.71380300  1
  C  382  1  0.92081100  0.52265567  0.88141633  1
  C  385  1  0.07008100  0.14173433  0.47764867  1
  C  386  1  0.17210800  0.15823567  0.47702200  1
  C  388  1  0.01325500  0.18815467  0.47562933  1
  C  389  1  0.90523700  0.17245633  0.47595333  1
  C  390  1  0.93582900  0.14925867  0.47694200  1
  C  392  1  0.98803900  0.21169233  0.47506667  1
  C  393  1  0.07360900  0.24994167  0.47496633  1
  C  394  1  0.94330400  0.25944133  0.47489233  1
  C  395  1  0.83416700  0.24378967  0.47461967  1
  C  398  1  0.85430800  0.21984800  0.47477833  1
  C  399  1  0.74697300  0.20406033  0.47488867  1
  C  400  1  0.77221300  0.18057233  0.47547667  1
  C  405  1  0.10395200  0.11935500  0.47914733  1
  C  406  1  0.92001800  0.28326167  0.47547067  1
  H  3  1  0.02411100  0.99806033  0.62346000  1
  H  14  1  0.03297500  0.97387800  0.54453533  1
  H  15  1  0.03318600  0.97445767  0.50466733  1
  H  36  1  0.02715100  0.94782433  0.59782467  1
  H  37  1  0.02366500  0.95028033  0.42574833  1
  H  84  1  0.24041300  0.86276167  0.55526900  1
  H  85  1  0.24198600  0.89883733  0.54665867  1
  H  86  1  0.81809100  0.86618067  0.55988067  1
  H  87  1  0.81963000  0.90222833  0.55104433  1
  H  88  1  0.03052200  0.87286000  0.49465000  1
  H  89  1  0.02821700  0.87349133  0.45142133  1
  H  90  1  0.23047300  0.90218600  0.42355600  1
  H  91  1  0.21886000  0.86649967  0.37853867  1
  H  92  1  0.80855300  0.90231800  0.42879000  1
  H  93  1  0.79705000  0.86662600  0.38401933  1
  H  94  1  0.02663000  0.00051300  0.45138167  1
  H  95  1  0.02801700  0.07484667  0.59777800  1
  H  96  1  0.03030100  0.07547600  0.55454767  1
  H  97  1  0.81945400  0.04610333  0.49818600  1
  H  98  1  0.81788200  0.08202967  0.48916400  1
  H  99  1  0.24181400  0.04943533  0.50241267  1
  H  100  1  0.24022300  0.08538767  0.49361733  1
  H  101  1  0.23056700  0.04625233  0.62551800  1
  H  102  1  0.21899100  0.08208433  0.67046900  1
  H  103  1  0.79711000  0.08181700  0.66522400  1
  H  104  1  0.80857300  0.04598367  0.62052233  1
  H  157  1  0.24182000  0.61697067  0.13523300  1
  H  158  1  0.24352300  0.57228600  0.09916067  1
  H  159  1  0.81949400  0.61812100  0.13189133  1
  H  160  1  0.82116600  0.57323700  0.09584400  1
  H  161  1  0.02861300  0.57443433  0.05020667  1
  H  162  1  0.02566200  0.54982667  0.99996967  1
  H  163  1  0.03482600  0.49509467  0.02416233  1
  H  164  1  0.03490300  0.45464900  0.02358900  1
  H  165  1  0.03227300  0.54623867  0.12518100  1
  H  166  1  0.02985400  0.50238233  0.12455633  1
  H  167  1  0.23194000  0.44578300  0.09578567  1
  H  168  1  0.22035300  0.43646333  0.13148333  1
  H  169  1  0.81003900  0.45097333  0.09583133  1
  H  170  1  0.79858200  0.44190633  0.13153400  1
  H  171  1  0.02502200  0.39991667  0.04778000  1
  H  172  1  0.02815200  0.37531167  0.99754733  1
  H  173  1  0.03000500  0.44735433  0.92319400  1
  H  174  1  0.03226900  0.40349833  0.92257200  1
  H  175  1  0.82110700  0.37655233  0.95200500  1
  H  176  1  0.81938300  0.33160167  0.91609133  1
  H  177  1  0.24347700  0.37738200  0.94854633  1
  H  178  1  0.24172500  0.33262967  0.91260333  1
  H  179  1  0.23226600  0.50372833  0.95174467  1
  H  180  1  0.22058800  0.51285833  0.91592233  1
  H  181  1  0.79872800  0.50780433  0.91627767  1
  H  182  1  0.81030000  0.49892433  0.95210167  1
  H  235  1  0.24326700  0.44270900  0.38103267  1
  H  236  1  0.24492600  0.45131700  0.42571700  1
  H  237  1  0.82094200  0.43820800  0.37997400  1
  H  238  1  0.82257100  0.44704000  0.42485700  1
  H  239  1  0.02971000  0.40021300  0.42361600  1
  H  240  1  0.02640400  0.37458633  0.44822533  1
  H  241  1  0.03600400  0.45350867  0.50295467  1
  H  242  1  0.03604400  0.49338167  0.54339967  1
  H  243  1  0.03350500  0.50338200  0.45180933  1
  H  244  1  0.03088100  0.54661333  0.49566533  1
  H  245  1  0.23252100  0.57455500  0.55224967  1
  H  246  1  0.22027100  0.61956200  0.56155733  1
  H  247  1  0.81068600  0.56918567  0.54710867  1
  H  248  1  0.79855300  0.61394200  0.55616300  1
  H  249  1  0.02601300  0.57230467  0.59813367  1
  H  250  1  0.02922400  0.54667833  0.62273833  1
  H  251  1  0.03084000  0.40028267  0.55069567  1
  H  252  1  0.03333600  0.44351567  0.59455067  1
  H  253  1  0.82228700  0.49991300  0.62157133  1
  H  254  1  0.82066600  0.50894867  0.66652267  1
  H  255  1  0.24465800  0.49560800  0.62059700  1
  H  256  1  0.24300700  0.50441733  0.66534933  1
  H  257  1  0.23263200  0.37236333  0.49423433  1
  H  258  1  0.22039300  0.32742233  0.48512933  1
  H  259  1  0.79859300  0.33303100  0.49036533  1
  H  260  1  0.81072100  0.37771733  0.49921933  1
  H  271  1  0.86044900  0.68553000  0.18788133  1
  H  276  1  0.27208600  0.70144267  0.20445233  1
  H  281  1  0.73800800  0.79987900  0.30082867  1
  H  282  1  0.15638500  0.80953167  0.31112667  1
  H  287  1  0.19917000  0.66276533  0.16293467  1
  H  288  1  0.82858800  0.84024633  0.33754333  1
  H  295  1  0.86193900  0.42680500  0.31256733  1
  H  300  1  0.27357600  0.42744700  0.29654400  1
  H  305  1  0.73950200  0.42541200  0.19825500  1
  H  306  1  0.15788200  0.42604167  0.18848900  1
  H  311  1  0.20063200  0.42460600  0.33524200  1
  H  312  1  0.83008700  0.42176333  0.15786667  1
  H  319  1  0.85939100  0.81013967  0.57127500  1
  H  324  1  0.27122200  0.79366467  0.57062733  1
  H  329  1  0.73832000  0.69713400  0.57262200  1
  H  330  1  0.15682900  0.68694433  0.57199333  1
  H  335  1  0.19774900  0.83520667  0.57355000  1
  H  336  1  0.82932000  0.66042167  0.57623667  1
  H  343  1  0.86033800  0.26399767  0.86040633  1
  H  348  1  0.27201300  0.24790400  0.84384433  1
  H  353  1  0.73811000  0.14905900  0.74813067  1
  H  354  1  0.15651400  0.13925700  0.73780500  1
  H  359  1  0.19895100  0.28679733  0.88521567  1
  H  360  1  0.82880900  0.10847867  0.71164967  1
  H  367  1  0.86174900  0.52087833  0.73410733  1
  H  372  1  0.27343000  0.52038033  0.75007367  1
  H  377  1  0.73959200  0.52350433  0.84906133  1
  H  378  1  0.15799700  0.52295567  0.85873600  1
  H  383  1  0.20037400  0.52283667  0.71118967  1
  H  384  1  0.83029200  0.52755800  0.88959667  1
  H  391  1  0.85926600  0.13772867  0.47722567  1
  H  396  1  0.27113000  0.15402100  0.47754033  1
  H  401  1  0.73839800  0.25013033  0.47468700  1
  H  402  1  0.15692400  0.26016967  0.47505167  1
  H  407  1  0.19757300  0.11268567  0.47506400  1
  H  408  1  0.82953000  0.28658767  0.47062167  1
  N  11  1  0.03101600  0.97364167  0.56087367  1
  N  12  1  0.03108200  0.97469433  0.48832933  1
  N  48  1  0.03066600  0.93115000  0.50264867  1
  N  55  1  0.03069000  0.01718667  0.54655300  1
  N  105  1  0.01929200  0.10748900  0.48630333  1
  N  106  1  0.00870700  0.84265667  0.35242567  1
  N  107  1  0.01947200  0.84058233  0.56248700  1
  N  108  1  0.00879800  0.10597300  0.69662933  1
  N  112  1  0.03273400  0.51166767  0.02439567  1
  N  116  1  0.03220200  0.49594267  0.06689433  1
  N  122  1  0.03266400  0.43807733  0.02335667  1
  N  128  1  0.03243300  0.45379867  0.98085767  1
  N  183  1  0.02064600  0.30324933  0.89057333  1
  N  184  1  0.01021300  0.43423733  0.15541400  1
  N  185  1  0.02077000  0.64634467  0.15746167  1
  N  186  1  0.01035000  0.51507733  0.89206700  1
  N  190  1  0.03385500  0.43716900  0.48638133  1
  N  194  1  0.03347400  0.49539167  0.50210567  1
  N  200  1  0.03378100  0.50972133  0.55997233  1
  N  206  1  0.03335300  0.45150133  0.54425067  1
  N  261  1  0.02199900  0.51178267  0.69480867  1
  N  262  1  0.00972900  0.64561000  0.56381567  1
  N  263  1  0.02224700  0.43556900  0.35171067  1
  N  264  1  0.00979900  0.30144467  0.48299967  1
  N  267  1  0.14157200  0.72907800  0.23092200  1
  N  277  1  0.09096200  0.77643600  0.27770400  1
  N  291  1  0.14306400  0.42628067  0.26894100  1
  N  301  1  0.09245600  0.42571000  0.22159900  1
  N  315  1  0.14102500  0.76715667  0.57177400  1
  N  325  1  0.09098300  0.72035500  0.57232833  1
  N  339  1  0.14154700  0.22015900  0.81755633  1
  N  349  1  0.09102300  0.17255433  0.77105633  1
  N  363  1  0.14298200  0.52184067  0.77785600  1
  N  373  1  0.09248700  0.52293033  0.82546767  1
  N  387  1  0.14097100  0.18039933  0.47614200  1
  N  397  1  0.09101900  0.22694733  0.47509067  1
  O  283  1  0.61830600  0.76123233  0.26167733  1
  O  284  1  0.66741100  0.71522200  0.21634200  1
  O  307  1  0.61979700  0.42490367  0.23692967  1
  O  308  1  0.66890300  0.42557533  0.28292600  1
  O  331  1  0.61813000  0.73626400  0.57313867  1
  O  332  1  0.66668800  0.78162200  0.57248467  1
  O  355  1  0.61833000  0.18794967  0.78709033  1
  O  356  1  0.66735100  0.23419867  0.83215200  1
  O  379  1  0.61978800  0.52359967  0.81021667  1
  O  380  1  0.66878200  0.52242633  0.76396133  1
  O  403  1  0.61813500  0.21123167  0.47462767  1
  O  404  1  0.66660900  0.16612133  0.47576533  1
