# generated using pymatgen
data_CuH7C13NO4
_symmetry_space_group_name_H-M   'P 1'
_cell_length_a   10.58727000
_cell_length_b   10.90127000
_cell_length_c   14.80106000
_cell_angle_alpha   89.91099000
_cell_angle_beta   71.49424000
_cell_angle_gamma   89.96237000
_symmetry_Int_Tables_number   1
_chemical_formula_structural   CuH7C13NO4
_chemical_formula_sum   'Cu4 H28 C52 N4 O16'
_cell_volume   1619.92663649
_cell_formula_units_Z   4
loop_
 _symmetry_equiv_pos_site_id
 _symmetry_equiv_pos_as_xyz
  1  'x, y, z'
loop_
 _atom_site_type_symbol
 _atom_site_label
 _atom_site_symmetry_multiplicity
 _atom_site_fract_x
 _atom_site_fract_y
 _atom_site_fract_z
 _atom_site_occupancy
  Cu  Cu1  1  0.90679000  0.91590000  0.01062000  1.0
  Cu  Cu2  1  0.09251000  0.41542000  0.48961000  1.0
  Cu  Cu3  1  0.09321000  0.08411000  0.98938000  1.0
  Cu  Cu4  1  0.90749000  0.58458000  0.51039000  1.0
  H  H1  1  0.96351000  0.27522000  0.77113000  1.0
  H  H2  1  0.43529000  0.53790000  0.93264000  1.0
  H  H3  1  0.60222000  0.45449000  0.77114000  1.0
  H  H4  1  0.59595000  0.18684000  0.98862000  1.0
  H  H5  1  0.05394000  0.35590000  0.03967000  1.0
  H  H6  1  0.39228000  0.14403000  0.93486000  1.0
  H  H7  1  0.18720000  0.55178000  0.00850000  1.0
  H  H8  1  0.03670000  0.77575000  0.72882000  1.0
  H  H9  1  0.56465000  0.03792000  0.56741000  1.0
  H  H10  1  0.39807000  0.95418000  0.72870000  1.0
  H  H11  1  0.40409000  0.68716000  0.51140000  1.0
  H  H12  1  0.94612000  0.85596000  0.46026000  1.0
  H  H13  1  0.60789000  0.64406000  0.56506000  1.0
  H  H14  1  0.81280000  0.05194000  0.49148000  1.0
  H  H15  1  0.03649000  0.72478000  0.22887000  1.0
  H  H16  1  0.56471000  0.46210000  0.06736000  1.0
  H  H17  1  0.39778000  0.54551000  0.22886000  1.0
  H  H18  1  0.40405000  0.81317000  0.01138000  1.0
  H  H19  1  0.94606000  0.64410000  0.96033000  1.0
  H  H20  1  0.60772000  0.85598000  0.06514000  1.0
  H  H21  1  0.81280000  0.44822000  0.99150000  1.0
  H  H22  1  0.96330000  0.22425000  0.27118000  1.0
  H  H23  1  0.43536000  0.96208000  0.43259000  1.0
  H  H24  1  0.60193000  0.04582000  0.27130000  1.0
  H  H25  1  0.59591000  0.31285000  0.48860000  1.0
  H  H26  1  0.05388000  0.14404000  0.53974000  1.0
  H  H27  1  0.39211000  0.35594000  0.43494000  1.0
  H  H28  1  0.18720000  0.94806000  0.50852000  1.0
  C  C1  1  0.86098000  0.13866000  0.92958000  1.0
  C  C2  1  0.43495000  0.33958000  0.92875000  1.0
  C  C3  1  0.86439000  0.42799000  0.66826000  1.0
  C  C4  1  0.58089000  0.32400000  0.88604000  1.0
  C  C5  1  0.85709000  0.28919000  0.80377000  1.0
  C  C6  1  0.78686000  0.22455000  0.88579000  1.0
  C  C7  1  0.37424000  0.45536000  0.94822000  1.0
  C  C8  1  0.65278000  0.39045000  0.80448000  1.0
  C  C9  1  0.64896000  0.23944000  0.92542000  1.0
  C  C10  1  0.78952000  0.37029000  0.76195000  1.0
  C  C11  1  0.16186000  0.35540000  0.00814000  1.0
  C  C12  1  0.35144000  0.23629000  0.95002000  1.0
  C  C13  1  0.23636000  0.46332000  0.98978000  1.0
  C  C14  1  0.13874000  0.64058000  0.57002000  1.0
  C  C15  1  0.56523000  0.83958000  0.57117000  1.0
  C  C16  1  0.13731000  0.92813000  0.83171000  1.0
  C  C17  1  0.41938000  0.82393000  0.61388000  1.0
  C  C18  1  0.14314000  0.78967000  0.69623000  1.0
  C  C19  1  0.21319000  0.72549000  0.61405000  1.0
  C  C20  1  0.62580000  0.95543000  0.55176000  1.0
  C  C21  1  0.34765000  0.89028000  0.69533000  1.0
  C  C22  1  0.35117000  0.73977000  0.57453000  1.0
  C  C23  1  0.21099000  0.87020000  0.73804000  1.0
  C  C24  1  0.83821000  0.85552000  0.49175000  1.0
  C  C25  1  0.64873000  0.73633000  0.54988000  1.0
  C  C26  1  0.76368000  0.96345000  0.51018000  1.0
  C  C27  1  0.13902000  0.86134000  0.07043000  1.0
  C  C28  1  0.56505000  0.66043000  0.07125000  1.0
  C  C29  1  0.13561000  0.57201000  0.33174000  1.0
  C  C30  1  0.41911000  0.67601000  0.11396000  1.0
  C  C31  1  0.14291000  0.71082000  0.19623000  1.0
  C  C32  1  0.21315000  0.77545000  0.11422000  1.0
  C  C33  1  0.62576000  0.54464000  0.05178000  1.0
  C  C34  1  0.34722000  0.60955000  0.19552000  1.0
  C  C35  1  0.35104000  0.76056000  0.07459000  1.0
  C  C36  1  0.21048000  0.62971000  0.23805000  1.0
  C  C37  1  0.83814000  0.64461000  0.99186000  1.0
  C  C38  1  0.64856000  0.76371000  0.04998000  1.0
  C  C39  1  0.76364000  0.53668000  0.01022000  1.0
  C  C40  1  0.86126000  0.35942000  0.42998000  1.0
  C  C41  1  0.43477000  0.16042000  0.42883000  1.0
  C  C42  1  0.86269000  0.07187000  0.16829000  1.0
  C  C43  1  0.58062000  0.17607000  0.38612000  1.0
  C  C44  1  0.85686000  0.21033000  0.30377000  1.0
  C  C45  1  0.78681000  0.27451000  0.38595000  1.0
  C  C46  1  0.37420000  0.04458000  0.44824000  1.0
  C  C47  1  0.65235000  0.10972000  0.30467000  1.0
  C  C48  1  0.64883000  0.26023000  0.42547000  1.0
  C  C49  1  0.78901000  0.12980000  0.26196000  1.0
  C  C50  1  0.16179000  0.14448000  0.50825000  1.0
  C  C51  1  0.35127000  0.26367000  0.45012000  1.0
  C  C52  1  0.23633000  0.03655000  0.48982000  1.0
  N  N1  1  0.21831000  0.24368000  0.98733000  1.0
  N  N2  1  0.78183000  0.74378000  0.51251000  1.0
  N  N3  1  0.78169000  0.75633000  0.01267000  1.0
  N  N4  1  0.21817000  0.25622000  0.48749000  1.0
  O  O1  1  0.80540000  0.03615000  0.95926000  1.0
  O  O2  1  0.97369000  0.17656000  0.93226000  1.0
  O  O3  1  0.81164000  0.52025000  0.64098000  1.0
  O  O4  1  0.97440000  0.37623000  0.62275000  1.0
  O  O5  1  0.19396000  0.53815000  0.53997000  1.0
  O  O6  1  0.02615000  0.67916000  0.56754000  1.0
  O  O7  1  0.19296000  0.01794000  0.85930000  1.0
  O  O8  1  0.02570000  0.87896000  0.87697000  1.0
  O  O9  1  0.19460000  0.96385000  0.04074000  1.0
  O  O10  1  0.02631000  0.82344000  0.06774000  1.0
  O  O11  1  0.18836000  0.47975000  0.35902000  1.0
  O  O12  1  0.02561000  0.62377000  0.37725000  1.0
  O  O13  1  0.80604000  0.46186000  0.46003000  1.0
  O  O14  1  0.97385000  0.32084000  0.43246000  1.0
  O  O15  1  0.80704000  0.98206000  0.14070000  1.0
  O  O16  1  0.97430000  0.12105000  0.12303000  1.0
