# generated using pymatgen
data_Zn2P2H29C27(N3O4)2
_symmetry_space_group_name_H-M   'P 1'
_cell_length_a   10.02868000
_cell_length_b   12.46826000
_cell_length_c   16.17710730
_cell_angle_alpha   76.40851052
_cell_angle_beta   74.03123802
_cell_angle_gamma   82.63487000
_symmetry_Int_Tables_number   1
_chemical_formula_structural   Zn2P2H29C27(N3O4)2
_chemical_formula_sum   'Zn4 P4 H58 C54 N12 O16'
_cell_volume   1885.89759893
_cell_formula_units_Z   2
loop_
 _symmetry_equiv_pos_site_id
 _symmetry_equiv_pos_as_xyz
  1  'x, y, z'
loop_
 _atom_site_type_symbol
 _atom_site_label
 _atom_site_symmetry_multiplicity
 _atom_site_fract_x
 _atom_site_fract_y
 _atom_site_fract_z
 _atom_site_occupancy
  Zn  Zn0  1  0.53404000  0.24492000  0.75661000  1
  Zn  Zn1  1  0.39372000  0.18224000  0.08746000  1
  Zn  Zn2  1  0.46596000  0.75508000  0.24339000  1
  Zn  Zn3  1  0.60626000  0.81777000  0.91254000  1
  P  P4  1  0.60048000  0.28179000  0.92332000  1
  P  P5  1  0.49438000  0.01646000  0.84044000  1
  P  P6  1  0.39951000  0.71821000  0.07667000  1
  P  P7  1  0.50556000  0.98353000  0.15956000  1
  H  H8  1  0.64670000  0.39615000  0.99206000  1
  H  H9  1  0.61933000  0.06194000  0.92666000  1
  H  H10  1  0.36022000  0.43514000  0.84318000  1
  H  H11  1  0.98738000  0.54404000  0.84841000  1
  H  H12  1  0.14308000  0.58053000  0.86146000  1
  H  H13  1  0.12731000  0.41607000  0.99280000  1
  H  H14  1  0.96351000  0.39344000  0.98161000  1
  H  H15  1  0.28623000  0.13678000  0.70633000  1
  H  H16  1  0.04829000  0.11866000  0.69029000  1
  H  H17  1  0.85152000  0.24951000  0.73933000  1
  H  H18  1  0.88174000  0.40329000  0.80417000  1
  H  H19  1  0.24203000  0.17401000  0.96005000  1
  H  H20  1  0.04253000  0.17419000  0.90151000  1
  H  H21  1  0.87131000  0.21099000  0.96020000  1
  H  H22  1  0.84617000  0.02208000  0.04925000  1
  H  H23  1  0.90256000  0.01823000  0.93764000  1
  H  H24  1  0.73699000  0.17853000  0.12983000  1
  H  H25  1  0.67675000  0.20363000  0.28374000  1
  H  H26  1  0.85584000  0.23267000  0.35340000  1
  H  H27  1  0.10818000  0.23150000  0.27173000  1
  H  H28  1  0.72787000  0.44710000  0.67847000  1
  H  H29  1  0.80781000  0.61971000  0.55963000  1
  H  H30  1  0.77234000  0.63675000  0.45594000  1
  H  H31  1  0.97082000  0.50235000  0.41062000  1
  H  H32  1  0.02450000  0.61498000  0.43834000  1
  H  H33  1  0.70901000  0.53190000  0.35975000  1
  H  H34  1  0.58256000  0.40746000  0.31206000  1
  H  H35  1  0.47537000  0.24348000  0.41578000  1
  H  H36  1  0.48910000  0.19787000  0.57303000  1
  H  H37  1  0.35330000  0.60384000  0.00793000  1
  H  H38  1  0.38062000  0.93803000  0.07334000  1
  H  H39  1  0.63978000  0.56486000  0.15682000  1
  H  H40  1  0.01262000  0.45596000  0.15159000  1
  H  H41  1  0.85693000  0.41947000  0.13854000  1
  H  H42  1  0.87270000  0.58393000  0.00720000  1
  H  H43  1  0.03650000  0.60656000  0.01839000  1
  H  H44  1  0.71377000  0.86322000  0.29367000  1
  H  H45  1  0.95172000  0.88134000  0.30971000  1
  H  H46  1  0.14848000  0.75050000  0.26067000  1
  H  H47  1  0.11826000  0.59671000  0.19583000  1
  H  H48  1  0.75796000  0.82600000  0.03994000  1
  H  H49  1  0.95746000  0.82581000  0.09849000  1
  H  H50  1  0.12867000  0.78901000  0.03981000  1
  H  H51  1  0.15381000  0.97792000  0.95076000  1
  H  H52  1  0.09743000  0.98177000  0.06236000  1
  H  H53  1  0.26300000  0.82147000  0.87017000  1
  H  H54  1  0.32325000  0.79637000  0.71626000  1
  H  H55  1  0.14416000  0.76733000  0.64660000  1
  H  H56  1  0.89183000  0.76851000  0.72826000  1
  H  H57  1  0.27213000  0.55290000  0.32153000  1
  H  H58  1  0.19219000  0.38029000  0.44038000  1
  H  H59  1  0.22767000  0.36325000  0.54406000  1
  H  H60  1  0.02919000  0.49765000  0.58938000  1
  H  H61  1  0.97551000  0.38502000  0.56166000  1
  H  H62  1  0.29099000  0.46810000  0.64025000  1
  H  H63  1  0.41744000  0.59255000  0.68794000  1
  H  H64  1  0.52463000  0.75652000  0.58422000  1
  H  H65  1  0.51091000  0.80213000  0.42697000  1
  C  C66  1  0.29375000  0.39808000  0.81649000  1
  C  C67  1  0.07804000  0.51105000  0.87410000  1
  C  C68  1  0.03471000  0.45767000  0.97209000  1
  C  C69  1  0.10446000  0.35991000  0.78578000  1
  C  C70  1  0.21809000  0.28538000  0.75770000  1
  C  C71  1  0.20041000  0.19747000  0.72234000  1
  C  C72  1  0.06743000  0.18773000  0.71500000  1
  C  C73  1  0.95497000  0.26281000  0.74249000  1
  C  C74  1  0.97100000  0.35048000  0.77820000  1
  C  C75  1  0.16396000  0.19039000  0.01871000  1
  C  C76  1  0.96564000  0.15787000  0.96489000  1
  C  C77  1  0.93589000  0.03656000  0.99181000  1
  C  C78  1  0.95756000  0.19743000  0.11359000  1
  C  C79  1  0.81700000  0.19411000  0.15881000  1
  C  C80  1  0.78453000  0.20711000  0.24565000  1
  C  C81  1  0.88758000  0.22225000  0.28562000  1
  C  C82  1  0.02800000  0.22283000  0.24056000  1
  C  C83  1  0.06293000  0.20980000  0.15331000  1
  C  C84  1  0.69723000  0.42539000  0.62555000  1
  C  C85  1  0.81551000  0.57794000  0.50567000  1
  C  C86  1  0.96660000  0.54011000  0.46641000  1
  C  C87  1  0.66845000  0.43328000  0.49302000  1
  C  C88  1  0.66204000  0.45983000  0.40535000  1
  C  C89  1  0.59046000  0.38981000  0.37974000  1
  C  C90  1  0.52886000  0.29633000  0.43915000  1
  C  C91  1  0.53528000  0.27008000  0.52671000  1
  C  C92  1  0.60551000  0.34060000  0.55346000  1
  C  C93  1  0.70625000  0.60192000  0.18351000  1
  C  C94  1  0.92197000  0.48895000  0.12590000  1
  C  C95  1  0.96530000  0.54234000  0.02790000  1
  C  C96  1  0.89554000  0.64009000  0.21422000  1
  C  C97  1  0.78191000  0.71462000  0.24230000  1
  C  C98  1  0.79959000  0.80254000  0.27766000  1
  C  C99  1  0.93258000  0.81228000  0.28500000  1
  C  C100  1  0.04503000  0.73719000  0.25751000  1
  C  C101  1  0.02900000  0.64952000  0.22180000  1
  C  C102  1  0.83604000  0.80961000  0.98128000  1
  C  C103  1  0.03435000  0.84212000  0.03511000  1
  C  C104  1  0.06410000  0.96344000  0.00819000  1
  C  C105  1  0.04243000  0.80257000  0.88641000  1
  C  C106  1  0.18299000  0.80589000  0.84119000  1
  C  C107  1  0.21548000  0.79289000  0.75434000  1
  C  C108  1  0.11242000  0.77775000  0.71438000  1
  C  C109  1  0.97199000  0.77718000  0.75944000  1
  C  C110  1  0.93706000  0.79021000  0.84669000  1
  C  C111  1  0.30277000  0.57461000  0.37445000  1
  C  C112  1  0.18450000  0.42206000  0.49433000  1
  C  C113  1  0.03341000  0.45989000  0.53359000  1
  C  C114  1  0.33156000  0.56672000  0.50698000  1
  C  C115  1  0.33796000  0.54017000  0.59465000  1
  C  C116  1  0.40955000  0.61020000  0.62026000  1
  C  C117  1  0.47115000  0.70367000  0.56084000  1
  C  C118  1  0.46472000  0.72992000  0.47329000  1
  C  C119  1  0.39450000  0.65940000  0.44654000  1
  N  N120  1  0.33476000  0.31290000  0.77696000  1
  N  N121  1  0.15694000  0.43072000  0.82270000  1
  N  N122  1  0.19075000  0.20546000  0.09181000  1
  N  N123  1  0.02612000  0.18771000  0.02825000  1
  N  N124  1  0.62564000  0.33849000  0.63556000  1
  N  N125  1  0.72619000  0.48512000  0.54116000  1
  N  N126  1  0.66525000  0.68710000  0.22303000  1
  N  N127  1  0.84307000  0.56929000  0.17730000  1
  N  N128  1  0.80924000  0.79455000  0.90818000  1
  N  N129  1  0.97386000  0.81229000  0.97175000  1
  N  N130  1  0.37436000  0.66151000  0.36444000  1
  N  N131  1  0.27381000  0.51488000  0.45884000  1
  O  O132  1  0.69955000  0.36545000  0.94190000  1
  O  O133  1  0.60141000  0.32802000  0.82553000  1
  O  O134  1  0.66325000  0.16479000  0.94344000  1
  O  O135  1  0.45463000  0.30174000  0.98574000  1
  O  O136  1  0.35380000  0.06876000  0.87804000  1
  O  O137  1  0.59444000  0.99403000  0.90881000  1
  O  O138  1  0.50141000  0.89378000  0.82877000  1
  O  O139  1  0.57396000  0.09120000  0.75279000  1
  O  O140  1  0.30044000  0.63458000  0.05807000  1
  O  O141  1  0.39859000  0.67198000  0.17446000  1
  O  O142  1  0.33674000  0.83521000  0.05655000  1
  O  O143  1  0.54537000  0.69826000  0.01425000  1
  O  O144  1  0.64615000  0.93124000  0.12195000  1
  O  O145  1  0.40546000  0.00596000  0.09121000  1
  O  O146  1  0.49854000  0.10622000  0.17122000  1
  O  O147  1  0.42600000  0.90879000  0.24723000  1
