# generated using pymatgen
data_H13(C10N3)2
_symmetry_space_group_name_H-M   'P 1'
_cell_length_a   26.90180000
_cell_length_b   26.90180000
_cell_length_c   41.53760000
_cell_angle_alpha   90.00000000
_cell_angle_beta   90.00000000
_cell_angle_gamma   120.00000000
_symmetry_Int_Tables_number   1
_chemical_formula_structural   H13(C10N3)2
_chemical_formula_sum   'H156 C240 N72'
_cell_volume   26033.62895627
_cell_formula_units_Z   12
loop_
 _symmetry_equiv_pos_site_id
 _symmetry_equiv_pos_as_xyz
  1  'x, y, z'
loop_
 _atom_site_type_symbol
 _atom_site_label
 _atom_site_symmetry_multiplicity
 _atom_site_fract_x
 _atom_site_fract_y
 _atom_site_fract_z
 _atom_site_occupancy
  C  1  1  0.44632400  0.46996400  0.97932500  1
  C  2  1  0.41398750  0.49058950  0.96250400  1
  C  3  1  0.41669700  0.49411900  0.92834300  1
  C  4  1  0.44533550  0.47049850  0.91145100  1
  C  5  1  0.47442050  0.44658950  0.92759700  1
  C  6  1  0.47816950  0.44962850  0.96174700  1
  C  7  1  0.37961250  0.50666650  0.98042000  1
  C  8  1  0.51302800  0.43323700  0.97891600  1
  C  10  1  0.44678400  0.46963000  0.01371600  1
  C  11  1  0.41203200  0.48650200  0.03128100  1
  C  12  1  0.41230850  0.48548350  0.06541600  1
  C  13  1  0.44761450  0.46893350  0.08160900  1
  C  14  1  0.48253850  0.45274150  0.06468700  1
  C  15  1  0.48195050  0.45238050  0.03053200  1
  C  16  1  0.37782550  0.50366850  0.01411600  1
  C  18  1  0.51571300  0.43559100  0.01261600  1
  C  27  1  0.94391200  0.46344700  0.31267400  1
  C  28  1  0.99687700  0.49572500  0.29585100  1
  C  29  1  0.99769600  0.49295500  0.26169100  1
  C  30  1  0.94543950  0.46429450  0.24480100  1
  C  31  1  0.89244250  0.43520050  0.26094500  1
  C  32  1  0.89172850  0.43158150  0.29510000  1
  C  33  1  0.04733650  0.53011850  0.31376000  1
  C  34  1  0.84046700  0.39679500  0.31227700  1
  C  36  1  0.94311100  0.46307000  0.34706700  1
  C  37  1  0.99474650  0.49781550  0.36462400  1
  C  38  1  0.99345150  0.49760050  0.39876200  1
  C  39  1  0.94157650  0.46237550  0.41495900  1
  C  40  1  0.89043600  0.42751700  0.39804200  1
  C  41  1  0.89068350  0.42798650  0.36389000  1
  C  42  1  0.04613200  0.53193400  0.34745400  1
  C  44  1  0.84012650  0.39420150  0.34597900  1
  C  53  1  0.43987850  0.96586450  0.64598400  1
  C  54  1  0.41918350  0.91288950  0.62917000  1
  C  55  1  0.41550200  0.91205100  0.59501300  1
  C  56  1  0.43913850  0.96429750  0.57811300  1
  C  57  1  0.46310800  0.01730300  0.59425000  1
  C  58  1  0.46016950  0.01803650  0.62840200  1
  C  59  1  0.40314800  0.86244700  0.64708600  1
  C  60  1  0.47663100  0.06930400  0.64557000  1
  C  62  1  0.44034500  0.96669000  0.68037700  1
  C  63  1  0.42356150  0.91508250  0.69794100  1
  C  64  1  0.42480600  0.91644300  0.73207900  1
  C  65  1  0.44127500  0.96828000  0.74827200  1
  C  66  1  0.45732950  0.01935550  0.73134000  1
  C  67  1  0.45762600  0.01911500  0.69719000  1
  C  68  1  0.40633200  0.86369900  0.68077900  1
  C  70  1  0.47432800  0.06964900  0.67926900  1
  C  79  1  0.51078200  0.14810300  0.77862900  1
  C  80  1  0.55254250  0.20694550  0.77764800  1
  C  82  1  0.50851800  0.22831100  0.82152800  1
  C  83  1  0.46516400  0.16961000  0.82417800  1
  C  84  1  0.46777350  0.13035050  0.80258900  1
  C  86  1  0.51053000  0.27158100  0.84169700  1
  C  87  1  0.49951350  0.31531650  0.83085900  1
  C  88  1  0.49395150  0.35014050  0.85454600  1
  C  89  1  0.49851950  0.34169250  0.88779100  1
  C  90  1  0.51122100  0.29868000  0.89667100  1
  C  101  1  0.48184450  0.36726350  0.91100600  1
  C  102  1  0.51263850  0.10924150  0.75735300  1
  C  105  1  0.55775500  0.39917400  0.11195700  1
  C  106  1  0.57471400  0.35732100  0.11098700  1
  C  108  1  0.64013600  0.40125900  0.15486300  1
  C  109  1  0.62489450  0.44469150  0.15751300  1
  C  110  1  0.58307750  0.44217650  0.13591600  1
  C  112  1  0.68136800  0.39916100  0.17501100  1
  C  113  1  0.73616400  0.41030900  0.16418000  1
  C  114  1  0.77657100  0.41595900  0.18787100  1
  C  115  1  0.76351550  0.41127150  0.22111400  1
  C  116  1  0.70777450  0.39849550  0.22998700  1
  C  127  1  0.80574600  0.42790300  0.24433600  1
  C  128  1  0.51705600  0.39738100  0.09068700  1
  C  131  1  0.76157450  0.35207950  0.44524500  1
  C  132  1  0.70275250  0.33507550  0.44424600  1
  C  134  1  0.68124650  0.26961450  0.48810300  1
  C  135  1  0.73992000  0.28486700  0.49076500  1
  C  136  1  0.77924400  0.32674900  0.46920400  1
  C  138  1  0.63790350  0.22840650  0.50825800  1
  C  139  1  0.59419350  0.17364250  0.49743200  1
  C  140  1  0.55939100  0.13326800  0.52112600  1
  C  141  1  0.56782150  0.14628950  0.55437300  1
  C  142  1  0.61082800  0.20202500  0.56323700  1
  C  153  1  0.54237150  0.10401550  0.57757800  1
  C  154  1  0.80050150  0.39284450  0.42400700  1
  C  157  1  0.37302750  0.79040250  0.78145000  1
  C  158  1  0.33117450  0.73157950  0.78115200  1
  C  160  1  0.37731550  0.71133850  0.82437500  1
  C  161  1  0.42074050  0.77010950  0.82637200  1
  C  162  1  0.41712250  0.80880950  0.80477900  1
  C  164  1  0.37647300  0.66847600  0.84441400  1
  C  165  1  0.38696950  0.62460650  0.83318300  1
  C  166  1  0.39361550  0.59005950  0.85659800  1
  C  167  1  0.39062000  0.59888800  0.88995800  1
  C  168  1  0.37836700  0.64203500  0.89924800  1
  C  179  1  0.40816450  0.57335250  0.91274000  1
  C  180  1  0.37037600  0.82867500  0.76007900  1
  C  183  1  0.33786850  0.53693450  0.11486300  1
  C  184  1  0.32088150  0.57877750  0.11461700  1
  C  186  1  0.25437750  0.53241750  0.15775900  1
  C  187  1  0.26972000  0.48898100  0.15969500  1
  C  188  1  0.31211000  0.49271500  0.13811900  1
  C  190  1  0.21231400  0.53316900  0.17780100  1
  C  191  1  0.15798150  0.52275150  0.16655600  1
  C  192  1  0.11675800  0.51605900  0.18996100  1
  C  193  1  0.12852200  0.51893800  0.22332100  1
  C  194  1  0.18387200  0.53106000  0.23263300  1
  C  205  1  0.08546550  0.50144550  0.24611500  1
  C  206  1  0.37885650  0.53970350  0.09350200  1
  C  209  1  0.11946900  0.57197100  0.44813700  1
  C  210  1  0.17827350  0.58885050  0.44788900  1
  C  212  1  0.19853900  0.65534400  0.49105000  1
  C  213  1  0.13978950  0.64010050  0.49299700  1
  C  214  1  0.10108700  0.59777400  0.47141000  1
  C  216  1  0.24141500  0.69736200  0.51108200  1
  C  217  1  0.28521250  0.75176550  0.49985600  1
  C  218  1  0.31964100  0.79300600  0.52327800  1
  C  219  1  0.31082550  0.78116650  0.55663300  1
  C  220  1  0.26768400  0.72575900  0.56592400  1
  C  231  1  0.33632600  0.82419900  0.57944600  1
  C  232  1  0.08119150  0.53100450  0.42678500  1
  C  937  1  0.44632400  0.46996400  0.57005700  1
  C  938  1  0.41398750  0.49058950  0.55323600  1
  C  939  1  0.41669700  0.49411900  0.51907500  1
  C  940  1  0.44533550  0.47049850  0.50218300  1
  C  941  1  0.47442050  0.44658950  0.51832900  1
  C  942  1  0.47816950  0.44962850  0.55247900  1
  C  943  1  0.37961250  0.50666650  0.57115200  1
  C  944  1  0.51302800  0.43323700  0.56964800  1
  C  946  1  0.44678400  0.46963000  0.60444800  1
  C  947  1  0.41203200  0.48650200  0.62201300  1
  C  948  1  0.41230850  0.48548350  0.65614800  1
  C  949  1  0.44761450  0.46893350  0.67234100  1
  C  950  1  0.48253850  0.45274150  0.65541900  1
  C  951  1  0.48195050  0.45238050  0.62126400  1
  C  952  1  0.37782550  0.50366850  0.60484800  1
  C  954  1  0.51571300  0.43559100  0.60334800  1
  C  963  1  0.94391200  0.46344700  0.90340630  1
  C  964  1  0.99687700  0.49572500  0.88658300  1
  C  965  1  0.99769600  0.49295500  0.85242300  1
  C  966  1  0.94543950  0.46429450  0.83553300  1
  C  967  1  0.89244250  0.43520050  0.85167700  1
  C  968  1  0.89172850  0.43158150  0.88583200  1
  C  969  1  0.04733650  0.53011850  0.90449230  1
  C  970  1  0.84046700  0.39679500  0.90300930  1
  C  972  1  0.94311100  0.46307000  0.93779930  1
  C  973  1  0.99474650  0.49781550  0.95535630  1
  C  974  1  0.99345150  0.49760050  0.98949430  1
  C  975  1  0.94157650  0.46237550  0.00569100  1
  C  976  1  0.89043600  0.42751700  0.98877430  1
  C  977  1  0.89068350  0.42798650  0.95462230  1
  C  978  1  0.04613200  0.53193400  0.93818630  1
  C  980  1  0.84012650  0.39420150  0.93671130  1
  C  989  1  0.43987850  0.96586450  0.23671600  1
  C  990  1  0.41918350  0.91288950  0.21990200  1
  C  991  1  0.41550200  0.91205100  0.18574500  1
  C  992  1  0.43913850  0.96429750  0.16884500  1
  C  993  1  0.46310800  0.01730300  0.18498200  1
  C  994  1  0.46016950  0.01803650  0.21913400  1
  C  995  1  0.40314800  0.86244700  0.23781800  1
  C  996  1  0.47663100  0.06930400  0.23630200  1
  C  998  1  0.44034500  0.96669000  0.27110900  1
  C  999  1  0.42356150  0.91508250  0.28867300  1
  C  1000  1  0.42480600  0.91644300  0.32281100  1
  C  1001  1  0.44127500  0.96828000  0.33900400  1
  C  1002  1  0.45732950  0.01935550  0.32207200  1
  C  1003  1  0.45762600  0.01911500  0.28792200  1
  C  1004  1  0.40633200  0.86369900  0.27151100  1
  C  1006  1  0.47432800  0.06964900  0.27000100  1
  C  1015  1  0.51078200  0.14810300  0.36936100  1
  C  1016  1  0.55254250  0.20694550  0.36838000  1
  C  1018  1  0.50851800  0.22831100  0.41226000  1
  C  1019  1  0.46516400  0.16961000  0.41491000  1
  C  1020  1  0.46777350  0.13035050  0.39332100  1
  C  1022  1  0.51053000  0.27158100  0.43242900  1
  C  1023  1  0.49951350  0.31531650  0.42159100  1
  C  1024  1  0.49395150  0.35014050  0.44527800  1
  C  1025  1  0.49851950  0.34169250  0.47852300  1
  C  1026  1  0.51122100  0.29868000  0.48740300  1
  C  1037  1  0.48184450  0.36726350  0.50173800  1
  C  1038  1  0.51263850  0.10924150  0.34808500  1
  C  1041  1  0.55775500  0.39917400  0.70268900  1
  C  1042  1  0.57471400  0.35732100  0.70171900  1
  C  1044  1  0.64013600  0.40125900  0.74559500  1
  C  1045  1  0.62489450  0.44469150  0.74824500  1
  C  1046  1  0.58307750  0.44217650  0.72664800  1
  C  1048  1  0.68136800  0.39916100  0.76574300  1
  C  1049  1  0.73616400  0.41030900  0.75491200  1
  C  1050  1  0.77657100  0.41595900  0.77860300  1
  C  1051  1  0.76351550  0.41127150  0.81184600  1
  C  1052  1  0.70777450  0.39849550  0.82071900  1
  C  1063  1  0.80574600  0.42790300  0.83506800  1
  C  1064  1  0.51705600  0.39738100  0.68141900  1
  C  1067  1  0.76157450  0.35207950  0.03597700  1
  C  1068  1  0.70275250  0.33507550  0.03497800  1
  C  1070  1  0.68124650  0.26961450  0.07883500  1
  C  1071  1  0.73992000  0.28486700  0.08149700  1
  C  1072  1  0.77924400  0.32674900  0.05993600  1
  C  1074  1  0.63790350  0.22840650  0.09899000  1
  C  1075  1  0.59419350  0.17364250  0.08816400  1
  C  1076  1  0.55939100  0.13326800  0.11185800  1
  C  1077  1  0.56782150  0.14628950  0.14510500  1
  C  1078  1  0.61082800  0.20202500  0.15396900  1
  C  1089  1  0.54237150  0.10401550  0.16831000  1
  C  1090  1  0.80050150  0.39284450  0.01473900  1
  C  1093  1  0.37302750  0.79040250  0.37218200  1
  C  1094  1  0.33117450  0.73157950  0.37188400  1
  C  1096  1  0.37731550  0.71133850  0.41510700  1
  C  1097  1  0.42074050  0.77010950  0.41710400  1
  C  1098  1  0.41712250  0.80880950  0.39551100  1
  C  1100  1  0.37647300  0.66847600  0.43514600  1
  C  1101  1  0.38696950  0.62460650  0.42391500  1
  C  1102  1  0.39361550  0.59005950  0.44733000  1
  C  1103  1  0.39062000  0.59888800  0.48069000  1
  C  1104  1  0.37836700  0.64203500  0.48998000  1
  C  1115  1  0.40816450  0.57335250  0.50347200  1
  C  1116  1  0.37037600  0.82867500  0.35081100  1
  C  1119  1  0.33786850  0.53693450  0.70559500  1
  C  1120  1  0.32088150  0.57877750  0.70534900  1
  C  1122  1  0.25437750  0.53241750  0.74849100  1
  C  1123  1  0.26972000  0.48898100  0.75042700  1
  C  1124  1  0.31211000  0.49271500  0.72885100  1
  C  1126  1  0.21231400  0.53316900  0.76853300  1
  C  1127  1  0.15798150  0.52275150  0.75728800  1
  C  1128  1  0.11675800  0.51605900  0.78069300  1
  C  1129  1  0.12852200  0.51893800  0.81405300  1
  C  1130  1  0.18387200  0.53106000  0.82336500  1
  C  1141  1  0.08546550  0.50144550  0.83684700  1
  C  1142  1  0.37885650  0.53970350  0.68423400  1
  C  1145  1  0.11946900  0.57197100  0.03886900  1
  C  1146  1  0.17827350  0.58885050  0.03862100  1
  C  1148  1  0.19853900  0.65534400  0.08178200  1
  C  1149  1  0.13978950  0.64010050  0.08372900  1
  C  1150  1  0.10108700  0.59777400  0.06214200  1
  C  1152  1  0.24141500  0.69736200  0.10181400  1
  C  1153  1  0.28521250  0.75176550  0.09058800  1
  C  1154  1  0.31964100  0.79300600  0.11401000  1
  C  1155  1  0.31082550  0.78116650  0.14736500  1
  C  1156  1  0.26768400  0.72575900  0.15665600  1
  C  1167  1  0.33632600  0.82419900  0.17017800  1
  C  1168  1  0.08119150  0.53100450  0.01751700  1
  H  9  1  0.44493800  0.47064200  0.88673300  1
  H  17  1  0.44781550  0.46857550  0.10632600  1
  H  19  1  0.35206200  0.51557400  0.02593600  1
  H  20  1  0.35405950  0.51940650  0.96914000  1
  H  21  1  0.54188600  0.42358900  0.02386400  1
  H  22  1  0.53829350  0.42074450  0.96707300  1
  H  35  1  0.94598450  0.46464950  0.22008100  1
  H  43  1  0.94102300  0.46220000  0.43967700  1
  H  45  1  0.08379250  0.55775350  0.35927000  1
  H  46  1  0.08563050  0.55564750  0.30247400  1
  H  47  1  0.80194500  0.36806600  0.35723100  1
  H  48  1  0.80271500  0.37148800  0.30043700  1
  H  61  1  0.43892000  0.96374300  0.55339300  1
  H  69  1  0.44166750  0.96885250  0.77298900  1
  H  71  1  0.39453750  0.82605250  0.69259700  1
  H  72  1  0.39043450  0.82415950  0.63580500  1
  H  73  1  0.48639450  0.10784050  0.69051700  1
  H  74  1  0.48908000  0.10705100  0.63372500  1
  H  85  1  0.43712300  0.08783800  0.80425300  1
  H  92  1  0.48267900  0.37966200  0.84747700  1
  H  93  1  0.51358350  0.28947650  0.92032400  1
  H  94  1  0.58494400  0.22254000  0.76104700  1
  H  96  1  0.49267250  0.29882450  0.78247600  1
  H  97  1  0.48255750  0.35258850  0.79278100  1
  H  99  1  0.39149650  0.10948750  0.84624200  1
  H  100  1  0.41552350  0.17551450  0.85966000  1
  H  103  1  0.55030950  0.11553750  0.74948300  1
  H  104  1  0.45553150  0.34234150  0.92833100  1
  H  111  1  0.57129650  0.47288750  0.13757700  1
  H  118  1  0.81737600  0.42723900  0.18081500  1
  H  119  1  0.69619100  0.39609200  0.25364100  1
  H  120  1  0.55786900  0.32492600  0.09438300  1
  H  122  1  0.72650100  0.41713200  0.11579700  1
  H  123  1  0.79044300  0.42742300  0.12611100  1
  H  125  1  0.63853200  0.51837100  0.17960400  1
  H  126  1  0.68042850  0.49422750  0.19303500  1
  H  129  1  0.48566650  0.35972850  0.08280500  1
  H  130  1  0.80713100  0.45422800  0.26165300  1
  H  137  1  0.82173800  0.33854900  0.47088200  1
  H  144  1  0.52995300  0.09243000  0.51407400  1
  H  145  1  0.62020950  0.21352650  0.58688600  1
  H  146  1  0.68720850  0.35193150  0.42764400  1
  H  148  1  0.61069350  0.18326350  0.44904900  1
  H  149  1  0.55696350  0.11936950  0.45936500  1
  H  151  1  0.79990750  0.27106650  0.51277200  1
  H  152  1  0.73384050  0.22910650  0.52615300  1
  H  155  1  0.79405450  0.42404250  0.41599200  1
  H  156  1  0.56740050  0.10262950  0.59484000  1
  H  163  1  0.44786300  0.85135800  0.80591700  1
  H  170  1  0.40457300  0.56047000  0.84919200  1
  H  171  1  0.37714850  0.65152650  0.92297900  1
  H  172  1  0.29805450  0.71555050  0.76500000  1
  H  174  1  0.39166850  0.64055150  0.78477700  1
  H  175  1  0.40218200  0.58687300  0.79466600  1
  H  177  1  0.49536350  0.83081250  0.84735500  1
  H  178  1  0.47197850  0.76514550  0.86119300  1
  H  181  1  0.33240650  0.82282450  0.75311800  1
  H  182  1  0.43479150  0.59822350  0.92996900  1
  H  189  1  0.32392500  0.46197800  0.13921400  1
  H  196  1  0.07626550  0.50526350  0.18253400  1
  H  197  1  0.19457850  0.53226450  0.25636400  1
  H  198  1  0.33803800  0.61198800  0.09852600  1
  H  200  1  0.16933550  0.51826150  0.11814400  1
  H  201  1  0.10514200  0.50776000  0.12801500  1
  H  203  1  0.25576000  0.41427200  0.18057400  1
  H  204  1  0.21343300  0.43758300  0.19443900  1
  H  207  1  0.41108800  0.57771700  0.08669300  1
  H  208  1  0.08368150  0.47484850  0.26337200  1
  H  215  1  0.05855300  0.58602800  0.47251700  1
  H  222  1  0.34930100  0.83352800  0.51587300  1
  H  223  1  0.25819750  0.71501550  0.58965200  1
  H  224  1  0.19427800  0.57167100  0.43178000  1
  H  226  1  0.26940350  0.74043050  0.45144200  1
  H  227  1  0.32293600  0.80470500  0.46133700  1
  H  229  1  0.07914100  0.65420000  0.51388900  1
  H  230  1  0.14480200  0.69641900  0.52775400  1
  H  233  1  0.08703550  0.49886550  0.41985900  1
  H  234  1  0.31148300  0.82592000  0.59670300  1
  H  945  1  0.44493800  0.47064200  0.47746500  1
  H  953  1  0.44781550  0.46857550  0.69705800  1
  H  955  1  0.35206200  0.51557400  0.61666800  1
  H  956  1  0.35405950  0.51940650  0.55987200  1
  H  957  1  0.54188600  0.42358900  0.61459600  1
  H  958  1  0.53829350  0.42074450  0.55780500  1
  H  971  1  0.94598450  0.46464950  0.81081300  1
  H  979  1  0.94102300  0.46220000  0.03040900  1
  H  981  1  0.08379250  0.55775350  0.95000230  1
  H  982  1  0.08563050  0.55564750  0.89320600  1
  H  983  1  0.80194500  0.36806600  0.94796330  1
  H  984  1  0.80271500  0.37148800  0.89116900  1
  H  997  1  0.43892000  0.96374300  0.14412500  1
  H  1005  1  0.44166750  0.96885250  0.36372100  1
  H  1007  1  0.39453750  0.82605250  0.28332900  1
  H  1008  1  0.39043450  0.82415950  0.22653700  1
  H  1009  1  0.48639450  0.10784050  0.28124900  1
  H  1010  1  0.48908000  0.10705100  0.22445700  1
  H  1021  1  0.43712300  0.08783800  0.39498500  1
  H  1028  1  0.48267900  0.37966200  0.43820900  1
  H  1029  1  0.51358350  0.28947650  0.51105600  1
  H  1030  1  0.58494400  0.22254000  0.35177900  1
  H  1032  1  0.49267250  0.29882450  0.37320800  1
  H  1033  1  0.48255750  0.35258850  0.38351300  1
  H  1035  1  0.39149650  0.10948750  0.43697400  1
  H  1036  1  0.41552350  0.17551450  0.45039200  1
  H  1039  1  0.55030950  0.11553750  0.34021500  1
  H  1040  1  0.45553150  0.34234150  0.51906300  1
  H  1047  1  0.57129650  0.47288750  0.72830900  1
  H  1054  1  0.81737600  0.42723900  0.77154700  1
  H  1055  1  0.69619100  0.39609200  0.84437300  1
  H  1056  1  0.55786900  0.32492600  0.68511500  1
  H  1058  1  0.72650100  0.41713200  0.70652900  1
  H  1059  1  0.79044300  0.42742300  0.71684300  1
  H  1061  1  0.63853200  0.51837100  0.77033600  1
  H  1062  1  0.68042850  0.49422750  0.78376700  1
  H  1065  1  0.48566650  0.35972850  0.67353700  1
  H  1066  1  0.80713100  0.45422800  0.85238500  1
  H  1073  1  0.82173800  0.33854900  0.06161400  1
  H  1080  1  0.52995300  0.09243000  0.10480600  1
  H  1081  1  0.62020950  0.21352650  0.17761800  1
  H  1082  1  0.68720850  0.35193150  0.01837600  1
  H  1084  1  0.61069350  0.18326350  0.03978100  1
  H  1085  1  0.55696350  0.11936950  0.05009700  1
  H  1087  1  0.79990750  0.27106650  0.10350400  1
  H  1088  1  0.73384050  0.22910650  0.11688500  1
  H  1091  1  0.79405450  0.42404250  0.00672400  1
  H  1092  1  0.56740050  0.10262950  0.18557200  1
  H  1099  1  0.44786300  0.85135800  0.39664900  1
  H  1106  1  0.40457300  0.56047000  0.43992400  1
  H  1107  1  0.37714850  0.65152650  0.51371100  1
  H  1108  1  0.29805450  0.71555050  0.35573200  1
  H  1110  1  0.39166850  0.64055150  0.37550900  1
  H  1111  1  0.40218200  0.58687300  0.38539800  1
  H  1113  1  0.49536350  0.83081250  0.43808700  1
  H  1114  1  0.47197850  0.76514550  0.45192500  1
  H  1117  1  0.33240650  0.82282450  0.34385000  1
  H  1118  1  0.43479150  0.59822350  0.52070100  1
  H  1125  1  0.32392500  0.46197800  0.72994600  1
  H  1132  1  0.07626550  0.50526350  0.77326600  1
  H  1133  1  0.19457850  0.53226450  0.84709600  1
  H  1134  1  0.33803800  0.61198800  0.68925800  1
  H  1136  1  0.16933550  0.51826150  0.70887600  1
  H  1137  1  0.10514200  0.50776000  0.71874700  1
  H  1139  1  0.25576000  0.41427200  0.77130600  1
  H  1140  1  0.21343300  0.43758300  0.78517100  1
  H  1143  1  0.41108800  0.57771700  0.67742500  1
  H  1144  1  0.08368150  0.47484850  0.85410400  1
  H  1151  1  0.05855300  0.58602800  0.06324900  1
  H  1158  1  0.34930100  0.83352800  0.10660500  1
  H  1159  1  0.25819750  0.71501550  0.18038400  1
  H  1160  1  0.19427800  0.57167100  0.02251200  1
  H  1162  1  0.26940350  0.74043050  0.04217400  1
  H  1163  1  0.32293600  0.80470500  0.05206900  1
  H  1165  1  0.07914100  0.65420000  0.10462100  1
  H  1166  1  0.14480200  0.69641900  0.11848600  1
  H  1169  1  0.08703550  0.49886550  0.01059100  1
  H  1170  1  0.31148300  0.82592000  0.18743500  1
  N  23  1  0.49359950  0.41972650  0.90874200  1
  N  24  1  0.39681800  0.52107000  0.91009100  1
  N  25  1  0.51815800  0.44401500  0.08262000  1
  N  26  1  0.37662750  0.49326950  0.08385300  1
  N  49  1  0.84641350  0.41609250  0.24208300  1
  N  50  1  0.04452850  0.51278550  0.24344300  1
  N  51  1  0.84613350  0.39188750  0.41600000  1
  N  52  1  0.03693850  0.53321550  0.41720800  1
  N  75  1  0.48988700  0.06333900  0.57538500  1
  N  76  1  0.38856850  0.86521250  0.57676700  1
  N  77  1  0.46602750  0.06369250  0.74927300  1
  N  78  1  0.41686000  0.87293500  0.75053000  1
  N  81  1  0.54987700  0.24417400  0.79863700  1
  N  91  1  0.51590650  0.26546650  0.87378100  1
  N  95  1  0.49106700  0.32290800  0.79937000  1
  N  98  1  0.42097950  0.14985050  0.84558000  1
  N  107  1  0.61458000  0.35991300  0.13197000  1
  N  117  1  0.66986800  0.39378600  0.20709500  1
  N  121  1  0.75223950  0.41888483  0.13269700  1
  N  124  1  0.64941150  0.48888650  0.17890400  1
  N  133  1  0.66546700  0.29518200  0.46521500  1
  N  143  1  0.64407900  0.23988300  0.54034200  1
  N  147  1  0.58665500  0.15755600  0.46594900  1
  N  150  1  0.75958700  0.26036600  0.51217500  1
  N  159  1  0.33488200  0.69489300  0.80210500  1
  N  169  1  0.37262550  0.67498950  0.87660700  1
  N  173  1  0.39401250  0.61665650  0.80153100  1
  N  176  1  0.46593400  0.79040800  0.84710050  1
  N  185  1  0.28043150  0.57496550  0.13556000  1
  N  195  1  0.22261200  0.53688300  0.20999800  1
  N  199  1  0.14308450  0.51591950  0.13489100  1
  N  202  1  0.24477900  0.44369600  0.18035800  1
  N  211  1  0.21496200  0.62925700  0.46883100  1
  N  221  1  0.23481500  0.68701900  0.54327700  1
  N  225  1  0.29320050  0.76672850  0.46820000  1
  N  228  1  0.11952700  0.66510500  0.51366800  1
  N  959  1  0.49359950  0.41972650  0.49947400  1
  N  960  1  0.39681800  0.52107000  0.50082300  1
  N  961  1  0.51815800  0.44401500  0.67335200  1
  N  962  1  0.37662750  0.49326950  0.67458500  1
  N  985  1  0.84641350  0.41609250  0.83281500  1
  N  986  1  0.04452850  0.51278550  0.83417500  1
  N  987  1  0.84613350  0.39188750  0.00673200  1
  N  988  1  0.03693850  0.53321550  0.00794000  1
  N  1011  1  0.48988700  0.06333900  0.16611700  1
  N  1012  1  0.38856850  0.86521250  0.16749900  1
  N  1013  1  0.46602750  0.06369250  0.34000500  1
  N  1014  1  0.41686000  0.87293500  0.34126200  1
  N  1017  1  0.54987700  0.24417400  0.38936900  1
  N  1027  1  0.51590650  0.26546650  0.46451300  1
  N  1031  1  0.49106700  0.32290800  0.39010200  1
  N  1034  1  0.42097950  0.14985050  0.43631200  1
  N  1043  1  0.61458000  0.35991300  0.72270200  1
  N  1053  1  0.66986800  0.39378600  0.79782700  1
  N  1057  1  0.75223950  0.41888483  0.72342900  1
  N  1060  1  0.64941150  0.48888650  0.76963600  1
  N  1069  1  0.66546700  0.29518200  0.05594700  1
  N  1079  1  0.64407900  0.23988300  0.13107400  1
  N  1083  1  0.58665500  0.15755600  0.05668100  1
  N  1086  1  0.75958700  0.26036600  0.10290700  1
  N  1095  1  0.33488200  0.69489300  0.39283700  1
  N  1105  1  0.37262550  0.67498950  0.46733900  1
  N  1109  1  0.39401250  0.61665650  0.39226300  1
  N  1112  1  0.46593400  0.79040800  0.43783250  1
  N  1121  1  0.28043150  0.57496550  0.72629200  1
  N  1131  1  0.22261200  0.53688300  0.80073000  1
  N  1135  1  0.14308450  0.51591950  0.72562300  1
  N  1138  1  0.24477900  0.44369600  0.77109000  1
  N  1147  1  0.21496200  0.62925700  0.05956300  1
  N  1157  1  0.23481500  0.68701900  0.13400900  1
  N  1161  1  0.29320050  0.76672850  0.05893200  1
  N  1164  1  0.11952700  0.66510500  0.10440000  1
