# generated using pymatgen
data_TbZnH6C15(NO5)2
_symmetry_space_group_name_H-M   'P 1'
_cell_length_a   9.88652000
_cell_length_b   10.06828000
_cell_length_c   11.12006000
_cell_angle_alpha   72.57306000
_cell_angle_beta   83.99147000
_cell_angle_gamma   74.62651000
_symmetry_Int_Tables_number   1
_chemical_formula_structural   TbZnH6C15(NO5)2
_chemical_formula_sum   'Tb2 Zn2 H12 C30 N4 O20'
_cell_volume   1017.91350818
_cell_formula_units_Z   2
loop_
 _symmetry_equiv_pos_site_id
 _symmetry_equiv_pos_as_xyz
  1  'x, y, z'
loop_
 _atom_site_type_symbol
 _atom_site_label
 _atom_site_symmetry_multiplicity
 _atom_site_fract_x
 _atom_site_fract_y
 _atom_site_fract_z
 _atom_site_occupancy
  Tb  Tb0  1  0.04914000  0.17883000  0.17154000  1
  Tb  Tb1  1  0.95097000  0.82621000  0.83204000  1
  Zn  Zn2  1  0.61443000  0.25717000  0.36038000  1
  Zn  Zn3  1  0.38330000  0.74422000  0.63953000  1
  H  H4  1  0.35088000  0.48533000  0.27092000  1
  H  H5  1  0.28297000  0.71288000  0.08960000  1
  H  H6  1  0.47300000  0.80568000  0.95263000  1
  H  H7  1  0.44257000  0.77855000  0.27505000  1
  H  H8  1  0.67826000  0.81940000  0.18412000  1
  H  H9  1  0.74971000  0.02874000  0.21179000  1
  H  H10  1  0.64641000  0.51597000  0.72720000  1
  H  H11  1  0.71521000  0.28800000  0.90799000  1
  H  H12  1  0.52518000  0.19704000  0.04767000  1
  H  H13  1  0.55762000  0.22140000  0.72492000  1
  H  H14  1  0.32173000  0.18138000  0.81663000  1
  H  H15  1  0.24864000  0.97303000  0.78832000  1
  C  C16  1  0.75237000  0.69397000  0.97111000  1
  C  C17  1  0.63900000  0.62938000  0.04885000  1
  C  C18  1  0.66556000  0.50015000  0.14604000  1
  C  C19  1  0.42794000  0.52950000  0.20477000  1
  C  C20  1  0.39221000  0.65483000  0.10562000  1
  C  C21  1  0.49854000  0.70587000  0.02830000  1
  C  C22  1  0.80648000  0.39665000  0.16533000  1
  C  C23  1  0.35842000  0.17978000  0.43226000  1
  C  C24  1  0.44045000  0.07673000  0.35857000  1
  C  C25  1  0.39167000  0.96304000  0.34663000  1
  C  C26  1  0.25288000  0.93393000  0.40135000  1
  C  C27  1  0.47779000  0.86891000  0.28334000  1
  C  C28  1  0.60793000  0.89048000  0.23322000  1
  C  C29  1  0.64941000  0.00607000  0.24833000  1
  C  C30  1  0.07348000  0.95010000  0.01937000  1
  C  C31  1  0.24650000  0.31038000  0.03165000  1
  C  C32  1  0.35960000  0.37426000  0.95298000  1
  C  C33  1  0.33251000  0.50319000  0.85556000  1
  C  C34  1  0.56974000  0.47235000  0.79439000  1
  C  C35  1  0.60597000  0.34686000  0.89333000  1
  C  C36  1  0.49995000  0.29689000  0.97206000  1
  C  C37  1  0.19158000  0.60704000  0.83762000  1
  C  C38  1  0.63967000  0.82036000  0.56799000  1
  C  C39  1  0.55767000  0.92399000  0.64115000  1
  C  C40  1  0.60697000  0.03734000  0.65304000  1
  C  C41  1  0.74594000  0.06582000  0.59857000  1
  C  C42  1  0.52162000  0.13142000  0.71673000  1
  C  C43  1  0.39141000  0.11025000  0.76718000  1
  C  C44  1  0.34918000  0.99514000  0.75184000  1
  C  C45  1  0.93010000  0.05614000  0.98282000  1
  N  N46  1  0.56215000  0.45431000  0.22334000  1
  N  N47  1  0.56696000  0.09626000  0.30899000  1
  N  N48  1  0.43549000  0.54821000  0.77714000  1
  N  N49  1  0.43109000  0.90492000  0.69092000  1
  O  O50  1  0.91071000  0.42531000  0.09693000  1
  O  O51  1  0.81522000  0.27374000  0.24945000  1
  O  O52  1  0.76990000  0.69971000  0.85455000  1
  O  O53  1  0.82031000  0.75211000  0.02366000  1
  O  O54  1  0.41668000  0.27946000  0.43659000  1
  O  O55  1  0.24547000  0.15857000  0.48383000  1
  O  O56  1  0.14244000  0.00733000  0.34022000  1
  O  O57  1  0.25184000  0.82694000  0.49697000  1
  O  O58  1  0.14020000  0.96713000  0.10221000  1
  O  O59  1  0.11253000  0.85320000  0.96241000  1
  O  O60  1  0.08901000  0.58028000  0.90936000  1
  O  O61  1  0.18098000  0.72835000  0.75083000  1
  O  O62  1  0.23345000  0.29996000  0.14938000  1
  O  O63  1  0.17435000  0.25701000  0.97851000  1
  O  O64  1  0.58072000  0.72112000  0.56357000  1
  O  O65  1  0.75309000  0.84068000  0.51709000  1
  O  O66  1  0.85553000  0.99272000  0.66100000  1
  O  O67  1  0.74760000  0.17224000  0.50262000  1
  O  O68  1  0.86586000  0.04025000  0.89765000  1
  O  O69  1  0.88788000  0.15037000  0.04238000  1
