# generated using pymatgen
data_H20C41(NO)4
_symmetry_space_group_name_H-M   'P 1'
_cell_length_a   32.75420000
_cell_length_b   32.75420000
_cell_length_c   42.62680000
_cell_angle_alpha   90.00000000
_cell_angle_beta   90.00000000
_cell_angle_gamma   90.00000000
_symmetry_Int_Tables_number   1
_chemical_formula_structural   H20C41(NO)4
_chemical_formula_sum   'H160 C328 N32 O32'
_cell_volume   45731.63455962
_cell_formula_units_Z   8
loop_
 _symmetry_equiv_pos_site_id
 _symmetry_equiv_pos_as_xyz
  1  'x, y, z'
loop_
 _atom_site_type_symbol
 _atom_site_label
 _atom_site_symmetry_multiplicity
 _atom_site_fract_x
 _atom_site_fract_y
 _atom_site_fract_z
 _atom_site_occupancy
  H  26  1  0.17853300  0.09996500  0.17467200  1
  H  27  1  0.21847000  0.04953400  0.14973300  1
  H  28  1  0.24716600  0.08504000  0.25760800  1
  H  29  1  0.28836200  0.03545200  0.23215000  1
  H  30  1  0.29930900  0.95382500  0.22629400  1
  H  31  1  0.25847500  0.90396900  0.25193800  1
  H  32  1  0.16429900  0.92366100  0.18624800  1
  H  33  1  0.20560900  0.97243000  0.15986100  1
  H  34  1  0.27232800  0.93650200  0.13134900  1
  H  35  1  0.27299600  0.93570500  0.07576000  1
  H  36  1  0.29884600  0.06187200  0.07478200  1
  H  37  1  0.29731300  0.06289400  0.13045500  1
  H  38  1  0.33707100  0.06584700  0.18253600  1
  H  39  1  0.33712900  0.93786700  0.17245800  1
  H  40  1  0.40908600  0.93722600  0.17730700  1
  H  41  1  0.40901000  0.06560900  0.18503000  1
  H  67  1  0.82609500  0.89985000  0.17398100  1
  H  68  1  0.78712000  0.95067700  0.14901300  1
  H  69  1  0.76780000  0.92648800  0.25982200  1
  H  70  1  0.72614100  0.97524200  0.23410500  1
  H  71  1  0.70833600  0.05680000  0.22361900  1
  H  72  1  0.74912800  0.10715800  0.24857100  1
  H  73  1  0.84697800  0.07896700  0.18808600  1
  H  74  1  0.80570100  0.02968400  0.16218800  1
  H  75  1  0.74200500  0.06745800  0.13072900  1
  H  76  1  0.74142800  0.06700900  0.07526500  1
  H  77  1  0.70716100  0.94286800  0.07590800  1
  H  78  1  0.70824800  0.94312700  0.13159700  1
  H  79  1  0.67373900  0.94008000  0.18836500  1
  H  80  1  0.67182200  0.06611800  0.16817300  1
  H  81  1  0.59938200  0.06594000  0.17195700  1
  H  82  1  0.60159900  0.93989400  0.19185600  1
  H  108  1  0.90651200  0.17623000  0.67504200  1
  H  109  1  0.95687200  0.21610900  0.65000600  1
  H  110  1  0.92204300  0.24461400  0.75803200  1
  H  111  1  0.97156900  0.28577300  0.73246800  1
  H  112  1  0.05337600  0.29705800  0.72623300  1
  H  113  1  0.10321700  0.25624300  0.75188100  1
  H  114  1  0.08261100  0.16155600  0.68679300  1
  H  115  1  0.03392700  0.20288700  0.66034700  1
  H  116  1  0.07000700  0.26920900  0.63141700  1
  H  117  1  0.07057900  0.26962800  0.57582500  1
  H  118  1  0.94461100  0.29641700  0.57507700  1
  H  119  1  0.94379900  0.29509600  0.63075800  1
  H  120  1  0.94094700  0.33460100  0.68300900  1
  H  121  1  0.06881400  0.33460400  0.67224800  1
  H  122  1  0.06952400  0.40657000  0.67700300  1
  H  123  1  0.94121900  0.40654000  0.68541100  1
  H  149  1  0.10696600  0.82352100  0.67361300  1
  H  150  1  0.05602900  0.78459500  0.64873700  1
  H  151  1  0.08031200  0.76544900  0.75954000  1
  H  152  1  0.03155300  0.72375400  0.73389700  1
  H  153  1  0.95013400  0.70598800  0.72359100  1
  H  154  1  0.89979200  0.74685300  0.74851400  1
  H  155  1  0.92769100  0.84443500  0.68769400  1
  H  156  1  0.97696400  0.80309300  0.66183400  1
  H  157  1  0.93902100  0.73891200  0.63070100  1
  H  158  1  0.93917700  0.73798400  0.57524800  1
  H  159  1  0.06363100  0.70483700  0.57563300  1
  H  160  1  0.06359200  0.70604900  0.63130200  1
  H  161  1  0.06677500  0.67127800  0.68801300  1
  H  162  1  0.94060800  0.66930600  0.66828300  1
  H  163  1  0.94082800  0.59687300  0.67210500  1
  H  164  1  0.06700100  0.59912600  0.69153200  1
  H  190  1  0.84686500  0.07717300  0.81633300  1
  H  191  1  0.80528900  0.02841400  0.84240800  1
  H  192  1  0.74852900  0.10727300  0.75686400  1
  H  193  1  0.70750900  0.05709300  0.78178500  1
  H  194  1  0.72426100  0.97428400  0.77108200  1
  H  195  1  0.76527800  0.92493400  0.74525400  1
  H  196  1  0.82577700  0.89991100  0.83046700  1
  H  197  1  0.78678400  0.95062900  0.85568200  1
  H  198  1  0.70767100  0.94281300  0.87356900  1
  H  199  1  0.70695000  0.94265700  0.92926400  1
  H  200  1  0.74163000  0.06669100  0.92964700  1
  H  201  1  0.74186800  0.06703700  0.87417500  1
  H  202  1  0.67133600  0.06601300  0.83700800  1
  H  203  1  0.67256400  0.93990900  0.81701600  1
  H  204  1  0.60046000  0.94009300  0.81347600  1
  H  205  1  0.59886900  0.06619000  0.83322600  1
  H  231  1  0.16485000  0.92102300  0.81981500  1
  H  232  1  0.20577100  0.97046100  0.84587800  1
  H  233  1  0.25687300  0.90563900  0.75169100  1
  H  234  1  0.29771400  0.95536400  0.77752000  1
  H  235  1  0.28705000  0.03531400  0.77253400  1
  H  236  1  0.24527400  0.08437400  0.74720100  1
  H  237  1  0.17761000  0.09951800  0.83059200  1
  H  238  1  0.21756000  0.04889500  0.85518200  1
  H  239  1  0.29610900  0.06291800  0.87421000  1
  H  240  1  0.29787600  0.06197700  0.92988800  1
  H  241  1  0.27376800  0.93546400  0.92904600  1
  H  242  1  0.27302100  0.93617500  0.87345000  1
  H  243  1  0.33644200  0.93772600  0.83150000  1
  H  244  1  0.33605100  0.06583600  0.82234800  1
  H  245  1  0.40803900  0.06581700  0.81999800  1
  H  246  1  0.40842400  0.93735100  0.82685700  1
  H  272  1  0.07994200  0.15997300  0.31608500  1
  H  273  1  0.03131400  0.20152800  0.34232700  1
  H  274  1  0.10956300  0.25829100  0.25644900  1
  H  275  1  0.05949800  0.29927600  0.28153600  1
  H  276  1  0.97668000  0.28260600  0.27113000  1
  H  277  1  0.92722100  0.24160400  0.24541300  1
  H  278  1  0.90268700  0.18094400  0.33064100  1
  H  279  1  0.95353800  0.21990200  0.35573100  1
  H  280  1  0.94568900  0.29882700  0.37370800  1
  H  281  1  0.94584400  0.29964800  0.42938200  1
  H  282  1  0.07008200  0.26569500  0.42938900  1
  H  283  1  0.07005900  0.26519200  0.37392200  1
  H  284  1  0.06876300  0.33542900  0.33671700  1
  H  285  1  0.94252300  0.33419800  0.31722000  1
  H  286  1  0.94268500  0.40632000  0.31370600  1
  H  287  1  0.06891500  0.40789500  0.33294800  1
  H  313  1  0.92418000  0.84221500  0.31984100  1
  H  314  1  0.97366700  0.80118800  0.34575600  1
  H  315  1  0.90748300  0.74978100  0.25222600  1
  H  316  1  0.95733600  0.70888900  0.27784800  1
  H  317  1  0.03738200  0.72002000  0.27231700  1
  H  318  1  0.08634400  0.76178900  0.24685600  1
  H  319  1  0.10268500  0.82873900  0.33045600  1
  H  320  1  0.05210800  0.78888100  0.35516400  1
  H  321  1  0.06573900  0.71029300  0.37398700  1
  H  322  1  0.06511900  0.70873000  0.42967800  1
  H  323  1  0.93874300  0.73356000  0.42921600  1
  H  324  1  0.93912800  0.73415000  0.37362100  1
  H  325  1  0.94046500  0.67030400  0.33188200  1
  H  326  1  0.06846300  0.67072900  0.32184000  1
  H  327  1  0.06843400  0.59874400  0.31949600  1
  H  328  1  0.94005000  0.59832600  0.32723500  1
  H  341  1  0.16776200  0.94613400  0.00188100  1
  H  342  1  0.40296500  0.05118800  0.00279300  1
  H  355  1  0.84427600  0.05302600  0.00195100  1
  H  356  1  0.60580900  0.95559000  0.00311100  1
  H  369  1  0.05854700  0.16391800  0.50232000  1
  H  370  1  0.95674400  0.40053800  0.50286900  1
  H  383  1  0.94995100  0.83976700  0.50147500  1
  H  384  1  0.05373700  0.60399800  0.50301900  1
  H  397  1  0.05312000  0.08684900  0.21724300  1
  H  398  1  0.25578400  0.21762600  0.28673700  1
  H  411  1  0.95591600  0.90078800  0.20212700  1
  H  412  1  0.75646400  0.80517600  0.30356700  1
  H  425  1  0.91973200  0.05069400  0.71734600  1
  H  426  1  0.78947700  0.25330400  0.78751100  1
  H  439  1  0.10686300  0.95332700  0.70124400  1
  H  440  1  0.20115500  0.75408600  0.80365300  1
  H  453  1  0.95508000  0.90621000  0.79743700  1
  H  454  1  0.75324300  0.79886500  0.70621200  1
  H  467  1  0.05122700  0.09129700  0.79243700  1
  H  468  1  0.25392300  0.21279400  0.71368000  1
  H  481  1  0.09488700  0.95547700  0.29313500  1
  H  482  1  0.21416700  0.75284300  0.21230700  1
  H  495  1  0.90871000  0.05170700  0.29757500  1
  H  496  1  0.80114900  0.25360600  0.20658300  1
  H  509  1  0.50825800  0.91407100  0.11065300  1
  H  510  1  0.50387400  0.09137800  0.25411000  1
  H  523  1  0.09208900  0.50566600  0.61015600  1
  H  524  1  0.91601900  0.50152000  0.75451100  1
  H  537  1  0.50569100  0.91406500  0.89422100  1
  H  538  1  0.50474400  0.09157000  0.75088100  1
  H  551  1  0.91715200  0.50107400  0.39451000  1
  H  552  1  0.09341300  0.50199900  0.25025100  1
  C  1  1  0.41700000  0.00133000  0.18222700  1
  C  2  1  0.39445600  0.96475500  0.17865600  1
  C  3  1  0.35155500  0.96506000  0.17647800  1
  C  4  1  0.32840300  0.00155000  0.17941400  1
  C  5  1  0.35138400  0.03812500  0.18257600  1
  C  6  1  0.39434900  0.03806000  0.18399700  1
  C  7  1  0.28231200  0.00171800  0.17324800  1
  C  8  1  0.28182000  0.00042100  0.13732300  1
  C  9  1  0.29154400  0.03577200  0.11944200  1
  C  10  1  0.29285000  0.03522000  0.08646200  1
  C  11  1  0.28513900  0.99885700  0.06969600  1
  C  12  1  0.27722700  0.96298700  0.08703500  1
  C  13  1  0.27652800  0.96367700  0.12004200  1
  C  14  1  0.25844000  0.96677300  0.18867800  1
  C  15  1  0.25987600  0.03845000  0.18737600  1
  C  16  1  0.22667100  0.05789700  0.17193900  1
  C  17  1  0.20218500  0.08725100  0.18696600  1
  C  18  1  0.20908400  0.09817600  0.21858500  1
  C  19  1  0.24200400  0.07926000  0.23434100  1
  C  20  1  0.26635600  0.04981400  0.21918800  1
  C  21  1  0.27191800  0.94651300  0.21632300  1
  C  22  1  0.24766300  0.91729200  0.23185100  1
  C  23  1  0.20807100  0.90818800  0.22092700  1
  C  24  1  0.19333700  0.92883300  0.19423900  1
  C  25  1  0.21800200  0.95752800  0.17866100  1
  C  42  1  0.59330700  0.00309100  0.18304300  1
  C  43  1  0.61487000  0.03948300  0.17666900  1
  C  44  1  0.65778100  0.03946500  0.17449200  1
  C  45  1  0.68150600  0.00379800  0.18004900  1
  C  46  1  0.65910000  0.96747500  0.18624200  1
  C  47  1  0.61614700  0.96703900  0.18770200  1
  C  48  1  0.72757000  0.00376200  0.17363800  1
  C  49  1  0.72808300  0.00448200  0.13766900  1
  C  50  1  0.71589900  0.96952400  0.12021100  1
  C  51  1  0.71486400  0.96934700  0.08721600  1
  C  52  1  0.72516500  0.00466500  0.06994600  1
  C  53  1  0.73538300  0.04030300  0.08686100  1
  C  54  1  0.73603900  0.04032000  0.11986400  1
  C  55  1  0.75129200  0.03923100  0.18854400  1
  C  56  1  0.75012300  0.96728900  0.18816200  1
  C  57  1  0.78060500  0.94469300  0.17197400  1
  C  58  1  0.80481500  0.91514600  0.18705200  1
  C  59  1  0.80097200  0.90746500  0.21955500  1
  C  60  1  0.77085900  0.92974600  0.23606300  1
  C  61  1  0.74624600  0.95882300  0.22075500  1
  C  62  1  0.73658000  0.06235500  0.21443700  1
  C  63  1  0.76081800  0.09189700  0.22962000  1
  C  64  1  0.80147500  0.09866100  0.22008700  1
  C  65  1  0.81724400  0.07546100  0.19503700  1
  C  66  1  0.79262800  0.04646900  0.17975000  1
  C  83  1  0.00546900  0.41451100  0.68228100  1
  C  84  1  0.04200300  0.39195300  0.67852600  1
  C  85  1  0.04166200  0.34904500  0.67640300  1
  C  86  1  0.00520800  0.32588500  0.67958400  1
  C  87  1  0.96867500  0.34890500  0.68288400  1
  C  88  1  0.96875800  0.39187000  0.68429900  1
  C  89  1  0.00499600  0.27979000  0.67345600  1
  C  90  1  0.00618300  0.27918600  0.63752800  1
  C  91  1  0.97084000  0.28910600  0.61969600  1
  C  92  1  0.97126400  0.29027100  0.58671000  1
  C  93  1  0.00749300  0.28220300  0.56987800  1
  C  94  1  0.04337500  0.27411300  0.58715400  1
  C  95  1  0.04281600  0.27356400  0.62016600  1
  C  96  1  0.03997400  0.25594000  0.68886900  1
  C  97  1  0.96826600  0.25743100  0.68765400  1
  C  98  1  0.94865900  0.22429000  0.67225000  1
  C  99  1  0.91931700  0.19984200  0.68732500  1
  C  100  1  0.90860000  0.20666300  0.71899500  1
  C  101  1  0.92770300  0.23947900  0.73474400  1
  C  102  1  0.95709800  0.26382100  0.71952100  1
  C  103  1  0.06046700  0.26953700  0.71638200  1
  C  104  1  0.08969100  0.24529400  0.73191900  1
  C  105  1  0.09851800  0.20554600  0.72119600  1
  C  106  1  0.07761700  0.19068000  0.69466600  1
  C  107  1  0.04897800  0.21536600  0.67904400  1
  C  124  1  0.00375100  0.59082200  0.68294800  1
  C  125  1  0.96731300  0.61237000  0.67670500  1
  C  126  1  0.96730700  0.65527700  0.67450700  1
  C  127  1  0.00301300  0.67900900  0.67991400  1
  C  128  1  0.03938400  0.65661500  0.68595800  1
  C  129  1  0.03983200  0.61366700  0.68746400  1
  C  130  1  0.00298400  0.72506400  0.67345600  1
  C  131  1  0.00213300  0.72550000  0.63749000  1
  C  132  1  0.03708700  0.71345900  0.61997300  1
  C  133  1  0.03712500  0.71234200  0.58698000  1
  C  134  1  0.00163600  0.72224300  0.56977000  1
  C  135  1  0.96599500  0.73222000  0.58677100  1
  C  136  1  0.96615000  0.73309600  0.61976900  1
  C  137  1  0.96753900  0.74880400  0.68836900  1
  C  138  1  0.03947400  0.74764700  0.68792300  1
  C  139  1  0.06205600  0.77809800  0.67169400  1
  C  140  1  0.09165600  0.80229700  0.68672500  1
  C  141  1  0.09939300  0.79849200  0.71922500  1
  C  142  1  0.07711500  0.76840800  0.73576900  1
  C  143  1  0.04800500  0.74378800  0.72050600  1
  C  144  1  0.94451600  0.73418300  0.71434100  1
  C  145  1  0.91502400  0.75847600  0.72952400  1
  C  146  1  0.90816100  0.79906300  0.71986100  1
  C  147  1  0.93126300  0.81474400  0.69472700  1
  C  148  1  0.96024900  0.79008700  0.67946600  1
  C  165  1  0.59247300  0.00334200  0.82224700  1
  C  166  1  0.61513300  0.96716700  0.81763500  1
  C  167  1  0.65808000  0.96738700  0.81912500  1
  C  168  1  0.68068800  0.00362300  0.82519600  1
  C  169  1  0.65714900  0.03940600  0.83076500  1
  C  170  1  0.61422900  0.03962000  0.82863800  1
  C  171  1  0.72681000  0.00335800  0.83140600  1
  C  172  1  0.72758900  0.00411700  0.86736700  1
  C  173  1  0.73585300  0.03994600  0.88509500  1
  C  174  1  0.73539500  0.03999000  0.91810000  1
  C  175  1  0.72514000  0.00442400  0.93509600  1
  C  176  1  0.71463800  0.96909900  0.91790100  1
  C  177  1  0.71547100  0.96920600  0.88490300  1
  C  178  1  0.74903900  0.96673000  0.81681900  1
  C  179  1  0.75071200  0.03864500  0.81640100  1
  C  180  1  0.79221800  0.04537200  0.82494700  1
  C  181  1  0.81703400  0.07405300  0.80952100  1
  C  182  1  0.80127700  0.09771700  0.78470500  1
  C  183  1  0.76031100  0.09167800  0.77561900  1
  C  184  1  0.73593600  0.06221400  0.79077600  1
  C  185  1  0.74455100  0.95794100  0.78432000  1
  C  186  1  0.76882300  0.92864100  0.76894300  1
  C  187  1  0.79935300  0.90675600  0.78527500  1
  C  188  1  0.80397000  0.91483500  0.81764700  1
  C  189  1  0.77984800  0.94435500  0.83283700  1
  C  206  1  0.41616600  0.00154400  0.82247500  1
  C  207  1  0.39343000  0.03822600  0.82080500  1
  C  208  1  0.35045900  0.03816300  0.82215300  1
  C  209  1  0.32758200  0.00149800  0.82510700  1
  C  210  1  0.35080100  0.96500800  0.82770200  1
  C  211  1  0.39370800  0.96485300  0.82564900  1
  C  212  1  0.28155500  0.00148900  0.83148100  1
  C  213  1  0.28139400  0.00024400  0.86741400  1
  C  214  1  0.27684900  0.96342400  0.88473100  1
  C  215  1  0.27764000  0.96277700  0.91773400  1
  C  216  1  0.28503100  0.99879300  0.93502600  1
  C  217  1  0.29224500  0.03522900  0.91822900  1
  C  218  1  0.29077500  0.03572700  0.88525200  1
  C  219  1  0.25880400  0.03804300  0.81740100  1
  C  220  1  0.25786900  0.96637900  0.81612700  1
  C  221  1  0.21792500  0.95613600  0.82672300  1
  C  222  1  0.19349400  0.92704400  0.81135000  1
  C  223  1  0.20769000  0.90759000  0.78397100  1
  C  224  1  0.24648700  0.91817800  0.77220400  1
  C  225  1  0.27075700  0.94727000  0.78783900  1
  C  226  1  0.26502300  0.04950000  0.78558500  1
  C  227  1  0.24031800  0.07870900  0.77050500  1
  C  228  1  0.20751800  0.09769100  0.78639700  1
  C  229  1  0.20102500  0.08674600  0.81808100  1
  C  230  1  0.22557900  0.05729700  0.83294500  1
  C  247  1  0.00599700  0.41428900  0.32221700  1
  C  248  1  0.96978300  0.39164100  0.31775800  1
  C  249  1  0.97000600  0.34869400  0.31925400  1
  C  250  1  0.00628600  0.32608600  0.32515200  1
  C  251  1  0.04211900  0.34961600  0.33057100  1
  C  252  1  0.04233200  0.39253300  0.32841300  1
  C  253  1  0.00609600  0.27996200  0.33135700  1
  C  254  1  0.00704300  0.27917900  0.36731600  1
  C  255  1  0.04301300  0.27113000  0.38493400  1
  C  256  1  0.04326700  0.27173100  0.41794100  1
  C  257  1  0.00776200  0.28186900  0.43505900  1
  C  258  1  0.97227200  0.29207400  0.41795300  1
  C  259  1  0.97218600  0.29118400  0.38495700  1
  C  260  1  0.96941400  0.25771900  0.31685900  1
  C  261  1  0.04132000  0.25608500  0.31624700  1
  C  262  1  0.04815800  0.21460100  0.32480000  1
  C  263  1  0.07674200  0.18979000  0.30926100  1
  C  264  1  0.10022400  0.20554400  0.28434200  1
  C  265  1  0.09407200  0.24648800  0.27524900  1
  C  266  1  0.06467700  0.27084600  0.29050000  1
  C  267  1  0.96045900  0.26224000  0.28438900  1
  C  268  1  0.93105900  0.23801000  0.26908400  1
  C  269  1  0.90927200  0.20744200  0.28545400  1
  C  270  1  0.91753700  0.20277300  0.31779300  1
  C  271  1  0.94713900  0.22687100  0.33291200  1
  C  288  1  0.00419100  0.59059300  0.32242600  1
  C  289  1  0.04084800  0.61333800  0.32050700  1
  C  290  1  0.04079400  0.65631200  0.32186300  1
  C  291  1  0.00416000  0.67918000  0.32505800  1
  C  292  1  0.96770700  0.65595200  0.32790100  1
  C  293  1  0.96753300  0.61304500  0.32584400  1
  C  294  1  0.00419200  0.72520400  0.33144800  1
  C  295  1  0.00310900  0.72536300  0.36738600  1
  C  296  1  0.96641600  0.73017100  0.38481400  1
  C  297  1  0.96596100  0.72946000  0.41781900  1
  C  298  1  0.00204500  0.72196500  0.43500100  1
  C  299  1  0.03833600  0.71446700  0.41809800  1
  C  300  1  0.03863700  0.71578600  0.38511200  1
  C  301  1  0.04070100  0.74794600  0.31727900  1
  C  302  1  0.96902000  0.74893500  0.31621600  1
  C  303  1  0.95908500  0.78899700  0.32672800  1
  C  304  1  0.92996600  0.81348900  0.31144200  1
  C  305  1  0.91010200  0.79919800  0.28426900  1
  C  306  1  0.92032700  0.76025000  0.27260300  1
  C  307  1  0.94949000  0.73594500  0.28812600  1
  C  308  1  0.05180700  0.74188600  0.28537200  1
  C  309  1  0.08091900  0.76661900  0.27021000  1
  C  310  1  0.10023100  0.79920400  0.28613000  1
  C  311  1  0.08965300  0.80549900  0.31791000  1
  C  312  1  0.06028700  0.78094100  0.33286300  1
  C  329  1  0.28542500  0.99830800  0.96836900  1
  C  330  1  0.25234000  0.98235900  0.98586700  1
  C  331  1  0.25256700  0.98262100  0.01867100  1
  C  332  1  0.28561400  0.99829900  0.03634200  1
  C  333  1  0.31875900  0.01412800  0.01883400  1
  C  334  1  0.31848700  0.01396700  0.98602400  1
  C  337  1  0.19654400  0.95813000  0.00162300  1
  C  340  1  0.37434900  0.03880100  0.00305700  1
  C  343  1  0.72503300  0.00441000  0.96849300  1
  C  344  1  0.75867800  0.01916400  0.98600600  1
  C  345  1  0.75843700  0.01906200  0.01881000  1
  C  346  1  0.72490200  0.00457400  0.03655200  1
  C  347  1  0.69130000  0.98970100  0.01905100  1
  C  348  1  0.69152000  0.98985700  0.98623300  1
  C  351  1  0.81512200  0.04196500  0.00171600  1
  C  354  1  0.63485200  0.96694400  0.00334200  1
  C  357  1  0.00794700  0.28217900  0.46847500  1
  C  358  1  0.02341100  0.24892500  0.48608800  1
  C  359  1  0.02323200  0.24927800  0.51889600  1
  C  360  1  0.00792400  0.28252700  0.53651900  1
  C  361  1  0.99245500  0.31577900  0.51895700  1
  C  362  1  0.99272700  0.31547400  0.48614200  1
  C  365  1  0.04713300  0.19293500  0.50199600  1
  C  368  1  0.96851600  0.37166500  0.50315700  1
  C  371  1  0.00174300  0.72177600  0.46834300  1
  C  372  1  0.98598000  0.75502000  0.48575300  1
  C  373  1  0.98619000  0.75491900  0.51855800  1
  C  374  1  0.00157200  0.72182100  0.53636400  1
  C  375  1  0.01726800  0.68854000  0.51890600  1
  C  376  1  0.01725200  0.68873600  0.48609000  1
  C  379  1  0.96196500  0.81099200  0.50130900  1
  C  382  1  0.04181600  0.63281300  0.50322500  1
  C  385  1  0.12724000  0.17982100  0.26756100  1
  C  386  1  0.11251200  0.14707500  0.24918800  1
  C  387  1  0.13922900  0.12111200  0.23316800  1
  C  388  1  0.18225500  0.12552900  0.23451100  1
  C  389  1  0.19683000  0.15819900  0.25323000  1
  C  390  1  0.17006500  0.18451800  0.26892000  1
  C  393  1  0.07738800  0.10325600  0.22546000  1
  C  396  1  0.23159300  0.20171200  0.27784400  1
  C  399  1  0.88292400  0.82488300  0.26777000  1
  C  400  1  0.89719100  0.85238800  0.24477300  1
  C  401  1  0.87045600  0.87886700  0.22925900  1
  C  402  1  0.82783500  0.87976100  0.23531000  1
  C  403  1  0.81388600  0.85205500  0.25856500  1
  C  404  1  0.84067000  0.82566500  0.27415800  1
  C  407  1  0.93184300  0.88830100  0.21395800  1
  C  410  1  0.78015900  0.81690200  0.29085900  1
  C  413  1  0.82702600  0.12477300  0.76798800  1
  C  414  1  0.85967200  0.11006000  0.74950400  1
  C  415  1  0.88561700  0.13679500  0.73348600  1
  C  416  1  0.88130900  0.17982400  0.73496900  1
  C  417  1  0.84874600  0.19438400  0.75380700  1
  C  418  1  0.82244100  0.16760200  0.76949200  1
  C  421  1  0.90333400  0.07495300  0.72559200  1
  C  424  1  0.80537100  0.22912300  0.77858200  1
  C  427  1  0.18204300  0.88042400  0.76742700  1
  C  428  1  0.15477800  0.89465400  0.74424700  1
  C  429  1  0.12825100  0.86793400  0.72875700  1
  C  430  1  0.12715100  0.82535000  0.73494500  1
  C  431  1  0.15468800  0.81143100  0.75833700  1
  C  432  1  0.18105200  0.83821300  0.77395800  1
  C  435  1  0.11908000  0.92929400  0.71328300  1
  C  438  1  0.18945000  0.77777800  0.79093400  1
  C  441  1  0.88106500  0.82470900  0.73652000  1
  C  442  1  0.89573500  0.85403300  0.75801800  1
  C  443  1  0.86903000  0.88020700  0.77384600  1
  C  444  1  0.82611600  0.87923000  0.76937700  1
  C  445  1  0.81171200  0.84988700  0.74754800  1
  C  446  1  0.83842000  0.82350600  0.73187200  1
  C  449  1  0.93082000  0.89251400  0.78667100  1
  C  452  1  0.77726500  0.81194700  0.71771900  1
  C  455  1  0.12554000  0.17985900  0.73790400  1
  C  456  1  0.11078100  0.14849500  0.75758800  1
  C  457  1  0.13753100  0.12229700  0.77336500  1
  C  458  1  0.18060700  0.12523400  0.77061300  1
  C  459  1  0.19511300  0.15666500  0.75060500  1
  C  460  1  0.16834200  0.18303800  0.73497800  1
  C  463  1  0.07555100  0.10674000  0.78326900  1
  C  466  1  0.22977500  0.19798200  0.72369700  1
  C  469  1  0.18237700  0.88116000  0.23760600  1
  C  470  1  0.15137500  0.89591800  0.25762200  1
  C  471  1  0.12517000  0.86917000  0.27339100  1
  C  472  1  0.12775100  0.82610700  0.27031100  1
  C  473  1  0.15882600  0.81161400  0.24997200  1
  C  474  1  0.18519400  0.83837700  0.23433600  1
  C  477  1  0.11011100  0.93115000  0.28376000  1
  C  480  1  0.19955100  0.77698100  0.22250700  1
  C  483  1  0.82707800  0.12575900  0.23678700  1
  C  484  1  0.85645100  0.11108200  0.25824600  1
  C  485  1  0.88265300  0.13777900  0.27405700  1
  C  486  1  0.88166600  0.18069500  0.26961000  1
  C  487  1  0.85225300  0.19511300  0.24784200  1
  C  488  1  0.82585700  0.16840900  0.23217000  1
  C  491  1  0.89501100  0.07597300  0.28681700  1
  C  494  1  0.81429800  0.22957100  0.21802800  1
  C  497  1  0.54983700  0.00235900  0.18312600  1
  C  498  1  0.52743700  0.97610600  0.16317800  1
  C  499  1  0.48467900  0.97614000  0.16289900  1
  C  500  1  0.46084400  0.00143100  0.18280700  1
  C  501  1  0.48356500  0.02750900  0.20290400  1
  C  502  1  0.52633200  0.02794100  0.20279500  1
  C  505  1  0.50807800  0.93482000  0.12854100  1
  C  508  1  0.50378500  0.07003700  0.23663700  1
  C  511  1  0.00447900  0.54735500  0.68307000  1
  C  512  1  0.03052800  0.52492200  0.66298800  1
  C  513  1  0.03051800  0.48216400  0.66276800  1
  C  514  1  0.00537700  0.45835900  0.68281400  1
  C  515  1  0.97948900  0.48112000  0.70303100  1
  C  516  1  0.97908600  0.52388400  0.70290700  1
  C  519  1  0.07161800  0.50551000  0.62823100  1
  C  522  1  0.93723800  0.50139800  0.73695100  1
  C  525  1  0.46000800  0.00176100  0.82222600  1
  C  526  1  0.48347700  0.97619500  0.84220400  1
  C  527  1  0.52622500  0.97676900  0.84189000  1
  C  528  1  0.54899800  0.00280800  0.82204800  1
  C  529  1  0.52585300  0.02873500  0.80237000  1
  C  530  1  0.48308900  0.02778700  0.80235800  1
  C  533  1  0.50495200  0.93460600  0.87620200  1
  C  536  1  0.50520500  0.07041400  0.76848100  1
  C  539  1  0.00441500  0.54674800  0.32218900  1
  C  540  1  0.97909200  0.52328200  0.34235200  1
  C  541  1  0.97969700  0.48053700  0.34206400  1
  C  542  1  0.00547300  0.45776100  0.32202200  1
  C  543  1  0.03115600  0.48090300  0.30215200  1
  C  544  1  0.03024900  0.52366700  0.30217300  1
  C  547  1  0.93795200  0.50180700  0.37666900  1
  C  550  1  0.07246800  0.50153800  0.26799800  1
  N  335  1  0.21690900  0.96731300  0.02799900  1
  N  338  1  0.35398800  0.02960200  0.97668100  1
  N  349  1  0.79451400  0.03340900  0.02809800  1
  N  352  1  0.65546100  0.97546200  0.97695000  1
  N  363  1  0.03812900  0.21348700  0.52831700  1
  N  366  1  0.97762400  0.35121900  0.47680300  1
  N  377  1  0.97099500  0.79069500  0.52774500  1
  N  380  1  0.03271100  0.65312500  0.47681000  1
  N  391  1  0.11615300  0.09349700  0.21859800  1
  N  394  1  0.19275200  0.21151600  0.28443100  1
  N  405  1  0.89337800  0.90147200  0.21014200  1
  N  408  1  0.81872800  0.80395700  0.29446000  1
  N  419  1  0.91315900  0.11373000  0.71882400  1
  N  422  1  0.79550700  0.19027300  0.78508300  1
  N  433  1  0.10582400  0.89085000  0.70951300  1
  N  436  1  0.20254600  0.81631300  0.79442200  1
  N  447  1  0.89215700  0.90443000  0.79159100  1
  N  450  1  0.81599200  0.80005000  0.71308800  1
  N  461  1  0.11431800  0.09596800  0.78916700  1
  N  464  1  0.19091800  0.20864900  0.71805000  1
  N  475  1  0.09913500  0.89239200  0.28947300  1
  N  478  1  0.21045200  0.81582800  0.21708000  1
  N  489  1  0.90692400  0.11463300  0.29175000  1
  N  492  1  0.80237900  0.19084600  0.21340700  1
  N  503  1  0.47342300  0.94996300  0.14058500  1
  N  506  1  0.53826000  0.05492500  0.22427900  1
  N  517  1  0.05651900  0.47087400  0.64034300  1
  N  520  1  0.95226200  0.53585200  0.72449400  1
  N  531  1  0.53893800  0.95048200  0.86363000  1
  N  534  1  0.47099600  0.05426500  0.78052500  1
  N  545  1  0.95357800  0.46781800  0.36391900  1
  N  548  1  0.05645900  0.53575100  0.28015000  1
  O  336  1  0.21666400  0.96706900  0.97436000  1
  O  339  1  0.35429000  0.02975600  0.03032700  1
  O  350  1  0.79478600  0.03341100  0.97448700  1
  O  353  1  0.65522500  0.97539800  0.03057600  1
  O  364  1  0.03822200  0.21297300  0.47469900  1
  O  367  1  0.97730900  0.35153000  0.53043300  1
  O  378  1  0.97080000  0.79067400  0.47412200  1
  O  381  1  0.03256100  0.65288100  0.53044300  1
  O  392  1  0.07274700  0.13652300  0.24450300  1
  O  395  1  0.23647500  0.16893600  0.25829500  1
  O  406  1  0.93659700  0.85766000  0.23541700  1
  O  409  1  0.77476400  0.84650500  0.26859800  1
  O  420  1  0.87013500  0.07029400  0.74470200  1
  O  423  1  0.83809000  0.23402700  0.75897700  1
  O  434  1  0.14969400  0.93403200  0.73476500  1
  O  437  1  0.16006300  0.77234300  0.76851100  1
  O  448  1  0.93542100  0.86108300  0.76586700  1
  O  451  1  0.77222700  0.84265200  0.73914000  1
  O  462  1  0.07097100  0.13936600  0.76358200  1
  O  465  1  0.23474000  0.16605900  0.74404500  1
  O  476  1  0.14256700  0.93572400  0.26390700  1
  O  479  1  0.16788500  0.77200100  0.24308900  1
  O  490  1  0.86352200  0.07138800  0.26606200  1
  O  493  1  0.84500600  0.23460100  0.23944800  1
  O  504  1  0.54313000  0.95003900  0.14138000  1
  O  507  1  0.46852000  0.05390100  0.22477400  1
  O  518  1  0.05643900  0.54058400  0.64106800  1
  O  521  1  0.95326900  0.46611400  0.72504100  1
  O  532  1  0.46925200  0.94995400  0.86451200  1
  O  535  1  0.54074600  0.05565400  0.78087200  1
  O  546  1  0.95299800  0.53751200  0.36476300  1
  O  549  1  0.05785700  0.46600100  0.28049700  1
