# generated using pymatgen
data_CoH16C19N3O2
_symmetry_space_group_name_H-M   'P 1'
_cell_length_a   9.89114762
_cell_length_b   10.91035000
_cell_length_c   20.36043000
_cell_angle_alpha   87.31945000
_cell_angle_beta   84.10556722
_cell_angle_gamma   63.05225464
_symmetry_Int_Tables_number   1
_chemical_formula_structural   CoH16C19N3O2
_chemical_formula_sum   'Co4 H64 C76 N12 O8'
_cell_volume   1948.28495052
_cell_formula_units_Z   4
loop_
 _symmetry_equiv_pos_site_id
 _symmetry_equiv_pos_as_xyz
  1  'x, y, z'
loop_
 _atom_site_type_symbol
 _atom_site_label
 _atom_site_symmetry_multiplicity
 _atom_site_fract_x
 _atom_site_fract_y
 _atom_site_fract_z
 _atom_site_occupancy
  Co  Co0  1  0.40740000  0.03319000  0.46638000  1
  Co  Co1  1  0.55979000  0.03230000  0.03381000  1
  Co  Co2  1  0.59292000  0.96755000  0.53336000  1
  Co  Co3  1  0.44018000  0.96778000  0.96604000  1
  H  H4  1  0.69809000  0.89828000  0.85561000  1
  H  H5  1  0.26979000  0.22747000  0.88901000  1
  H  H6  1  0.20007000  0.32619000  0.51540000  1
  H  H7  1  0.80303000  0.13735000  0.68965000  1
  H  H8  1  0.97408000  0.44464000  0.59427000  1
  H  H9  1  0.91508000  0.07455000  0.59761000  1
  H  H10  1  0.33461000  0.37313000  0.80977000  1
  H  H11  1  0.14892000  0.96998000  0.52251000  1
  H  H12  1  0.44729000  0.50250000  0.78416000  1
  H  H13  1  0.73524000  0.54757000  0.63455000  1
  H  H14  1  0.78382000  0.03068000  0.77592000  1
  H  H15  1  0.50279000  0.40510000  0.41652000  1
  H  H16  1  0.35867000  0.44579000  0.55911000  1
  H  H17  1  0.26176000  0.48341000  0.48704000  1
  H  H18  1  0.75337000  0.30362000  0.46644000  1
  H  H19  1  0.65655000  0.33929000  0.54567000  1
  H  H20  1  0.40350000  0.89827000  0.64421000  1
  H  H21  1  0.49873000  0.22943000  0.60917000  1
  H  H22  1  0.47388000  0.32443000  0.98450000  1
  H  H23  1  0.05761000  0.13742000  0.80970000  1
  H  H24  1  0.58119000  0.44352000  0.90583000  1
  H  H25  1  0.01112000  0.07474000  0.90317000  1
  H  H26  1  0.28750000  0.37519000  0.68791000  1
  H  H27  1  0.88193000  0.96924000  0.97790000  1
  H  H28  1  0.04535000  0.50309000  0.71420000  1
  H  H29  1  0.71618000  0.54748000  0.86545000  1
  H  H30  1  0.18584000  0.02993000  0.72396000  1
  H  H31  1  0.09213000  0.40460000  0.08321000  1
  H  H32  1  0.19669000  0.44567000  0.94075000  1
  H  H33  1  0.25486000  0.48285000  0.01337000  1
  H  H34  1  0.94201000  0.30445000  0.03405000  1
  H  H35  1  0.00360000  0.33771000  0.95445000  1
  H  H36  1  0.30410000  0.10154000  0.14463000  1
  H  H37  1  0.73132000  0.77117000  0.11051000  1
  H  H38  1  0.80012000  0.67468000  0.48366000  1
  H  H39  1  0.19850000  0.86274000  0.31033000  1
  H  H40  1  0.02621000  0.55662000  0.40468000  1
  H  H41  1  0.08658000  0.92577000  0.40272000  1
  H  H42  1  0.66592000  0.62551000  0.18949000  1
  H  H43  1  0.85289000  0.03012000  0.47778000  1
  H  H44  1  0.55220000  0.49724000  0.21515000  1
  H  H45  1  0.26566000  0.45282000  0.36561000  1
  H  H46  1  0.21800000  0.96930000  0.22433000  1
  H  H47  1  0.49839000  0.59575000  0.58312000  1
  H  H48  1  0.64349000  0.55430000  0.44056000  1
  H  H49  1  0.73876000  0.51710000  0.51316000  1
  H  H50  1  0.24790000  0.69634000  0.53417000  1
  H  H51  1  0.34235000  0.66245000  0.45456000  1
  H  H52  1  0.59820000  0.10114000  0.35673000  1
  H  H53  1  0.50165000  0.77043000  0.39058000  1
  H  H54  1  0.52607000  0.67370000  0.01483000  1
  H  H55  1  0.94128000  0.86312000  0.18994000  1
  H  H56  1  0.41814000  0.55542000  0.09377000  1
  H  H57  1  0.98982000  0.92632000  0.09745000  1
  H  H58  1  0.71244000  0.62523000  0.31151000  1
  H  H59  1  0.11939000  0.03058000  0.02225000  1
  H  H60  1  0.95458000  0.49771000  0.28599000  1
  H  H61  1  0.28304000  0.45302000  0.13434000  1
  H  H62  1  0.81591000  0.96968000  0.27679000  1
  H  H63  1  0.90681000  0.59643000  0.91629000  1
  H  H64  1  0.80266000  0.55475000  0.05878000  1
  H  H65  1  0.74448000  0.51745000  0.98627000  1
  H  H66  1  0.05690000  0.69621000  0.96593000  1
  H  H67  1  0.99557000  0.66210000  0.04541000  1
  C  C68  1  0.62199000  0.00464000  0.84472000  1
  C  C69  1  0.38327000  0.18844000  0.86355000  1
  C  C70  1  0.56946000  0.21889000  0.78621000  1
  C  C71  1  0.51254000  0.23545000  0.47455000  1
  C  C72  1  0.13420000  0.27403000  0.53562000  1
  C  C73  1  0.92313000  0.26966000  0.60630000  1
  C  C74  1  0.61761000  0.30544000  0.74279000  1
  C  C75  1  0.74261000  0.24848000  0.69525000  1
  C  C76  1  0.00583000  0.33993000  0.57940000  1
  C  C77  1  0.79146000  0.33145000  0.65532000  1
  C  C78  1  0.97601000  0.13440000  0.58272000  1
  C  C79  1  0.42174000  0.26989000  0.81919000  1
  C  C80  1  0.10582000  0.07509000  0.53945000  1
  C  C81  1  0.54372000  0.45108000  0.74754000  1
  C  C82  1  0.70716000  0.47588000  0.66493000  1
  C  C83  1  0.66802000  0.07988000  0.79940000  1
  C  C84  1  0.50897000  0.37557000  0.46897000  1
  C  C85  1  0.36161000  0.48039000  0.50759000  1
  C  C86  1  0.64854000  0.37641000  0.49451000  1
  C  C87  1  0.37244000  0.00497000  0.65466000  1
  C  C88  1  0.42497000  0.18994000  0.63490000  1
  C  C89  1  0.20928000  0.21949000  0.71274000  1
  C  C90  1  0.25226000  0.23523000  0.02504000  1
  C  C91  1  0.59178000  0.27236000  0.96411000  1
  C  C92  1  0.80706000  0.26884000  0.89364000  1
  C  C93  1  0.07461000  0.30565000  0.75628000  1
  C  C94  1  0.00731000  0.24854000  0.80417000  1
  C  C95  1  0.65403000  0.33864000  0.92048000  1
  C  C96  1  0.87605000  0.33127000  0.84447000  1
  C  C97  1  0.88991000  0.13381000  0.91746000  1
  C  C98  1  0.30467000  0.27136000  0.67912000  1
  C  C99  1  0.81956000  0.07403000  0.96056000  1
  C  C100  1  0.00196000  0.45130000  0.75136000  1
  C  C101  1  0.81542000  0.47576000  0.83482000  1
  C  C102  1  0.25113000  0.07997000  0.70002000  1
  C  C103  1  0.11549000  0.37532000  0.03073000  1
  C  C104  1  0.15846000  0.48013000  0.99228000  1
  C  C105  1  0.97485000  0.37619000  0.00535000  1
  C  C106  1  0.37988000  0.99505000  0.15544000  1
  C  C107  1  0.61799000  0.81060000  0.13614000  1
  C  C108  1  0.43181000  0.78069000  0.21367000  1
  C  C109  1  0.48791000  0.76528000  0.52503000  1
  C  C110  1  0.86618000  0.72685000  0.46373000  1
  C  C111  1  0.07779000  0.73103000  0.39346000  1
  C  C112  1  0.38337000  0.69439000  0.25705000  1
  C  C113  1  0.25868000  0.75160000  0.30470000  1
  C  C114  1  0.99452000  0.66106000  0.41994000  1
  C  C115  1  0.20960000  0.66880000  0.34458000  1
  C  C116  1  0.02530000  0.86606000  0.41726000  1
  C  C117  1  0.57925000  0.72920000  0.18041000  1
  C  C118  1  0.89547000  0.92528000  0.46055000  1
  C  C119  1  0.45661000  0.54880000  0.25212000  1
  C  C120  1  0.29356000  0.52434000  0.33499000  1
  C  C121  1  0.33366000  0.91994000  0.20074000  1
  C  C122  1  0.49202000  0.62500000  0.53064000  1
  C  C123  1  0.63945000  0.52009000  0.49213000  1
  C  C124  1  0.35211000  0.62417000  0.50549000  1
  C  C125  1  0.62859000  0.99483000  0.34575000  1
  C  C126  1  0.57523000  0.81014000  0.36490000  1
  C  C127  1  0.79075000  0.78093000  0.28713000  1
  C  C128  1  0.74751000  0.76528000  0.97473000  1
  C  C129  1  0.40826000  0.72632000  0.03533000  1
  C  C130  1  0.19298000  0.73108000  0.10625000  1
  C  C131  1  0.92525000  0.69484000  0.24359000  1
  C  C132  1  0.99222000  0.75200000  0.19562000  1
  C  C133  1  0.34576000  0.66050000  0.07914000  1
  C  C134  1  0.12365000  0.66914000  0.15546000  1
  C  C135  1  0.11069000  0.86639000  0.08269000  1
  C  C136  1  0.69527000  0.72899000  0.32052000  1
  C  C137  1  0.18126000  0.92556000  0.03936000  1
  C  C138  1  0.99788000  0.54925000  0.24867000  1
  C  C139  1  0.18412000  0.52469000  0.16513000  1
  C  C140  1  0.74976000  0.92006000  0.30029000  1
  C  C141  1  0.88394000  0.62507000  0.96887000  1
  C  C142  1  0.84094000  0.52023000  0.00727000  1
  C  C143  1  0.02445000  0.62404000  0.99441000  1
  N  N144  1  0.48215000  0.05782000  0.87936000  1
  N  N145  1  0.18880000  0.14152000  0.51589000  1
  N  N146  1  0.58579000  0.53360000  0.70934000  1
  N  N147  1  0.45825000  0.05865000  0.61965000  1
  N  N148  1  0.66987000  0.13986000  0.98377000  1
  N  N149  1  0.87792000  0.53357000  0.78989000  1
  N  N150  1  0.51949000  0.94160000  0.12061000  1
  N  N151  1  0.81208000  0.85905000  0.48383000  1
  N  N152  1  0.41456000  0.46641000  0.29043000  1
  N  N153  1  0.54231000  0.94125000  0.38040000  1
  N  N154  1  0.33065000  0.85903000  0.01578000  1
  N  N155  1  0.12170000  0.46686000  0.21007000  1
  O  O156  1  0.60922000  0.14383000  0.50974000  1
  O  O157  1  0.41380000  0.21676000  0.44630000  1
  O  O158  1  0.24754000  0.14402000  0.98951000  1
  O  O159  1  0.36929000  0.21594000  0.05370000  1
  O  O160  1  0.39122000  0.85654000  0.48974000  1
  O  O161  1  0.58557000  0.78491000  0.55360000  1
  O  O162  1  0.75236000  0.85614000  0.01041000  1
  O  O163  1  0.63051000  0.78490000  0.94597000  1
