# generated using pymatgen
data_H40C57(NO)4
_symmetry_space_group_name_H-M   'P 1'
_cell_length_a   36.99620000
_cell_length_b   56.25265000
_cell_length_c   56.25260000
_cell_angle_alpha   119.99991179
_cell_angle_beta   90.00450000
_cell_angle_gamma   90.00000001
_symmetry_Int_Tables_number   1
_chemical_formula_structural   H40C57(NO)4
_chemical_formula_sum   'H240 C342 N24 O24'
_cell_volume   101385.00368003
_cell_formula_units_Z   6
loop_
 _symmetry_equiv_pos_site_id
 _symmetry_equiv_pos_as_xyz
  1  'x, y, z'
loop_
 _atom_site_type_symbol
 _atom_site_label
 _atom_site_symmetry_multiplicity
 _atom_site_fract_x
 _atom_site_fract_y
 _atom_site_fract_z
 _atom_site_occupancy
  H  25  1  0.64976400  0.50474500  0.46881900  1
  H  26  1  0.71246800  0.49359100  0.46689800  1
  H  27  1  0.77796900  0.48958000  0.46521500  1
  H  28  1  0.84242000  0.49433200  0.46549400  1
  H  29  1  0.83092100  0.55895100  0.44795500  1
  H  30  1  0.67498000  0.56685100  0.44972400  1
  H  31  1  0.74379100  0.51236400  0.39076100  1
  H  32  1  0.75758600  0.56302000  0.35552800  1
  H  33  1  0.76731900  0.60205800  0.40029500  1
  H  34  1  0.74734800  0.59444700  0.50449900  1
  H  35  1  0.78121900  0.63575300  0.44964500  1
  H  36  1  0.78240900  0.66296400  0.49861100  1
  H  70  1  0.64982100  0.96090700  0.49328000  1
  H  71  1  0.71254400  0.97014300  0.50436200  1
  H  72  1  0.77806400  0.97253200  0.50819800  1
  H  73  1  0.84250200  0.96807700  0.50342300  1
  H  74  1  0.83100000  0.88599300  0.43864300  1
  H  75  1  0.67504300  0.87985600  0.43081700  1
  H  76  1  0.74397700  0.87531900  0.48525700  1
  H  77  1  0.75772700  0.78943200  0.43453300  1
  H  78  1  0.76735700  0.79519600  0.39550800  1
  H  79  1  0.74754000  0.90709500  0.40325200  1
  H  80  1  0.78121300  0.81088900  0.36184800  1
  H  81  1  0.78250600  0.83269500  0.33468500  1
  H  115  1  0.64873700  0.53016400  0.03713900  1
  H  116  1  0.71143000  0.53175100  0.02768700  1
  H  117  1  0.77696800  0.53263600  0.02497400  1
  H  118  1  0.84141400  0.53179700  0.02912500  1
  H  119  1  0.83029800  0.54931100  0.11129900  1
  H  120  1  0.67437500  0.54833400  0.11800000  1
  H  121  1  0.74350100  0.60706700  0.12227300  1
  H  122  1  0.75764400  0.64224400  0.20812700  1
  H  123  1  0.76716800  0.59744300  0.20236500  1
  H  124  1  0.74634300  0.49331600  0.09061800  1
  H  125  1  0.78080400  0.54805800  0.18666500  1
  H  126  1  0.78167500  0.49909600  0.16492200  1
  H  160  1  0.14912400  0.49203800  0.53086800  1
  H  161  1  0.21179500  0.50325000  0.53278500  1
  H  162  1  0.27729400  0.50704100  0.53402200  1
  H  163  1  0.34173600  0.50213000  0.53334600  1
  H  164  1  0.33051800  0.43729800  0.55060000  1
  H  165  1  0.17460200  0.42941800  0.54917100  1
  H  166  1  0.24360100  0.48393600  0.60824300  1
  H  167  1  0.25759200  0.43310800  0.64326500  1
  H  168  1  0.26716600  0.39413300  0.59843500  1
  H  169  1  0.24682100  0.40205700  0.49442400  1
  H  170  1  0.28087300  0.36052200  0.54903800  1
  H  171  1  0.28196500  0.33341500  0.50006400  1
  H  205  1  0.14915700  0.03581600  0.50503500  1
  H  206  1  0.21187100  0.02650300  0.49400000  1
  H  207  1  0.27741600  0.02392600  0.49040700  1
  H  208  1  0.34185200  0.02819600  0.49541200  1
  H  209  1  0.33049400  0.11024700  0.56026900  1
  H  210  1  0.17455900  0.11665500  0.56788900  1
  H  211  1  0.24367700  0.12113200  0.51343100  1
  H  212  1  0.25770500  0.20699200  0.56414500  1
  H  213  1  0.26721500  0.20121600  0.60317800  1
  H  214  1  0.24674500  0.08939600  0.59548300  1
  H  215  1  0.28087800  0.18551100  0.63684300  1
  H  216  1  0.28194300  0.16373400  0.66402900  1
  H  250  1  0.14998400  0.46774900  0.96233500  1
  H  251  1  0.21266600  0.46566500  0.97152700  1
  H  252  1  0.27815900  0.46375400  0.97379500  1
  H  253  1  0.34261400  0.46392700  0.96930300  1
  H  254  1  0.33113700  0.44657800  0.88720300  1
  H  255  1  0.17521600  0.44860100  0.88112100  1
  H  256  1  0.24386100  0.38950500  0.87660400  1
  H  257  1  0.25767600  0.35426600  0.79071500  1
  H  258  1  0.26751200  0.39903000  0.79645400  1
  H  259  1  0.24764200  0.50323500  0.90828600  1
  H  260  1  0.28144800  0.44837800  0.81211300  1
  H  261  1  0.28267600  0.49734900  0.83387800  1
  H  277  1  0.96024800  0.52633300  0.46266500  1
  H  284  1  0.99261100  0.45991400  0.50250600  1
  H  285  1  0.03994500  0.44453000  0.52059000  1
  H  286  1  0.08528800  0.52359800  0.55987100  1
  H  287  1  0.89513700  0.53327700  0.52704300  1
  H  289  1  0.91525400  0.52262600  0.56013600  1
  H  290  1  0.96206200  0.52789500  0.56643000  1
  H  291  1  0.94466600  0.49417600  0.54591000  1
  H  292  1  0.00844800  0.50836500  0.47731600  1
  H  294  1  0.01238600  0.55890400  0.55546800  1
  H  295  1  0.03945400  0.55091200  0.52633200  1
  H  296  1  0.05987200  0.56096000  0.55829200  1
  H  298  1  0.10485700  0.48954800  0.57016000  1
  H  300  1  0.87707000  0.55280300  0.50023500  1
  H  307  1  0.96046000  0.93322400  0.47101300  1
  H  314  1  0.99252900  0.03970300  0.53736000  1
  H  315  1  0.03978100  0.07322700  0.55266500  1
  H  316  1  0.08535000  0.03313000  0.47368100  1
  H  317  1  0.89507300  0.99064700  0.46426600  1
  H  319  1  0.91508600  0.03439000  0.47485600  1
  H  320  1  0.96186900  0.03547400  0.46954400  1
  H  321  1  0.94454800  0.04864200  0.50327700  1
  H  322  1  0.00863100  0.96588100  0.48891100  1
  H  324  1  0.01247800  0.99333200  0.43840600  1
  H  325  1  0.03958600  0.97227400  0.44649400  1
  H  326  1  0.05996400  0.99413500  0.43636800  1
  H  328  1  0.10466800  0.07753900  0.50756400  1
  H  330  1  0.87711600  0.94427700  0.44472400  1
  H  337  1  0.95923600  0.53492400  0.06386100  1
  H  344  1  0.99294100  0.49500900  0.95788100  1
  H  345  1  0.04067800  0.47718600  0.92474300  1
  H  346  1  0.08607200  0.43844500  0.96504900  1
  H  347  1  0.89534300  0.46982100  0.00608400  1
  H  349  1  0.91622500  0.43674400  0.96260100  1
  H  350  1  0.96310800  0.43089500  0.96201300  1
  H  351  1  0.94560200  0.45110600  0.94849500  1
  H  352  1  0.00786100  0.52057300  0.03164200  1
  H  354  1  0.01292400  0.44251400  0.00439100  1
  H  355  1  0.03955600  0.47189800  0.02561100  1
  H  356  1  0.06044200  0.44006900  0.00394900  1
  H  358  1  0.10575500  0.42802700  0.92070500  1
  H  360  1  0.87626400  0.49674000  0.05202300  1
  H  367  1  0.45968000  0.47013300  0.53605300  1
  H  374  1  0.49295100  0.53631400  0.49621900  1
  H  375  1  0.54051500  0.55170100  0.47832500  1
  H  376  1  0.58593600  0.47266200  0.43931600  1
  H  377  1  0.39530900  0.46313300  0.47129800  1
  H  379  1  0.41597800  0.47354100  0.43817500  1
  H  380  1  0.46282100  0.46821000  0.43213300  1
  H  381  1  0.44544400  0.50195900  0.45247800  1
  H  382  1  0.50822300  0.48793100  0.52154800  1
  H  384  1  0.51289100  0.43732700  0.44345100  1
  H  385  1  0.53968300  0.44539700  0.47273700  1
  H  386  1  0.56039800  0.43531600  0.44087100  1
  H  388  1  0.60566800  0.50670000  0.42901600  1
  H  390  1  0.37636400  0.44409500  0.49825300  1
  H  397  1  0.45940200  0.06268000  0.52720700  1
  H  404  1  0.49280200  0.95659300  0.46116900  1
  H  405  1  0.54041500  0.92335200  0.44591800  1
  H  406  1  0.58575200  0.96365500  0.52498400  1
  H  407  1  0.39512800  0.00497300  0.53435300  1
  H  409  1  0.41583500  0.96145900  0.52398100  1
  H  410  1  0.46268600  0.96078400  0.52930700  1
  H  411  1  0.44528400  0.94731400  0.49555600  1
  H  412  1  0.50794700  0.03039000  0.50941300  1
  H  414  1  0.51265600  0.00313000  0.56017800  1
  H  415  1  0.53942300  0.02430100  0.55203300  1
  H  416  1  0.56016300  0.00261300  0.56222900  1
  H  418  1  0.60543500  0.91923500  0.49107600  1
  H  420  1  0.37617700  0.05093700  0.55336400  1
  H  427  1  0.46043700  0.46130100  0.93466900  1
  H  434  1  0.49216200  0.50206600  0.04123900  1
  H  435  1  0.53936900  0.52036300  0.07480300  1
  H  436  1  0.58528700  0.55882100  0.03439800  1
  H  437  1  0.39509500  0.52582400  0.99163800  1
  H  439  1  0.41503200  0.55917500  0.03532700  1
  H  440  1  0.46184500  0.56548200  0.03643800  1
  H  441  1  0.44433800  0.54514900  0.04981400  1
  H  442  1  0.50849600  0.47621300  0.96742700  1
  H  444  1  0.51257500  0.55415600  0.99440500  1
  H  445  1  0.53962600  0.52492300  0.97350700  1
  H  446  1  0.56007100  0.55691500  0.99524700  1
  H  448  1  0.60444900  0.56955200  0.07891700  1
  H  450  1  0.37718800  0.49868800  0.94526100  1
  H  457  1  0.70735400  0.48674700  0.16348500  1
  H  464  1  0.78387400  0.49130500  0.24665800  1
  H  465  1  0.78056200  0.50949600  0.29506500  1
  H  466  1  0.67104500  0.48763300  0.28834900  1
  H  467  1  0.77571300  0.42206700  0.15135000  1
  H  469  1  0.78479100  0.40900300  0.18451400  1
  H  470  1  0.75061200  0.41956900  0.20960100  1
  H  471  1  0.79156300  0.43843100  0.21683200  1
  H  472  1  0.70049700  0.49980700  0.21071600  1
  H  474  1  0.66957200  0.44200500  0.21773500  1
  H  475  1  0.65418400  0.47448100  0.22380500  1
  H  476  1  0.64113600  0.46224600  0.24587200  1
  H  478  1  0.70427300  0.52810200  0.33107300  1
  H  480  1  0.75148800  0.42676200  0.11387600  1
  H  487  1  0.70812200  0.67375100  0.51106000  1
  H  494  1  0.78430000  0.75254500  0.50660100  1
  H  495  1  0.78090400  0.78269400  0.48833400  1
  H  496  1  0.67126700  0.79751700  0.50988700  1
  H  497  1  0.77631600  0.72649300  0.57576700  1
  H  499  1  0.78507100  0.77276000  0.58886300  1
  H  500  1  0.75079700  0.78716300  0.57824200  1
  H  501  1  0.79180800  0.77567200  0.55944500  1
  H  502  1  0.70105100  0.70788400  0.49797200  1
  H  504  1  0.66979900  0.77263100  0.55559700  1
  H  505  1  0.65458100  0.74614700  0.52310200  1
  H  506  1  0.64137200  0.78040300  0.53525400  1
  H  508  1  0.70457800  0.79978200  0.46944000  1
  H  510  1  0.75248600  0.68423000  0.57102700  1
  H  517  1  0.70821100  0.83444900  0.32394700  1
  H  524  1  0.78422700  0.75113500  0.24511300  1
  H  525  1  0.78075700  0.70273600  0.21494200  1
  H  526  1  0.67113900  0.70958200  0.20013800  1
  H  527  1  0.77643900  0.84637200  0.27120000  1
  H  529  1  0.78513500  0.81321000  0.22492400  1
  H  530  1  0.75082500  0.78821800  0.21051800  1
  H  531  1  0.79181800  0.78087100  0.22200000  1
  H  532  1  0.70105100  0.78724000  0.28979500  1
  H  534  1  0.66979100  0.78018900  0.22507500  1
  H  535  1  0.65456200  0.77417000  0.25154700  1
  H  536  1  0.64131800  0.75209800  0.21729200  1
  H  538  1  0.70436200  0.66682100  0.19779600  1
  H  540  1  0.75267800  0.88391100  0.31348600  1
  H  547  1  0.20835200  0.50977600  0.83562800  1
  H  554  1  0.28425400  0.50530100  0.75227800  1
  H  555  1  0.28075400  0.48695900  0.70385800  1
  H  556  1  0.17107000  0.50841700  0.71066300  1
  H  557  1  0.27641000  0.57450700  0.84747300  1
  H  559  1  0.28497300  0.58760400  0.81428600  1
  H  560  1  0.25064800  0.57693900  0.78929400  1
  H  561  1  0.29169800  0.55818200  0.78195800  1
  H  562  1  0.20114300  0.49666500  0.78841100  1
  H  564  1  0.16969100  0.55421600  0.78125300  1
  H  565  1  0.15456500  0.52172000  0.77529600  1
  H  566  1  0.14124200  0.53382200  0.75317500  1
  H  568  1  0.20450800  0.46790700  0.66794900  1
  H  570  1  0.25280000  0.56976100  0.88503700  1
  H  577  1  0.20759800  0.32269600  0.48770700  1
  H  584  1  0.28395400  0.24397900  0.49212200  1
  H  585  1  0.28066200  0.21382700  0.51038700  1
  H  586  1  0.17104800  0.19885500  0.48880000  1
  H  587  1  0.27579700  0.27004700  0.42296200  1
  H  589  1  0.28465700  0.22378200  0.40983900  1
  H  590  1  0.25045600  0.20932300  0.42045700  1
  H  591  1  0.29146600  0.22087400  0.43925300  1
  H  592  1  0.20062700  0.28852800  0.50075600  1
  H  594  1  0.16945300  0.22374100  0.44308500  1
  H  595  1  0.15420800  0.25019900  0.47558100  1
  H  596  1  0.14107700  0.21592400  0.46341800  1
  H  598  1  0.20444600  0.19668400  0.52927300  1
  H  600  1  0.25182700  0.31231300  0.42774200  1
  H  607  1  0.20756300  0.16219900  0.67487800  1
  H  614  1  0.28397300  0.24546200  0.75348200  1
  H  615  1  0.28061300  0.29386600  0.78372300  1
  H  616  1  0.17112900  0.28707000  0.79888700  1
  H  617  1  0.27595300  0.15016300  0.72747400  1
  H  619  1  0.28499700  0.18336000  0.77369500  1
  H  620  1  0.25077200  0.20841100  0.78819000  1
  H  621  1  0.29170600  0.21567700  0.77657300  1
  H  622  1  0.20062900  0.20943300  0.70902600  1
  H  624  1  0.16974800  0.21646100  0.77386700  1
  H  625  1  0.15431700  0.22251300  0.74745900  1
  H  626  1  0.14126400  0.24457400  0.78176000  1
  H  628  1  0.20425400  0.32986100  0.80123500  1
  H  630  1  0.25177200  0.11265100  0.68529300  1
  C  1  1  0.75654700  0.58704800  0.46456100  1
  C  2  1  0.76414600  0.59939500  0.44887400  1
  C  3  1  0.76122100  0.57982000  0.42134900  1
  C  4  1  0.75381600  0.55430000  0.41896100  1
  C  5  1  0.74892700  0.53107000  0.39258100  1
  C  6  1  0.74935500  0.53413000  0.36901000  1
  C  7  1  0.75636600  0.56036400  0.37223500  1
  C  8  1  0.76260900  0.58324100  0.39829000  1
  C  9  1  0.77370500  0.62722500  0.46122700  1
  C  10  1  0.77365400  0.64316800  0.49001600  1
  C  11  1  0.76130800  0.63236700  0.50658900  1
  C  12  1  0.75453400  0.60357800  0.49339900  1
  C  13  1  0.71977100  0.54449400  0.45177200  1
  C  14  1  0.72996200  0.52334600  0.45670100  1
  C  15  1  0.76718700  0.52122600  0.45605000  1
  C  16  1  0.78187300  0.54100600  0.45071200  1
  C  17  1  0.78900100  0.50373900  0.46103500  1
  C  18  1  0.82664100  0.50664800  0.46115800  1
  C  19  1  0.84243200  0.52689000  0.45648900  1
  C  20  1  0.81992400  0.54399300  0.45097800  1
  C  21  1  0.68267600  0.55122000  0.45293100  1
  C  22  1  0.65649700  0.53630900  0.45869800  1
  C  23  1  0.66798500  0.51521500  0.46378700  1
  C  24  1  0.70463200  0.50856000  0.46275200  1
  C  37  1  0.75248500  0.55679400  0.44659800  1
  C  38  1  0.88040400  0.53018100  0.45934000  1
  C  39  1  0.61905900  0.54264600  0.46135200  1
  C  40  1  0.74459200  0.51155400  0.34211500  1
  C  41  1  0.75738300  0.64924000  0.53571300  1
  C  46  1  0.75660000  0.87450500  0.41059500  1
  C  47  1  0.76413600  0.84645900  0.39821600  1
  C  48  1  0.76116700  0.83848000  0.41776600  1
  C  49  1  0.75387300  0.86160900  0.44331200  1
  C  50  1  0.74905500  0.85843900  0.46653600  1
  C  51  1  0.74949600  0.83179800  0.46345400  1
  C  52  1  0.75646900  0.80880000  0.43720300  1
  C  53  1  0.76261700  0.81199500  0.41432600  1
  C  54  1  0.77372500  0.83100400  0.37039200  1
  C  55  1  0.77375700  0.84388700  0.35448300  1
  C  56  1  0.76145900  0.87127700  0.36531200  1
  C  57  1  0.75467000  0.88685200  0.39409800  1
  C  58  1  0.71985300  0.90424100  0.45317600  1
  C  59  1  0.73005400  0.93029500  0.47436300  1
  C  60  1  0.76727700  0.93174500  0.47650000  1
  C  61  1  0.78195900  0.90665200  0.45666500  1
  C  62  1  0.78909300  0.95419100  0.49404100  1
  C  63  1  0.82673200  0.95141600  0.49111700  1
  C  64  1  0.84251900  0.92652800  0.47082800  1
  C  65  1  0.82001000  0.90393900  0.45367000  1
  C  66  1  0.68274900  0.89867600  0.44647400  1
  C  67  1  0.65657300  0.91932100  0.46148400  1
  C  68  1  0.66805300  0.94544700  0.48268800  1
  C  69  1  0.70471600  0.95107600  0.48928500  1
  C  82  1  0.75256200  0.88676900  0.44084900  1
  C  83  1  0.88044300  0.92617900  0.46747900  1
  C  84  1  0.61913700  0.91565600  0.45526000  1
  C  85  1  0.74480400  0.82744400  0.48601100  1
  C  86  1  0.75757000  0.88355200  0.34845900  1
  C  91  1  0.75583200  0.53322300  0.12312500  1
  C  92  1  0.76359300  0.54888400  0.15113500  1
  C  93  1  0.76090400  0.57641900  0.15908700  1
  C  94  1  0.75347600  0.57883500  0.13597400  1
  C  95  1  0.74873500  0.60523300  0.13913700  1
  C  96  1  0.74930400  0.62879600  0.16577300  1
  C  97  1  0.75634400  0.62554600  0.18876300  1
  C  98  1  0.76244700  0.59947000  0.18556600  1
  C  99  1  0.77316600  0.53650100  0.16658100  1
  C  100  1  0.77291000  0.50771500  0.15374700  1
  C  101  1  0.76040100  0.49117900  0.12640900  1
  C  102  1  0.75363200  0.50439300  0.11082900  1
  C  103  1  0.71907400  0.54623700  0.09349900  1
  C  104  1  0.72914800  0.54143000  0.06744100  1
  C  105  1  0.76637700  0.54180900  0.06580900  1
  C  106  1  0.78117700  0.54693300  0.09082700  1
  C  107  1  0.78808500  0.53668400  0.04324700  1
  C  108  1  0.82572500  0.53623400  0.04584500  1
  C  109  1  0.84163200  0.54076600  0.07067400  1
  C  110  1  0.81923200  0.54641500  0.09338300  1
  C  111  1  0.68198400  0.54524900  0.09918900  1
  C  112  1  0.65569700  0.53981800  0.07866800  1
  C  113  1  0.66704700  0.53494700  0.05253500  1
  C  114  1  0.70369700  0.53574800  0.04677300  1
  C  127  1  0.75187600  0.55120200  0.11084100  1
  C  128  1  0.87955600  0.53760000  0.07093800  1
  C  129  1  0.61832100  0.53717900  0.08236400  1
  C  130  1  0.74456600  0.65570100  0.17012900  1
  C  131  1  0.75632400  0.46206900  0.11417200  1
  C  136  1  0.25612200  0.40934700  0.53431400  1
  C  137  1  0.26376800  0.39693300  0.54993300  1
  C  138  1  0.26087100  0.41644800  0.57747600  1
  C  139  1  0.25352400  0.44201000  0.57994800  1
  C  140  1  0.24873400  0.46520500  0.60636400  1
  C  141  1  0.24924800  0.46207700  0.62989600  1
  C  142  1  0.25626500  0.43581100  0.62659000  1
  C  143  1  0.26243300  0.41297100  0.60049700  1
  C  144  1  0.27332900  0.36909900  0.53750600  1
  C  145  1  0.27321500  0.35321800  0.50871400  1
  C  146  1  0.26080900  0.36408500  0.49221100  1
  C  147  1  0.25404600  0.39287800  0.50547200  1
  C  148  1  0.21931500  0.45194800  0.54731500  1
  C  149  1  0.22943000  0.47321200  0.54254200  1
  C  150  1  0.26665200  0.47535200  0.54315000  1
  C  151  1  0.28141900  0.45543100  0.54824700  1
  C  152  1  0.28839000  0.49282800  0.53809900  1
  C  153  1  0.32602600  0.48981600  0.53773000  1
  C  154  1  0.34189500  0.46947000  0.54220300  1
  C  155  1  0.31947400  0.45236800  0.54777400  1
  C  156  1  0.18223600  0.44517000  0.54613500  1
  C  157  1  0.15599000  0.46020600  0.54059700  1
  C  158  1  0.16738800  0.48149000  0.53577000  1
  C  159  1  0.20402400  0.48816600  0.53678000  1
  C  172  1  0.25208600  0.43959400  0.55234800  1
  C  173  1  0.37981500  0.46610300  0.53908900  1
  C  174  1  0.11860200  0.45376500  0.53778600  1
  C  175  1  0.24454700  0.48460200  0.65682600  1
  C  176  1  0.25680500  0.34726700  0.46308800  1
  C  181  1  0.25603500  0.12194300  0.58811100  1
  C  182  1  0.26371400  0.14997000  0.60048300  1
  C  183  1  0.26088400  0.15794500  0.58092200  1
  C  184  1  0.25355400  0.13482700  0.55537800  1
  C  185  1  0.24880700  0.13800000  0.53214900  1
  C  186  1  0.24935300  0.16464100  0.53523100  1
  C  187  1  0.25636500  0.18762800  0.56148000  1
  C  188  1  0.26247100  0.18442400  0.58435600  1
  C  189  1  0.27331800  0.16541100  0.62830400  1
  C  190  1  0.27318300  0.15255100  0.64423300  1
  C  191  1  0.26074900  0.12519600  0.63341800  1
  C  192  1  0.25397000  0.10962000  0.60462700  1
  C  193  1  0.21932300  0.09227600  0.54544700  1
  C  194  1  0.22947600  0.06624800  0.52418400  1
  C  195  1  0.26670400  0.06470400  0.52214700  1
  C  196  1  0.28143200  0.08973500  0.54207500  1
  C  197  1  0.28847900  0.04220900  0.50466500  1
  C  198  1  0.32611500  0.04488100  0.50770600  1
  C  199  1  0.34194600  0.06969500  0.52810500  1
  C  200  1  0.31948200  0.09234900  0.54517900  1
  C  201  1  0.18222200  0.09787700  0.55213700  1
  C  202  1  0.15599800  0.07731900  0.53700100  1
  C  203  1  0.16741800  0.05123500  0.51568800  1
  C  204  1  0.20408100  0.04555700  0.50912700  1
  C  217  1  0.25207200  0.10967400  0.55785000  1
  C  218  1  0.37991500  0.07003700  0.53155200  1
  C  219  1  0.11861800  0.08091400  0.54334200  1
  C  220  1  0.24466100  0.16900400  0.51268100  1
  C  221  1  0.25674300  0.11295400  0.65029400  1
  C  226  1  0.25681100  0.46329400  0.87573700  1
  C  227  1  0.26439300  0.44760700  0.84770100  1
  C  228  1  0.26141900  0.42008100  0.83974300  1
  C  229  1  0.25398900  0.41769500  0.86287400  1
  C  230  1  0.24908000  0.39131900  0.85972600  1
  C  231  1  0.24946100  0.36775100  0.83309000  1
  C  232  1  0.25648400  0.37097400  0.81008100  1
  C  233  1  0.26276500  0.39702600  0.81326200  1
  C  234  1  0.27396100  0.45996200  0.83222800  1
  C  235  1  0.27393400  0.48875100  0.84508000  1
  C  236  1  0.26160900  0.50532500  0.87246100  1
  C  237  1  0.25482700  0.49213400  0.88805500  1
  C  238  1  0.21998300  0.45054500  0.90550200  1
  C  239  1  0.23016500  0.45544600  0.93157300  1
  C  240  1  0.26738500  0.45470900  0.93302100  1
  C  241  1  0.28207800  0.44940800  0.90791800  1
  C  242  1  0.28919200  0.45960300  0.95546700  1
  C  243  1  0.32683700  0.45964400  0.95266400  1
  C  244  1  0.34263600  0.45499100  0.92776200  1
  C  245  1  0.32013300  0.44958300  0.90517600  1
  C  246  1  0.18289800  0.45179000  0.89995600  1
  C  247  1  0.15672500  0.45763000  0.92065000  1
  C  248  1  0.16820200  0.46268100  0.94682400  1
  C  249  1  0.20483800  0.46156100  0.95242400  1
  C  262  1  0.25269700  0.44532900  0.88802000  1
  C  263  1  0.38061000  0.45784800  0.92733800  1
  C  264  1  0.11929400  0.46031900  0.91696400  1
  C  265  1  0.24462000  0.34086600  0.82877800  1
  C  266  1  0.25768100  0.53444800  0.88471900  1
  C  271  1  0.92265500  0.53092200  0.49313300  1
  C  272  1  0.91914200  0.52796100  0.51659200  1
  C  273  1  0.94737400  0.51764200  0.52587100  1
  C  274  1  0.98053100  0.50997900  0.51108000  1
  C  275  1  0.98448600  0.51314600  0.48781700  1
  C  276  1  0.95605000  0.52356400  0.47907200  1
  C  278  1  0.01082100  0.50113700  0.52030700  1
  C  279  1  0.01233500  0.47352800  0.51421900  1
  C  280  1  0.04024000  0.46440400  0.52471900  1
  C  281  1  0.06751300  0.48258300  0.54158000  1
  C  282  1  0.06567800  0.51021200  0.54765300  1
  C  283  1  0.03795100  0.51986600  0.53730200  1
  C  288  1  0.94190100  0.51551100  0.55097800  1
  C  293  1  0.03750500  0.54929800  0.54483300  1
  C  301  1  0.92273800  0.95909600  0.46653400  1
  C  302  1  0.91913400  0.98552000  0.46951800  1
  C  303  1  0.94734500  0.00514000  0.47979500  1
  C  304  1  0.98058200  0.99802500  0.48737300  1
  C  305  1  0.98462700  0.97158300  0.48416300  1
  C  306  1  0.95620800  0.95240100  0.47380100  1
  C  308  1  0.01084300  0.01612600  0.49618300  1
  C  309  1  0.01229400  0.03773600  0.52375400  1
  C  310  1  0.04015600  0.05739600  0.53283100  1
  C  311  1  0.06748300  0.05600500  0.51466000  1
  C  312  1  0.06572100  0.03434300  0.48707200  1
  C  313  1  0.03801300  0.01432500  0.47745400  1
  C  318  1  0.94176900  0.03237700  0.48194400  1
  C  323  1  0.03760200  0.99235900  0.44804500  1
  C  331  1  0.92217300  0.50407800  0.03777900  1
  C  332  1  0.91918100  0.48049200  0.01139000  1
  C  333  1  0.94769200  0.47137800  0.99203200  1
  C  334  1  0.98061200  0.48647200  0.99936400  1
  C  335  1  0.98407300  0.50984800  0.02577200  1
  C  336  1  0.95535700  0.51843500  0.04468900  1
  C  338  1  0.01113700  0.47745700  0.98153200  1
  C  339  1  0.01276400  0.48348400  0.95997300  1
  C  340  1  0.04089700  0.47312800  0.94053700  1
  C  341  1  0.06825600  0.45644800  0.94206700  1
  C  342  1  0.06635600  0.45048700  0.96369700  1
  C  343  1  0.03842100  0.46071800  0.98353300  1
  C  348  1  0.94274700  0.44613200  0.96482200  1
  C  353  1  0.03792400  0.45332300  0.00553100  1
  C  361  1  0.42239300  0.46553500  0.50539400  1
  C  362  1  0.41923500  0.46840300  0.48185600  1
  C  363  1  0.44769500  0.47860200  0.47264800  1
  C  364  1  0.48072800  0.48625600  0.48760200  1
  C  365  1  0.48435800  0.48314400  0.51092000  1
  C  366  1  0.45570100  0.47283800  0.51958800  1
  C  368  1  0.51116900  0.49510300  0.47852900  1
  C  369  1  0.51273100  0.52270700  0.48460200  1
  C  370  1  0.54076400  0.53182800  0.47420500  1
  C  371  1  0.56811800  0.51365500  0.45747000  1
  C  372  1  0.56625600  0.48604000  0.45143300  1
  C  373  1  0.53840400  0.47638700  0.46168600  1
  C  378  1  0.44256500  0.48064900  0.44746400  1
  C  383  1  0.53793100  0.44697000  0.45420500  1
  C  391  1  0.42215200  0.03664500  0.53187700  1
  C  392  1  0.41902700  0.01024800  0.52904100  1
  C  393  1  0.44749500  0.99084600  0.51884400  1
  C  394  1  0.48050400  0.99813800  0.51115700  1
  C  395  1  0.48409300  0.02454400  0.51420700  1
  C  396  1  0.45542800  0.04351200  0.52451200  1
  C  398  1  0.51098800  0.98025800  0.50237500  1
  C  399  1  0.51258800  0.95866100  0.47480500  1
  C  400  1  0.54065100  0.93916900  0.46576000  1
  C  401  1  0.56798600  0.94069600  0.48398700  1
  C  402  1  0.56609400  0.96234300  0.51156800  1
  C  403  1  0.53821200  0.98222300  0.52114100  1
  C  408  1  0.44240800  0.96363800  0.51685600  1
  C  413  1  0.53770200  0.00422600  0.55053100  1
  C  421  1  0.42274400  0.49182000  0.96030700  1
  C  422  1  0.41912200  0.51540200  0.98662800  1
  C  423  1  0.44726800  0.52483400  0.00630400  1
  C  424  1  0.48045500  0.51008600  0.99935300  1
  C  425  1  0.48452300  0.48670800  0.97301300  1
  C  426  1  0.45616600  0.47779900  0.95377400  1
  C  428  1  0.51066100  0.51944100  0.01750300  1
  C  429  1  0.51198800  0.51363400  0.03922000  1
  C  430  1  0.53981800  0.52426000  0.05890200  1
  C  431  1  0.56723400  0.54093600  0.05742900  1
  C  432  1  0.56559100  0.54672000  0.03567000  1
  C  433  1  0.53792100  0.53626500  0.01562100  1
  C  438  1  0.44167800  0.55005700  0.03342900  1
  C  443  1  0.53764800  0.54353300  0.99352900  1
  C  451  1  0.74383100  0.45400200  0.15334300  1
  C  452  1  0.75957000  0.43832000  0.16398000  1
  C  453  1  0.75461000  0.44480500  0.19155400  1
  C  454  1  0.73307800  0.46798400  0.20927400  1
  C  455  1  0.71607900  0.48304100  0.19841100  1
  C  456  1  0.72043100  0.47561500  0.17069400  1
  C  458  1  0.72945900  0.47739800  0.23794000  1
  C  459  1  0.76007900  0.48940800  0.25486400  1
  C  460  1  0.75837900  0.49981200  0.28332700  1
  C  461  1  0.72574500  0.49904900  0.29588300  1
  C  462  1  0.69495800  0.48751900  0.27913800  1
  C  463  1  0.69638000  0.47612500  0.25025500  1
  C  468  1  0.77138700  0.42694000  0.20106700  1
  C  473  1  0.66345000  0.46303500  0.23358200  1
  C  481  1  0.74456600  0.69644700  0.54380300  1
  C  482  1  0.76016100  0.72281900  0.55950100  1
  C  483  1  0.75504700  0.74389400  0.55301700  1
  C  484  1  0.73351200  0.73836500  0.52981500  1
  C  485  1  0.71663300  0.71239900  0.51475500  1
  C  486  1  0.72115000  0.69211800  0.52217500  1
  C  488  1  0.72982300  0.75757800  0.52035800  1
  C  489  1  0.76044400  0.76254400  0.50839000  1
  C  490  1  0.75867900  0.78053800  0.49791300  1
  C  491  1  0.72600500  0.79378100  0.49860500  1
  C  492  1  0.69521500  0.78849800  0.51007500  1
  C  493  1  0.69668300  0.77105200  0.52151700  1
  C  498  1  0.77166600  0.77132900  0.57090500  1
  C  503  1  0.66374100  0.76739900  0.53454300  1
  C  511  1  0.74467200  0.84447300  0.30124400  1
  C  512  1  0.76024300  0.83379700  0.27486800  1
  C  513  1  0.75508600  0.80624500  0.25378600  1
  C  514  1  0.73352000  0.78858700  0.25931400  1
  C  515  1  0.71665000  0.79950000  0.28528100  1
  C  516  1  0.72121200  0.82719400  0.30556900  1
  C  518  1  0.72978000  0.75992400  0.24008300  1
  C  519  1  0.76036700  0.74295600  0.23510400  1
  C  520  1  0.75856600  0.71449300  0.21707300  1
  C  521  1  0.72586400  0.70197900  0.20384800  1
  C  522  1  0.69510400  0.71876300  0.20915600  1
  C  523  1  0.69662000  0.74764800  0.22661800  1
  C  528  1  0.77170200  0.79669200  0.22635000  1
  C  533  1  0.66370600  0.76436400  0.23029400  1
  C  541  1  0.24475800  0.54252400  0.84560900  1
  C  542  1  0.26023300  0.55824100  0.83491400  1
  C  543  1  0.25504600  0.55173600  0.80735400  1
  C  544  1  0.23352700  0.52851200  0.78971500  1
  C  545  1  0.21672600  0.51345600  0.80065400  1
  C  546  1  0.22130700  0.52089800  0.82835400  1
  C  548  1  0.22977300  0.51904000  0.76104400  1
  C  549  1  0.26038100  0.50709000  0.74408800  1
  C  550  1  0.25856800  0.49659300  0.71561400  1
  C  551  1  0.22581800  0.49719000  0.70308900  1
  C  552  1  0.19505000  0.50865700  0.71985900  1
  C  553  1  0.19658300  0.52014300  0.74875200  1
  C  558  1  0.27157200  0.56962900  0.79777800  1
  C  563  1  0.16365300  0.53314900  0.76545600  1
  C  571  1  0.24400900  0.30004100  0.45493500  1
  C  572  1  0.25963300  0.27368500  0.43921100  1
  C  573  1  0.25460500  0.25259700  0.44568900  1
  C  574  1  0.23310000  0.25809100  0.46889200  1
  C  575  1  0.21618200  0.28403800  0.48396900  1
  C  576  1  0.22060200  0.30432800  0.47655100  1
  C  578  1  0.22948600  0.23886100  0.47833400  1
  C  579  1  0.26014100  0.23391900  0.49029100  1
  C  580  1  0.25845200  0.21589800  0.50073900  1
  C  581  1  0.22579100  0.20265100  0.50008000  1
  C  582  1  0.19497500  0.20789400  0.48860400  1
  C  583  1  0.19638000  0.22534200  0.47716300  1
  C  588  1  0.27128500  0.22518900  0.42779600  1
  C  593  1  0.16340900  0.22896000  0.46413600  1
  C  601  1  0.24407200  0.15211000  0.69750400  1
  C  602  1  0.25979500  0.16277300  0.72383200  1
  C  603  1  0.25479400  0.19035000  0.74490800  1
  C  604  1  0.23323300  0.20804200  0.73942600  1
  C  605  1  0.21624200  0.19714900  0.71350000  1
  C  606  1  0.22066700  0.16944100  0.69321500  1
  C  608  1  0.22957300  0.23670800  0.75866400  1
  C  609  1  0.26016000  0.25365600  0.76355900  1
  C  610  1  0.25841600  0.28212000  0.78160800  1
  C  611  1  0.22580000  0.29464700  0.79498100  1
  C  612  1  0.19504000  0.27788000  0.78976600  1
  C  613  1  0.19648800  0.24899800  0.77226000  1
  C  618  1  0.27156100  0.19989200  0.77229600  1
  C  623  1  0.16358800  0.23230000  0.76868200  1
  N  297  1  0.09520000  0.47491400  0.55275900  1
  N  299  1  0.89367200  0.54103600  0.48542800  1
  N  327  1  0.09510500  0.07493900  0.52231500  1
  N  329  1  0.89377500  0.94125300  0.45646800  1
  N  357  1  0.09615100  0.44542000  0.92338800  1
  N  359  1  0.89289000  0.51161800  0.05531600  1
  N  387  1  0.59590500  0.52132600  0.44638000  1
  N  389  1  0.39310800  0.45566500  0.51305700  1
  N  417  1  0.59573700  0.92191500  0.47640000  1
  N  419  1  0.39289200  0.05421400  0.54181300  1
  N  447  1  0.59483700  0.55223800  0.07637800  1
  N  449  1  0.39383800  0.48397200  0.94241900  1
  N  477  1  0.72229100  0.51345800  0.32384800  1
  N  479  1  0.75037900  0.44657500  0.12637100  1
  N  507  1  0.72252300  0.80727400  0.48413600  1
  N  509  1  0.75129100  0.67691300  0.55121700  1
  N  537  1  0.72234700  0.67402100  0.19033000  1
  N  539  1  0.75146000  0.87140800  0.32079000  1
  N  567  1  0.22233200  0.48268200  0.67512800  1
  N  569  1  0.25156700  0.54995000  0.87255000  1
  N  597  1  0.22236400  0.18916700  0.51456000  1
  N  599  1  0.25068600  0.31960100  0.44754900  1
  N  627  1  0.22232400  0.32261300  0.80859500  1
  N  629  1  0.25065600  0.12514000  0.67796900  1
  O  42  1  0.60990400  0.56264400  0.48691400  1
  O  43  1  0.89903800  0.51029800  0.43791600  1
  O  44  1  0.76828000  0.49051100  0.33359400  1
  O  45  1  0.76157300  0.63634200  0.55045000  1
  O  87  1  0.61000400  0.92129000  0.43529000  1
  O  88  1  0.89929800  0.92474400  0.48734400  1
  O  89  1  0.76822400  0.84017800  0.50721100  1
  O  90  1  0.76181700  0.91118300  0.36137600  1
  O  132  1  0.60874400  0.51181700  0.07721900  1
  O  133  1  0.89799800  0.55924400  0.07278200  1
  O  134  1  0.76809700  0.66419400  0.15748600  1
  O  135  1  0.76036400  0.44732200  0.08652600  1
  O  177  1  0.10929300  0.43363900  0.51232200  1
  O  178  1  0.39872300  0.48561500  0.56061900  1
  O  179  1  0.26778200  0.50590800  0.66526800  1
  O  180  1  0.26092700  0.36021600  0.44839500  1
  O  222  1  0.10913100  0.07568100  0.56351500  1
  O  223  1  0.39845200  0.07205100  0.51190200  1
  O  224  1  0.26805800  0.15626400  0.49147000  1
  O  225  1  0.26072200  0.08530300  0.63738500  1
  O  267  1  0.11016600  0.48588600  0.92252300  1
  O  268  1  0.39925000  0.43653700  0.92604500  1
  O  269  1  0.26849000  0.33229300  0.84114400  1
  O  270  1  0.26201700  0.54918300  0.91233900  1
