# generated using pymatgen
data_VH3C11NO7
_symmetry_space_group_name_H-M   'P 1'
_cell_length_a   7.25434000
_cell_length_b   15.23139000
_cell_length_c   16.54485000
_cell_angle_alpha   85.23463000
_cell_angle_beta   90.00062000
_cell_angle_gamma   90.00585000
_symmetry_Int_Tables_number   1
_chemical_formula_structural   VH3C11NO7
_chemical_formula_sum   'V4 H12 C44 N4 O28'
_cell_volume   1821.78209626
_cell_formula_units_Z   4
loop_
 _symmetry_equiv_pos_site_id
 _symmetry_equiv_pos_as_xyz
  1  'x, y, z'
loop_
 _atom_site_type_symbol
 _atom_site_label
 _atom_site_symmetry_multiplicity
 _atom_site_fract_x
 _atom_site_fract_y
 _atom_site_fract_z
 _atom_site_occupancy
  V  V0  1  0.19699000  0.76036000  0.74946000  1
  V  V1  1  0.80301000  0.23964000  0.25054000  1
  V  V2  1  0.69699000  0.73964000  0.75054000  1
  V  V3  1  0.30301000  0.26036000  0.24946000  1
  H  H4  1  0.93373000  0.49929000  0.21125000  1
  H  H5  1  0.06627000  0.50071000  0.78874000  1
  H  H6  1  0.43978000  0.00003000  0.28845000  1
  H  H7  1  0.56022000  0.99997000  0.71155000  1
  H  H8  1  0.15007000  0.35168000  0.76626000  1
  H  H9  1  0.84993000  0.64832000  0.23374000  1
  H  H10  1  0.63930000  0.14954000  0.73427000  1
  H  H11  1  0.36070000  0.85046000  0.26573000  1
  H  H12  1  0.89078000  0.72567000  0.97930000  1
  H  H13  1  0.10922000  0.27433000  0.02070000  1
  H  H14  1  0.39599000  0.77376000  0.52048000  1
  H  H15  1  0.60401000  0.22624000  0.47952000  1
  C  C16  1  0.47707000  0.85644000  0.85326000  1
  C  C17  1  0.52293000  0.14356000  0.14674000  1
  C  C18  1  0.97706000  0.64356000  0.64674000  1
  C  C19  1  0.02294000  0.35644000  0.35326000  1
  C  C20  1  0.47713000  0.86613000  0.63609000  1
  C  C21  1  0.52287000  0.13387000  0.36391000  1
  C  C22  1  0.97712000  0.63389000  0.86393000  1
  C  C23  1  0.02288000  0.36611000  0.13607000  1
  C  C24  1  0.00530000  0.46994000  0.46878000  1
  C  C25  1  0.99470000  0.53006000  0.53122000  1
  C  C26  1  0.50530000  0.03005000  0.03123000  1
  C  C27  1  0.49470000  0.96995000  0.96877000  1
  C  C28  1  0.90048000  0.67466000  0.02863000  1
  C  C29  1  0.09952000  0.32534000  0.97137000  1
  C  C30  1  0.40585000  0.82473000  0.47112000  1
  C  C31  1  0.59415000  0.17527000  0.52888000  1
  C  C32  1  0.86428000  0.69755000  0.10756000  1
  C  C33  1  0.13572000  0.30245000  0.89244000  1
  C  C34  1  0.37257000  0.80150000  0.39205000  1
  C  C35  1  0.62743000  0.19850000  0.60795000  1
  C  C36  1  0.87653000  0.63253000  0.17221000  1
  C  C37  1  0.12347000  0.36747000  0.82779000  1
  C  C38  1  0.38515000  0.86649000  0.32737000  1
  C  C39  1  0.61485000  0.13351000  0.67263000  1
  C  C40  1  0.92476000  0.54646000  0.15877000  1
  C  C41  1  0.07524000  0.45354000  0.84123000  1
  C  C42  1  0.43065000  0.95287000  0.34093000  1
  C  C43  1  0.56935000  0.04713000  0.65907000  1
  C  C44  1  0.96177000  0.52222000  0.07980000  1
  C  C45  1  0.03822000  0.47778000  0.92020000  1
  C  C46  1  0.46471000  0.97743000  0.42005000  1
  C  C47  1  0.53529000  0.02257000  0.57995000  1
  C  C48  1  0.94900000  0.58754000  0.01333000  1
  C  C49  1  0.05100000  0.41246000  0.98667000  1
  C  C50  1  0.45182000  0.91213000  0.48652000  1
  C  C51  1  0.54818000  0.08787000  0.51348000  1
  C  C52  1  0.01298000  0.43469000  0.06663000  1
  C  C53  1  0.98702000  0.56531000  0.93337000  1
  C  C54  1  0.51301000  0.06531000  0.43337000  1
  C  C55  1  0.48699000  0.93469000  0.56663000  1
  C  C56  1  0.01385000  0.41860000  0.41594000  1
  C  C57  1  0.98615000  0.58140000  0.58406000  1
  C  C58  1  0.51384000  0.08139000  0.08407000  1
  C  C59  1  0.48616000  0.91861000  0.91593000  1
  N  N60  1  0.81622000  0.78668000  0.12199000  1
  N  N61  1  0.18378000  0.21332000  0.87801000  1
  N  N62  1  0.32702000  0.71208000  0.37751000  1
  N  N63  1  0.67298000  0.28792000  0.62249000  1
  O  O64  1  0.63824000  0.83403000  0.66346000  1
  O  O65  1  0.36176000  0.16597000  0.33654000  1
  O  O66  1  0.13824000  0.66597000  0.83654000  1
  O  O67  1  0.86176000  0.33403000  0.16346000  1
  O  O68  1  0.31013000  0.83627000  0.82710000  1
  O  O69  1  0.68987000  0.16373000  0.17290000  1
  O  O70  1  0.81013000  0.66373000  0.67290000  1
  O  O71  1  0.18987000  0.33627000  0.32710000  1
  O  O72  1  0.30863000  0.84450000  0.66349000  1
  O  O73  1  0.69137000  0.15550000  0.33651000  1
  O  O74  1  0.80863000  0.65550000  0.83651000  1
  O  O75  1  0.19137000  0.34450000  0.16349000  1
  O  O76  1  0.13668000  0.67426000  0.67177000  1
  O  O77  1  0.86332000  0.32574000  0.32823000  1
  O  O78  1  0.63668000  0.82574000  0.82823000  1
  O  O79  1  0.36332000  0.17426000  0.17177000  1
  O  O80  1  0.47120000  0.69414000  0.75291000  1
  O  O81  1  0.52880000  0.30586000  0.24709000  1
  O  O82  1  0.97120000  0.80586000  0.74709000  1
  O  O83  1  0.02880000  0.19414000  0.25291000  1
  O  O84  1  0.77257000  0.80685000  0.19449000  1
  O  O85  1  0.81755000  0.84876000  0.06298000  1
  O  O86  1  0.22743000  0.19315000  0.80551000  1
  O  O87  1  0.18246000  0.15124000  0.93702000  1
  O  O88  1  0.29006000  0.69117000  0.30451000  1
  O  O89  1  0.32384000  0.65051000  0.43696000  1
  O  O90  1  0.70994000  0.30883000  0.69549000  1
  O  O91  1  0.67616000  0.34949000  0.56303000  1
