# generated using pymatgen
data_H88C157N4
_symmetry_space_group_name_H-M   'P 1'
_cell_length_a   44.47030362
_cell_length_b   44.46590748
_cell_length_c   44.54639913
_cell_angle_alpha   105.53388198
_cell_angle_beta   111.47894061
_cell_angle_gamma   111.40822222
_symmetry_Int_Tables_number   1
_chemical_formula_structural   H88C157N4
_chemical_formula_sum   'H264 C471 N12'
_cell_volume   67625.47157843
_cell_formula_units_Z   3
loop_
 _symmetry_equiv_pos_site_id
 _symmetry_equiv_pos_as_xyz
  1  'x, y, z'
loop_
 _atom_site_type_symbol
 _atom_site_label
 _atom_site_symmetry_multiplicity
 _atom_site_fract_x
 _atom_site_fract_y
 _atom_site_fract_z
 _atom_site_occupancy
  C  1  1  0.90830300  0.27840800  0.55097000  1
  C  2  1  0.74458850  0.29164350  0.38412700  1
  C  3  1  0.68942500  0.06515500  0.36046500  1
  C  4  1  0.71577850  0.28032450  0.34887800  1
  C  5  1  0.74142550  0.34382050  0.35955300  1
  C  6  1  0.77001250  0.35486650  0.39491000  1
  C  7  1  0.77158000  0.32911750  0.40715350  1
  C  8  1  0.91978450  0.31399750  0.57448800  1
  C  9  1  0.95735750  0.33795500  0.60350850  1
  C  10  1  0.98426100  0.32697850  0.60938850  1
  C  11  1  0.97231800  0.29097300  0.58630300  1
  C  12  1  0.93472500  0.26692550  0.55720250  1
  C  13  1  0.69475100  0.04139800  0.37450300  1
  C  14  1  0.67080000  0.00337550  0.35277150  1
  C  15  1  0.64100450  0.98816250  0.31655800  1
  C  16  1  0.63608950  0.01240400  0.30287250  1
  C  17  1  0.65991200  0.05040450  0.32448050  1
  C  29  1  0.75243450  0.16830150  0.41505600  1
  C  30  1  0.78737700  0.18553300  0.44773500  1
  C  31  1  0.81059600  0.22391300  0.46630700  1
  C  32  1  0.79876650  0.24500700  0.45204250  1
  C  33  1  0.76389400  0.22796750  0.41939750  1
  C  34  1  0.74080450  0.18959100  0.40092350  1
  C  39  1  0.71156100  0.10039900  0.38025700  1
  C  40  1  0.73132550  0.13282500  0.39739150  1
  C  41  1  0.74800500  0.26789900  0.39485200  1
  C  42  1  0.75414100  0.24785100  0.40594400  1
  C  43  1  0.84343450  0.24018700  0.49590550  1
  C  44  1  0.87420250  0.25735650  0.52258500  1
  C  45  1  0.61709100  0.95070950  0.29415750  1
  C  46  1  0.02190900  0.35107250  0.63663550  1
  C  47  1  0.74279800  0.36960150  0.34722450  1
  C  48  1  0.71427450  0.30620150  0.33672600  1
  C  52  1  0.15590400  0.70821150  0.36918050  1
  C  53  1  0.31925250  0.70459350  0.54604900  1
  C  54  1  0.37485200  0.73631250  0.37506050  1
  C  55  1  0.34810450  0.69815750  0.56361500  1
  C  56  1  0.32229200  0.68319100  0.60130800  1
  C  57  1  0.29366700  0.68996350  0.58369550  1
  C  58  1  0.29216050  0.70063200  0.55641950  1
  C  59  1  0.14422850  0.72028900  0.39307450  1
  C  60  1  0.10660100  0.71171700  0.37932400  1
  C  61  1  0.07982800  0.69058350  0.34152550  1
  C  62  1  0.09195100  0.67937750  0.31767150  1
  C  63  1  0.12960650  0.68792050  0.33135100  1
  C  64  1  0.36926400  0.74495600  0.34595600  1
  C  65  1  0.39306350  0.74711350  0.33169600  1
  C  66  1  0.42296850  0.74070450  0.34611100  1
  C  67  1  0.42815050  0.73201100  0.37529950  1
  C  68  1  0.40447550  0.72985350  0.38966200  1
  C  80  1  0.31189900  0.72792150  0.41529050  1
  C  81  1  0.27696600  0.72575450  0.39757550  1
  C  82  1  0.25365150  0.72111800  0.41263250  1
  C  83  1  0.26536700  0.71858000  0.44545000  1
  C  84  1  0.30023000  0.72071250  0.46329250  1
  C  85  1  0.32342550  0.72533100  0.44811350  1
  C  90  1  0.35282050  0.73398850  0.38830500  1
  C  91  1  0.33308200  0.73136550  0.40100050  1
  C  92  1  0.31592300  0.71192550  0.51895150  1
  C  93  1  0.30987950  0.71692950  0.49284000  1
  C  94  1  0.22081700  0.71795200  0.39604300  1
  C  95  1  0.19003750  0.71391050  0.38236200  1
  C  96  1  0.44672600  0.74213750  0.33237150  1
  C  97  1  0.04211400  0.68007200  0.32786400  1
  C  98  1  0.32089050  0.66952250  0.62570800  1
  C  99  1  0.34954750  0.68751500  0.59095550  1
  C  103  1  0.72615950  0.45808150  0.30116400  1
  C  104  1  0.90647550  0.62506350  0.30449000  1
  C  105  1  0.70334650  0.64862400  0.27249350  1
  C  106  1  0.93037300  0.66036050  0.31092850  1
  C  107  1  0.98323550  0.64968850  0.32593500  1
  C  108  1  0.95894650  0.61427300  0.31913850  1
  C  109  1  0.92095100  0.60200650  0.30844850  1
  C  110  1  0.73807400  0.43437550  0.28911450  1
  C  111  1  0.73292400  0.40532500  0.29768400  1
  C  112  1  0.71615400  0.39961750  0.31875450  1
  C  113  1  0.70339000  0.42289150  0.32991350  1
  C  114  1  0.70852250  0.45201450  0.32139500  1
  C  115  1  0.66554550  0.63444400  0.26377150  1
  C  116  1  0.64910100  0.65609450  0.26150650  1
  C  117  1  0.66995300  0.69236250  0.26788950  1
  C  118  1  0.70788900  0.70619200  0.27667000  1
  C  119  1  0.72443400  0.68466450  0.27892950  1
  C  131  1  0.75214050  0.59412700  0.28111650  1
  C  132  1  0.73668550  0.56142050  0.28338300  1
  C  133  1  0.75649650  0.54281200  0.28809350  1
  C  134  1  0.79187450  0.55707350  0.29059900  1
  C  135  1  0.80748800  0.58974450  0.28836350  1
  C  136  1  0.78757700  0.60825350  0.28367750  1
  C  141  1  0.71893750  0.62890950  0.27490600  1
  C  142  1  0.73430800  0.61180950  0.27760250  1
  C  143  1  0.87199650  0.61431250  0.29714000  1
  C  144  1  0.84084450  0.60320300  0.29213450  1
  C  145  1  0.74315350  0.51319400  0.29134050  1
  C  146  1  0.73358150  0.48649250  0.29543500  1
  C  147  1  0.65475950  0.71469600  0.26637350  1
  C  148  1  0.71298250  0.37238250  0.32921600  1
  C  149  1  0.02134900  0.66204200  0.33964300  1
  C  150  1  0.96841000  0.67254150  0.32160550  1
  C  154  1  0.33751100  0.64029000  0.73082200  1
  C  155  1  0.15732950  0.46346700  0.71749450  1
  C  156  1  0.35980550  0.63471150  0.94383600  1
  C  157  1  0.13331250  0.44587500  0.72871750  1
  C  158  1  0.08070050  0.40810700  0.66524650  1
  C  159  1  0.10509900  0.42576250  0.65430450  1
  C  160  1  0.14303400  0.45307050  0.68008250  1
  C  161  1  0.32558750  0.61625850  0.69530200  1
  C  162  1  0.33072450  0.62991300  0.67138850  1
  C  163  1  0.34748000  0.66775600  0.68233100  1
  C  164  1  0.36026050  0.69174250  0.71827000  1
  C  165  1  0.35514450  0.67815850  0.74227700  1
  C  166  1  0.39754100  0.66383750  0.96746950  1
  C  167  1  0.41383350  0.67799850  0.00546100  1
  C  168  1  0.39289200  0.66346650  0.02076750  1
  C  169  1  0.35502150  0.63426850  0.99664800  1
  C  170  1  0.33862700  0.62000050  0.95867850  1
  C  182  1  0.31137350  0.59447000  0.84079150  1
  C  183  1  0.32688650  0.61216350  0.82357400  1
  C  184  1  0.30718400  0.59702750  0.78524050  1
  C  185  1  0.27185700  0.56415400  0.76417800  1
  C  186  1  0.25617900  0.54633500  0.78119700  1
  C  187  1  0.27598300  0.56159150  0.81952950  1
  C  192  1  0.34435300  0.62152400  0.90861800  1
  C  193  1  0.32909700  0.60882650  0.87622650  1
  C  194  1  0.19175150  0.49059450  0.74126800  1
  C  195  1  0.22286150  0.51674150  0.76132800  1
  C  196  1  0.32056250  0.61359250  0.76898400  1
  C  197  1  0.33012400  0.62720650  0.75183750  1
  C  198  1  0.40795200  0.67707600  0.05819200  1
  C  199  1  0.35066950  0.68134050  0.65826700  1
  C  200  1  0.04264350  0.38367100  0.63942650  1
  C  201  1  0.09534150  0.41850050  0.70280800  1
  C  409  1  0.46281500  0.71452500  0.11772600  1
  C  410  1  0.49779950  0.74726200  0.13634150  1
  C  411  1  0.51957150  0.76531300  0.17461750  1
  C  412  1  0.50698300  0.75203600  0.19602400  1
  C  413  1  0.47312700  0.71748600  0.17660000  1
  C  414  1  0.45114300  0.69933900  0.13835200  1
  C  415  1  0.53137300  0.77104400  0.23755600  1
  C  416  1  0.55564150  0.75365700  0.24250950  1
  C  417  1  0.54302150  0.71955150  0.24303400  1
  C  418  1  0.56478250  0.70294050  0.24658900  1
  C  419  1  0.59977500  0.71931050  0.24881750  1
  C  420  1  0.61142400  0.75167250  0.24537050  1
  C  421  1  0.58945000  0.76804200  0.24170000  1
  C  422  1  0.55388200  0.81265050  0.25492850  1
  C  423  1  0.50903600  0.76585400  0.25680300  1
  C  424  1  0.52427950  0.76650100  0.29129850  1
  C  425  1  0.50432450  0.76278050  0.30963000  1
  C  426  1  0.46853350  0.75940300  0.29467550  1
  C  427  1  0.45431600  0.76173150  0.26200750  1
  C  428  1  0.47440750  0.76535750  0.24378100  1
  C  429  1  0.53877800  0.83222700  0.24070600  1
  C  430  1  0.55893700  0.87053450  0.25711350  1
  C  431  1  0.59478300  0.89104900  0.28933400  1
  C  432  1  0.60885950  0.87227450  0.30553000  1
  C  433  1  0.58857850  0.83394500  0.28888550  1
  C  499  1  0.90830300  0.44551500  0.71807700  1
  C  500  1  0.74458850  0.45875050  0.55123400  1
  C  501  1  0.68942500  0.23226200  0.52757200  1
  C  502  1  0.71577850  0.44743150  0.51598500  1
  C  503  1  0.74142550  0.51092750  0.52666000  1
  C  504  1  0.77001250  0.52197350  0.56201700  1
  C  505  1  0.77158000  0.49622450  0.57426050  1
  C  506  1  0.91978450  0.48110450  0.74159500  1
  C  507  1  0.95735750  0.50506200  0.77061550  1
  C  508  1  0.98426100  0.49408550  0.77649550  1
  C  509  1  0.97231800  0.45808000  0.75341000  1
  C  510  1  0.93472500  0.43403250  0.72430950  1
  C  511  1  0.69475100  0.20850500  0.54161000  1
  C  512  1  0.67080000  0.17048251  0.51987851  1
  C  513  1  0.64100450  0.15526950  0.48366500  1
  C  514  1  0.63608950  0.17951101  0.46997951  1
  C  515  1  0.65991200  0.21751150  0.49158750  1
  C  527  1  0.75243450  0.33540850  0.58216300  1
  C  528  1  0.78737700  0.35264000  0.61484200  1
  C  529  1  0.81059600  0.39102000  0.63341400  1
  C  530  1  0.79876650  0.41211400  0.61914950  1
  C  531  1  0.76389400  0.39507450  0.58650450  1
  C  532  1  0.74080450  0.35669800  0.56803050  1
  C  537  1  0.71156100  0.26750600  0.54736400  1
  C  538  1  0.73132550  0.29993200  0.56449850  1
  C  539  1  0.74800500  0.43500600  0.56195900  1
  C  540  1  0.75414100  0.41495800  0.57305100  1
  C  541  1  0.84343450  0.40729400  0.66301250  1
  C  542  1  0.87420250  0.42446350  0.68969200  1
  C  543  1  0.61709100  0.11781650  0.46126450  1
  C  544  1  0.02190900  0.51817950  0.80374250  1
  C  545  1  0.74279800  0.53670850  0.51433150  1
  C  546  1  0.71427450  0.47330850  0.50383300  1
  C  550  1  0.15590400  0.87531850  0.53628750  1
  C  551  1  0.31925250  0.87170050  0.71315600  1
  C  552  1  0.37485200  0.90341950  0.54216750  1
  C  553  1  0.34810450  0.86526450  0.73072200  1
  C  554  1  0.32229200  0.85029800  0.76841500  1
  C  555  1  0.29366700  0.85707050  0.75080250  1
  C  556  1  0.29216050  0.86773900  0.72352650  1
  C  557  1  0.14422850  0.88739600  0.56018150  1
  C  558  1  0.10660100  0.87882400  0.54643100  1
  C  559  1  0.07982800  0.85769050  0.50863250  1
  C  560  1  0.09195100  0.84648450  0.48477850  1
  C  561  1  0.12960650  0.85502750  0.49845800  1
  C  562  1  0.36926400  0.91206300  0.51306300  1
  C  563  1  0.39306350  0.91422050  0.49880300  1
  C  564  1  0.42296850  0.90781150  0.51321800  1
  C  565  1  0.42815050  0.89911801  0.54240651  1
  C  566  1  0.40447550  0.89696050  0.55676900  1
  C  578  1  0.31189900  0.89502850  0.58239750  1
  C  579  1  0.27696600  0.89286150  0.56468250  1
  C  580  1  0.25365150  0.88822500  0.57973950  1
  C  581  1  0.26536700  0.88568700  0.61255700  1
  C  582  1  0.30023000  0.88781950  0.63039950  1
  C  583  1  0.32342550  0.89243800  0.61522050  1
  C  588  1  0.35282050  0.90109550  0.55541200  1
  C  589  1  0.33308200  0.89847250  0.56810750  1
  C  590  1  0.31592300  0.87903250  0.68605850  1
  C  591  1  0.30987950  0.88403650  0.65994700  1
  C  592  1  0.22081700  0.88505900  0.56315000  1
  C  593  1  0.19003750  0.88101750  0.54946900  1
  C  594  1  0.44672600  0.90924450  0.49947850  1
  C  595  1  0.04211400  0.84717900  0.49497100  1
  C  596  1  0.32089050  0.83662950  0.79281500  1
  C  597  1  0.34954750  0.85462200  0.75806250  1
  C  601  1  0.72615950  0.62518850  0.46827100  1
  C  602  1  0.90647550  0.79217050  0.47159700  1
  C  603  1  0.70334650  0.81573100  0.43960050  1
  C  604  1  0.93037300  0.82746750  0.47803550  1
  C  605  1  0.98323550  0.81679550  0.49304200  1
  C  606  1  0.95894650  0.78138000  0.48624550  1
  C  607  1  0.92095100  0.76911350  0.47555550  1
  C  608  1  0.73807400  0.60148250  0.45622150  1
  C  609  1  0.73292400  0.57243200  0.46479100  1
  C  610  1  0.71615400  0.56672450  0.48586150  1
  C  611  1  0.70339000  0.58999850  0.49702050  1
  C  612  1  0.70852250  0.61912150  0.48850200  1
  C  613  1  0.66554550  0.80155100  0.43087850  1
  C  614  1  0.64910100  0.82320150  0.42861350  1
  C  615  1  0.66995300  0.85946950  0.43499650  1
  C  616  1  0.70788900  0.87329900  0.44377700  1
  C  617  1  0.72443400  0.85177150  0.44603650  1
  C  629  1  0.75214050  0.76123400  0.44822350  1
  C  630  1  0.73668550  0.72852750  0.45049000  1
  C  631  1  0.75649650  0.70991900  0.45520050  1
  C  632  1  0.79187450  0.72418050  0.45770600  1
  C  633  1  0.80748800  0.75685150  0.45547050  1
  C  634  1  0.78757700  0.77536050  0.45078450  1
  C  639  1  0.71893750  0.79601650  0.44201300  1
  C  640  1  0.73430800  0.77891650  0.44470950  1
  C  641  1  0.87199650  0.78141950  0.46424700  1
  C  642  1  0.84084450  0.77031000  0.45924150  1
  C  643  1  0.74315350  0.68030100  0.45844750  1
  C  644  1  0.73358150  0.65359950  0.46254200  1
  C  645  1  0.65475950  0.88180300  0.43348050  1
  C  646  1  0.71298250  0.53948950  0.49632300  1
  C  647  1  0.02134900  0.82914900  0.50675000  1
  C  648  1  0.96841000  0.83964850  0.48871250  1
  C  652  1  0.33751100  0.80739700  0.89792900  1
  C  653  1  0.15732950  0.63057400  0.88460150  1
  C  654  1  0.35980550  0.80181850  0.11094300  1
  C  655  1  0.13331250  0.61298200  0.89582450  1
  C  656  1  0.08070050  0.57521400  0.83235350  1
  C  657  1  0.10509900  0.59286950  0.82141150  1
  C  658  1  0.14303400  0.62017750  0.84718950  1
  C  659  1  0.32558750  0.78336550  0.86240900  1
  C  660  1  0.33072450  0.79702000  0.83849550  1
  C  661  1  0.34748000  0.83486300  0.84943800  1
  C  662  1  0.36026050  0.85884950  0.88537700  1
  C  663  1  0.35514450  0.84526550  0.90938400  1
  C  664  1  0.39754100  0.83094450  0.13457650  1
  C  665  1  0.41383350  0.84510550  0.17256800  1
  C  666  1  0.39289200  0.83057350  0.18787450  1
  C  667  1  0.35502150  0.80137550  0.16375500  1
  C  668  1  0.33862700  0.78710750  0.12578550  1
  C  680  1  0.31137350  0.76157700  0.00789850  1
  C  681  1  0.32688650  0.77927050  0.99068100  1
  C  682  1  0.30718400  0.76413450  0.95234750  1
  C  683  1  0.27185700  0.73126100  0.93128500  1
  C  684  1  0.25617900  0.71344200  0.94830400  1
  C  685  1  0.27598300  0.72869850  0.98663650  1
  C  690  1  0.34435300  0.78863100  0.07572500  1
  C  691  1  0.32909700  0.77593350  0.04333350  1
  C  692  1  0.19175150  0.65770150  0.90837500  1
  C  693  1  0.22286150  0.68384850  0.92843500  1
  C  694  1  0.32056250  0.78069950  0.93609100  1
  C  695  1  0.33012400  0.79431350  0.91894450  1
  C  696  1  0.40795200  0.84418300  0.22529900  1
  C  697  1  0.35066950  0.84844750  0.82537400  1
  C  698  1  0.04264350  0.55077800  0.80653350  1
  C  699  1  0.09534150  0.58560750  0.86991500  1
  C  907  1  0.46281500  0.88163200  0.28483300  1
  C  908  1  0.49779950  0.91436900  0.30344850  1
  C  909  1  0.51957150  0.93242000  0.34172450  1
  C  910  1  0.50698300  0.91914300  0.36313100  1
  C  911  1  0.47312700  0.88459300  0.34370700  1
  C  912  1  0.45114300  0.86644600  0.30545900  1
  C  913  1  0.53137300  0.93815100  0.40466300  1
  C  914  1  0.55564150  0.92076400  0.40961650  1
  C  915  1  0.54302150  0.88665850  0.41014100  1
  C  916  1  0.56478250  0.87004750  0.41369600  1
  C  917  1  0.59977500  0.88641750  0.41592450  1
  C  918  1  0.61142400  0.91877950  0.41247750  1
  C  919  1  0.58945000  0.93514900  0.40880700  1
  C  920  1  0.55388200  0.97975750  0.42203550  1
  C  921  1  0.50903600  0.93296100  0.42391000  1
  C  922  1  0.52427950  0.93360800  0.45840550  1
  C  923  1  0.50432450  0.92988750  0.47673700  1
  C  924  1  0.46853350  0.92651000  0.46178250  1
  C  925  1  0.45431600  0.92883850  0.42911450  1
  C  926  1  0.47440750  0.93246450  0.41088800  1
  C  927  1  0.53877800  0.99933400  0.40781300  1
  C  928  1  0.55893700  0.03764150  0.42422050  1
  C  929  1  0.59478300  0.05815600  0.45644100  1
  C  930  1  0.60885950  0.03938150  0.47263700  1
  C  931  1  0.58857850  0.00105200  0.45599250  1
  C  997  1  0.90830300  0.61262200  0.88518400  1
  C  998  1  0.74458850  0.62585750  0.71834100  1
  C  999  1  0.68942500  0.39936900  0.69467900  1
  C  1000  1  0.71577850  0.61453850  0.68309200  1
  C  1001  1  0.74142550  0.67803450  0.69376700  1
  C  1002  1  0.77001250  0.68908050  0.72912400  1
  C  1003  1  0.77158000  0.66333150  0.74136750  1
  C  1004  1  0.91978450  0.64821150  0.90870200  1
  C  1005  1  0.95735750  0.67216900  0.93772250  1
  C  1006  1  0.98426100  0.66119250  0.94360250  1
  C  1007  1  0.97231800  0.62518700  0.92051700  1
  C  1008  1  0.93472500  0.60113950  0.89141650  1
  C  1009  1  0.69475100  0.37561200  0.70871700  1
  C  1010  1  0.67080000  0.33758950  0.68698550  1
  C  1011  1  0.64100450  0.32237650  0.65077200  1
  C  1012  1  0.63608950  0.34661800  0.63708650  1
  C  1013  1  0.65991200  0.38461850  0.65869450  1
  C  1025  1  0.75243450  0.50251550  0.74927000  1
  C  1026  1  0.78737700  0.51974700  0.78194900  1
  C  1027  1  0.81059600  0.55812700  0.80052100  1
  C  1028  1  0.79876650  0.57922100  0.78625650  1
  C  1029  1  0.76389400  0.56218150  0.75361150  1
  C  1030  1  0.74080450  0.52380500  0.73513750  1
  C  1035  1  0.71156100  0.43461300  0.71447100  1
  C  1036  1  0.73132550  0.46703900  0.73160550  1
  C  1037  1  0.74800500  0.60211300  0.72906600  1
  C  1038  1  0.75414100  0.58206500  0.74015800  1
  C  1039  1  0.84343450  0.57440100  0.83011950  1
  C  1040  1  0.87420250  0.59157050  0.85679900  1
  C  1041  1  0.61709100  0.28492350  0.62837150  1
  C  1042  1  0.02190900  0.68528650  0.97084950  1
  C  1043  1  0.74279800  0.70381550  0.68143850  1
  C  1044  1  0.71427450  0.64041550  0.67094000  1
  C  1048  1  0.15590400  0.04242550  0.70339450  1
  C  1049  1  0.31925250  0.03880750  0.88026300  1
  C  1050  1  0.37485200  0.07052650  0.70927450  1
  C  1051  1  0.34810450  0.03237150  0.89782900  1
  C  1052  1  0.32229200  0.01740500  0.93552200  1
  C  1053  1  0.29366700  0.02417750  0.91790950  1
  C  1054  1  0.29216050  0.03484600  0.89063350  1
  C  1055  1  0.14422850  0.05450300  0.72728850  1
  C  1056  1  0.10660100  0.04593100  0.71353800  1
  C  1057  1  0.07982800  0.02479750  0.67573950  1
  C  1058  1  0.09195100  0.01359150  0.65188550  1
  C  1059  1  0.12960650  0.02213450  0.66556500  1
  C  1060  1  0.36926400  0.07917000  0.68017000  1
  C  1061  1  0.39306350  0.08132750  0.66591000  1
  C  1062  1  0.42296850  0.07491850  0.68032500  1
  C  1063  1  0.42815050  0.06622500  0.70951350  1
  C  1064  1  0.40447550  0.06406750  0.72387600  1
  C  1076  1  0.31189900  0.06213550  0.74950450  1
  C  1077  1  0.27696600  0.05996850  0.73178950  1
  C  1078  1  0.25365150  0.05533200  0.74684650  1
  C  1079  1  0.26536700  0.05279400  0.77966400  1
  C  1080  1  0.30023000  0.05492650  0.79750650  1
  C  1081  1  0.32342550  0.05954500  0.78232750  1
  C  1086  1  0.35282050  0.06820250  0.72251900  1
  C  1087  1  0.33308200  0.06557950  0.73521450  1
  C  1088  1  0.31592300  0.04613950  0.85316550  1
  C  1089  1  0.30987950  0.05114350  0.82705400  1
  C  1090  1  0.22081700  0.05216600  0.73025700  1
  C  1091  1  0.19003750  0.04812450  0.71657600  1
  C  1092  1  0.44672600  0.07635150  0.66658550  1
  C  1093  1  0.04211400  0.01428600  0.66207800  1
  C  1094  1  0.32089050  0.00373650  0.95992200  1
  C  1095  1  0.34954750  0.02172900  0.92516950  1
  C  1099  1  0.72615950  0.79229550  0.63537800  1
  C  1100  1  0.90647550  0.95927750  0.63870400  1
  C  1101  1  0.70334650  0.98283800  0.60670750  1
  C  1102  1  0.93037300  0.99457450  0.64514250  1
  C  1103  1  0.98323550  0.98390250  0.66014900  1
  C  1104  1  0.95894650  0.94848700  0.65335250  1
  C  1105  1  0.92095100  0.93622050  0.64266250  1
  C  1106  1  0.73807400  0.76858950  0.62332850  1
  C  1107  1  0.73292400  0.73953900  0.63189800  1
  C  1108  1  0.71615400  0.73383150  0.65296850  1
  C  1109  1  0.70339000  0.75710550  0.66412750  1
  C  1110  1  0.70852250  0.78622850  0.65560900  1
  C  1111  1  0.66554550  0.96865800  0.59798550  1
  C  1112  1  0.64910100  0.99030850  0.59572050  1
  C  1113  1  0.66995300  0.02657650  0.60210350  1
  C  1114  1  0.70788900  0.04040600  0.61088400  1
  C  1115  1  0.72443400  0.01887850  0.61314350  1
  C  1127  1  0.75214050  0.92834100  0.61533050  1
  C  1128  1  0.73668550  0.89563450  0.61759700  1
  C  1129  1  0.75649650  0.87702600  0.62230750  1
  C  1130  1  0.79187450  0.89128750  0.62481300  1
  C  1131  1  0.80748800  0.92395850  0.62257750  1
  C  1132  1  0.78757700  0.94246750  0.61789150  1
  C  1137  1  0.71893750  0.96312350  0.60912000  1
  C  1138  1  0.73430800  0.94602350  0.61181650  1
  C  1139  1  0.87199650  0.94852650  0.63135400  1
  C  1140  1  0.84084450  0.93741700  0.62634850  1
  C  1141  1  0.74315350  0.84740800  0.62555450  1
  C  1142  1  0.73358150  0.82070650  0.62964900  1
  C  1143  1  0.65475950  0.04891000  0.60058750  1
  C  1144  1  0.71298250  0.70659650  0.66343000  1
  C  1145  1  0.02134900  0.99625600  0.67385700  1
  C  1146  1  0.96841000  0.00675550  0.65581950  1
  C  1150  1  0.33751100  0.97450400  0.06503600  1
  C  1151  1  0.15732950  0.79768100  0.05170850  1
  C  1152  1  0.35980550  0.96892550  0.27805000  1
  C  1153  1  0.13331250  0.78008900  0.06293150  1
  C  1154  1  0.08070050  0.74232100  0.99946050  1
  C  1155  1  0.10509900  0.75997650  0.98851850  1
  C  1156  1  0.14303400  0.78728450  0.01429650  1
  C  1157  1  0.32558750  0.95047250  0.02951600  1
  C  1158  1  0.33072450  0.96412700  0.00560250  1
  C  1159  1  0.34748000  0.00197000  0.01654500  1
  C  1160  1  0.36026050  0.02595650  0.05248400  1
  C  1161  1  0.35514450  0.01237250  0.07649100  1
  C  1162  1  0.39754100  0.99805150  0.30168350  1
  C  1163  1  0.41383350  0.01221250  0.33967500  1
  C  1164  1  0.39289200  0.99768050  0.35498150  1
  C  1165  1  0.35502150  0.96848250  0.33086200  1
  C  1166  1  0.33862700  0.95421450  0.29289250  1
  C  1178  1  0.31137350  0.92868400  0.17500550  1
  C  1179  1  0.32688650  0.94637750  0.15778800  1
  C  1180  1  0.30718400  0.93124150  0.11945450  1
  C  1181  1  0.27185700  0.89836800  0.09839200  1
  C  1182  1  0.25617900  0.88054900  0.11541100  1
  C  1183  1  0.27598300  0.89580550  0.15374350  1
  C  1188  1  0.34435300  0.95573800  0.24283200  1
  C  1189  1  0.32909700  0.94304050  0.21044050  1
  C  1190  1  0.19175150  0.82480850  0.07548200  1
  C  1191  1  0.22286150  0.85095550  0.09554200  1
  C  1192  1  0.32056250  0.94780650  0.10319800  1
  C  1193  1  0.33012400  0.96142050  0.08605150  1
  C  1194  1  0.40795200  0.01129000  0.39240600  1
  C  1195  1  0.35066950  0.01555450  0.99248100  1
  C  1196  1  0.04264350  0.71788500  0.97364050  1
  C  1197  1  0.09534150  0.75271450  0.03702200  1
  C  1405  1  0.46281500  0.04873900  0.45194000  1
  C  1406  1  0.49779950  0.08147600  0.47055550  1
  C  1407  1  0.51957150  0.09952700  0.50883150  1
  C  1408  1  0.50698300  0.08625000  0.53023800  1
  C  1409  1  0.47312700  0.05170000  0.51081400  1
  C  1410  1  0.45114300  0.03355300  0.47256600  1
  C  1411  1  0.53137300  0.10525800  0.57177000  1
  C  1412  1  0.55564150  0.08787100  0.57672350  1
  C  1413  1  0.54302150  0.05376550  0.57724800  1
  C  1414  1  0.56478250  0.03715450  0.58080300  1
  C  1415  1  0.59977500  0.05352450  0.58303150  1
  C  1416  1  0.61142400  0.08588650  0.57958450  1
  C  1417  1  0.58945000  0.10225600  0.57591400  1
  C  1418  1  0.55388200  0.14686450  0.58914250  1
  C  1419  1  0.50903600  0.10006800  0.59101700  1
  C  1420  1  0.52427950  0.10071500  0.62551250  1
  C  1421  1  0.50432450  0.09699450  0.64384400  1
  C  1422  1  0.46853350  0.09361700  0.62888950  1
  C  1423  1  0.45431600  0.09594550  0.59622150  1
  C  1424  1  0.47440750  0.09957150  0.57799500  1
  C  1425  1  0.53877800  0.16644100  0.57492000  1
  C  1426  1  0.55893700  0.20474850  0.59132750  1
  C  1427  1  0.59478300  0.22526300  0.62354800  1
  C  1428  1  0.60885950  0.20648850  0.63974400  1
  C  1429  1  0.58857850  0.16815900  0.62309950  1
  H  18  1  0.79049500  0.38179050  0.41190050  1
  H  19  1  0.79316950  0.33804650  0.43265500  1
  H  20  1  0.69389550  0.29718200  0.31061750  1
  H  21  1  0.92719950  0.24137550  0.54026600  1
  H  22  1  0.90127900  0.32316100  0.57037100  1
  H  23  1  0.96509050  0.36379450  0.61984600  1
  H  24  1  0.99117600  0.28230300  0.58974300  1
  H  25  1  0.71607000  0.05141050  0.40051250  1
  H  26  1  0.61496750  0.00262700  0.27685650  1
  H  27  1  0.65544300  0.06701850  0.31355150  1
  H  28  1  0.67560950  0.98692000  0.36370550  1
  H  35  1  0.81585550  0.27292850  0.46527500  1
  H  36  1  0.79611500  0.17011150  0.45784050  1
  H  37  1  0.71563850  0.17712700  0.37692650  1
  H  38  1  0.69629700  0.25322350  0.33139750  1
  H  49  1  0.76808600  0.38782200  0.35316700  1
  H  50  1  0.03415700  0.34286400  0.65356100  1
  H  51  1  0.60084950  0.94170300  0.26760750  1
  H  69  1  0.27311650  0.68648150  0.59005900  1
  H  70  1  0.27054600  0.70455150  0.54371250  1
  H  71  1  0.36995250  0.68177150  0.60235900  1
  H  72  1  0.13726800  0.67845650  0.31348650  1
  H  73  1  0.16264150  0.73475850  0.42068300  1
  H  74  1  0.09872450  0.72033800  0.39727950  1
  H  75  1  0.07318550  0.66387450  0.29020800  1
  H  76  1  0.34785450  0.74962950  0.33476000  1
  H  77  1  0.44935700  0.72712300  0.38652500  1
  H  78  1  0.40913050  0.72343750  0.41075200  1
  H  79  1  0.38806450  0.75318950  0.31042200  1
  H  86  1  0.24820100  0.71472400  0.45620100  1
  H  87  1  0.26830700  0.72719450  0.37349150  1
  H  88  1  0.34858250  0.72642350  0.46081500  1
  H  89  1  0.36765450  0.70013950  0.55607300  1
  H  100  1  0.29560150  0.65020150  0.61866400  1
  H  101  1  0.02986650  0.68476450  0.30743200  1
  H  102  1  0.46309900  0.73188800  0.33957500  1
  H  120  1  0.96890200  0.59726200  0.32263100  1
  H  121  1  0.90439700  0.57646500  0.30452100  1
  H  122  1  0.98548100  0.69869100  0.32734600  1
  H  123  1  0.70001350  0.46908500  0.33080450  1
  H  124  1  0.75129750  0.43837300  0.27469850  1
  H  125  1  0.74233600  0.38886250  0.28908750  1
  H  126  1  0.69134300  0.41957400  0.34535900  1
  H  127  1  0.64965500  0.60839150  0.25911250  1
  H  128  1  0.72402200  0.73225600  0.28154500  1
  H  129  1  0.75197800  0.69569500  0.28540000  1
  H  130  1  0.62171550  0.64506150  0.25538600  1
  H  137  1  0.80657200  0.54382150  0.29451450  1
  H  138  1  0.71114400  0.55131700  0.28196500  1
  H  139  1  0.79912000  0.63227850  0.28251550  1
  H  140  1  0.92073600  0.67786850  0.30893750  1
  H  151  1  0.03364650  0.65608400  0.35896250  1
  H  152  1  0.68785600  0.35549450  0.32457150  1
  H  153  1  0.67222700  0.74131300  0.27676100  1
  H  171  1  0.09527600  0.41937850  0.62742450  1
  H  172  1  0.15966600  0.46580800  0.67122300  1
  H  173  1  0.07819250  0.40704250  0.71175600  1
  H  174  1  0.36366650  0.69612750  0.76778400  1
  H  175  1  0.31237950  0.58861950  0.68616500  1
  H  176  1  0.32131000  0.61186000  0.64559200  1
  H  177  1  0.37230400  0.71924000  0.72691600  1
  H  178  1  0.41349600  0.67510850  0.95738750  1
  H  179  1  0.33882750  0.62295550  0.00649600  1
  H  180  1  0.31112900  0.59888950  0.94215850  1
  H  181  1  0.44118100  0.69928450  0.02182350  1
  H  188  1  0.25723800  0.55334850  0.73628950  1
  H  189  1  0.35238800  0.63629200  0.83897100  1
  H  190  1  0.26439150  0.54890550  0.83198000  1
  H  191  1  0.14282350  0.45341300  0.75576950  1
  H  202  1  0.03036850  0.39072350  0.62118600  1
  H  203  1  0.37579050  0.70180100  0.66647450  1
  H  204  1  0.39042500  0.66982850  0.06724650  1
  H  434  1  0.51643400  0.76308450  0.33422450  1
  H  435  1  0.55036250  0.76954600  0.30357850  1
  H  436  1  0.42904200  0.76062150  0.25109450  1
  H  437  1  0.46310350  0.76736350  0.22040600  1
  H  438  1  0.51266650  0.81865550  0.21781900  1
  H  439  1  0.54694200  0.88327650  0.24558250  1
  H  440  1  0.63417750  0.88640300  0.32954850  1
  H  441  1  0.59980050  0.82163150  0.30192800  1
  H  442  1  0.59874350  0.79105500  0.23863350  1
  H  443  1  0.63571500  0.76334100  0.24499200  1
  H  444  1  0.55493450  0.67882200  0.24776150  1
  H  445  1  0.51765700  0.70639150  0.24114350  1
  H  446  1  0.46384850  0.70502800  0.19024750  1
  H  447  1  0.54496050  0.78873550  0.18680900  1
  H  448  1  0.50766850  0.75834650  0.12213500  1
  H  453  1  0.42685600  0.67468800  0.12573300  1
  H  516  1  0.79049500  0.54889750  0.57900750  1
  H  517  1  0.79316950  0.50515350  0.59976200  1
  H  518  1  0.69389550  0.46428900  0.47772450  1
  H  519  1  0.92719950  0.40848250  0.70737300  1
  H  520  1  0.90127900  0.49026800  0.73747800  1
  H  521  1  0.96509050  0.53090150  0.78695300  1
  H  522  1  0.99117600  0.44941000  0.75685000  1
  H  523  1  0.71607000  0.21851750  0.56761950  1
  H  524  1  0.61496750  0.16973400  0.44396350  1
  H  525  1  0.65544300  0.23412550  0.48065850  1
  H  526  1  0.67560950  0.15402701  0.53081251  1
  H  533  1  0.81585550  0.44003550  0.63238200  1
  H  534  1  0.79611500  0.33721850  0.62494750  1
  H  535  1  0.71563850  0.34423400  0.54403350  1
  H  536  1  0.69629700  0.42033050  0.49850450  1
  H  547  1  0.76808600  0.55492900  0.52027400  1
  H  548  1  0.03415700  0.50997100  0.82066800  1
  H  549  1  0.60084950  0.10881000  0.43471450  1
  H  567  1  0.27311650  0.85358850  0.75716600  1
  H  568  1  0.27054600  0.87165850  0.71081950  1
  H  569  1  0.36995250  0.84887850  0.76946600  1
  H  570  1  0.13726800  0.84556350  0.48059350  1
  H  571  1  0.16264150  0.90186550  0.58779000  1
  H  572  1  0.09872450  0.88744500  0.56438650  1
  H  573  1  0.07318550  0.83098150  0.45731500  1
  H  574  1  0.34785450  0.91673650  0.50186700  1
  H  575  1  0.44935700  0.89423000  0.55363200  1
  H  576  1  0.40913050  0.89054450  0.57785900  1
  H  577  1  0.38806450  0.92029651  0.47752901  1
  H  584  1  0.24820100  0.88183100  0.62330800  1
  H  585  1  0.26830700  0.89430150  0.54059850  1
  H  586  1  0.34858250  0.89353050  0.62792200  1
  H  587  1  0.36765450  0.86724650  0.72318000  1
  H  598  1  0.29560150  0.81730850  0.78577100  1
  H  599  1  0.02986650  0.85187150  0.47453900  1
  H  600  1  0.46309900  0.89899500  0.50668200  1
  H  618  1  0.96890200  0.76436900  0.48973800  1
  H  619  1  0.90439700  0.74357200  0.47162800  1
  H  620  1  0.98548100  0.86579800  0.49445300  1
  H  621  1  0.70001350  0.63619200  0.49791150  1
  H  622  1  0.75129750  0.60548000  0.44180550  1
  H  623  1  0.74233600  0.55596950  0.45619450  1
  H  624  1  0.69134300  0.58668100  0.51246600  1
  H  625  1  0.64965500  0.77549850  0.42621950  1
  H  626  1  0.72402200  0.89936300  0.44865200  1
  H  627  1  0.75197800  0.86280200  0.45250700  1
  H  628  1  0.62171550  0.81216850  0.42249300  1
  H  635  1  0.80657200  0.71092850  0.46162150  1
  H  636  1  0.71114400  0.71842400  0.44907200  1
  H  637  1  0.79912000  0.79938550  0.44962250  1
  H  638  1  0.92073600  0.84497550  0.47604450  1
  H  649  1  0.03364650  0.82319100  0.52606950  1
  H  650  1  0.68785600  0.52260150  0.49167850  1
  H  651  1  0.67222700  0.90842000  0.44386800  1
  H  669  1  0.09527600  0.58648550  0.79453150  1
  H  670  1  0.15966600  0.63291500  0.83833000  1
  H  671  1  0.07819250  0.57414950  0.87886300  1
  H  672  1  0.36366650  0.86323450  0.93489100  1
  H  673  1  0.31237950  0.75572650  0.85327200  1
  H  674  1  0.32131000  0.77896700  0.81269900  1
  H  675  1  0.37230400  0.88634700  0.89402300  1
  H  676  1  0.41349600  0.84221550  0.12449450  1
  H  677  1  0.33882750  0.79006250  0.17360300  1
  H  678  1  0.31112900  0.76599650  0.10926550  1
  H  679  1  0.44118100  0.86639150  0.18893050  1
  H  686  1  0.25723800  0.72045550  0.90339650  1
  H  687  1  0.35238800  0.80339900  0.00607800  1
  H  688  1  0.26439150  0.71601250  0.99908700  1
  H  689  1  0.14282350  0.62052000  0.92287650  1
  H  700  1  0.03036850  0.55783050  0.78829300  1
  H  701  1  0.37579050  0.86890800  0.83358150  1
  H  702  1  0.39042500  0.83693550  0.23435350  1
  H  932  1  0.51643400  0.93019150  0.50133150  1
  H  933  1  0.55036250  0.93665300  0.47068550  1
  H  934  1  0.42904200  0.92772850  0.41820150  1
  H  935  1  0.46310350  0.93447050  0.38751300  1
  H  936  1  0.51266650  0.98576250  0.38492600  1
  H  937  1  0.54694200  0.05038350  0.41268950  1
  H  938  1  0.63417750  0.05351000  0.49665550  1
  H  939  1  0.59980050  0.98873850  0.46903500  1
  H  940  1  0.59874350  0.95816200  0.40574050  1
  H  941  1  0.63571500  0.93044800  0.41209900  1
  H  942  1  0.55493450  0.84592900  0.41486850  1
  H  943  1  0.51765700  0.87349850  0.40825050  1
  H  944  1  0.46384850  0.87213500  0.35735450  1
  H  945  1  0.54496050  0.95584250  0.35391600  1
  H  946  1  0.50766850  0.92545350  0.28924200  1
  H  951  1  0.42685600  0.84179500  0.29284000  1
  H  1014  1  0.79049500  0.71600450  0.74611450  1
  H  1015  1  0.79316950  0.67226050  0.76686900  1
  H  1016  1  0.69389550  0.63139600  0.64483150  1
  H  1017  1  0.92719950  0.57558950  0.87448000  1
  H  1018  1  0.90127900  0.65737500  0.90458500  1
  H  1019  1  0.96509050  0.69800850  0.95406000  1
  H  1020  1  0.99117600  0.61651700  0.92395700  1
  H  1021  1  0.71607000  0.38562450  0.73472650  1
  H  1022  1  0.61496750  0.33684100  0.61107050  1
  H  1023  1  0.65544300  0.40123250  0.64776550  1
  H  1024  1  0.67560950  0.32113400  0.69791950  1
  H  1031  1  0.81585550  0.60714250  0.79948900  1
  H  1032  1  0.79611500  0.50432550  0.79205450  1
  H  1033  1  0.71563850  0.51134100  0.71114050  1
  H  1034  1  0.69629700  0.58743750  0.66561150  1
  H  1045  1  0.76808600  0.72203600  0.68738100  1
  H  1046  1  0.03415700  0.67707800  0.98777500  1
  H  1047  1  0.60084950  0.27591700  0.60182150  1
  H  1065  1  0.27311650  0.02069550  0.92427300  1
  H  1066  1  0.27054600  0.03876550  0.87792650  1
  H  1067  1  0.36995250  0.01598550  0.93657300  1
  H  1068  1  0.13726800  0.01267050  0.64770050  1
  H  1069  1  0.16264150  0.06897250  0.75489700  1
  H  1070  1  0.09872450  0.05455200  0.73149350  1
  H  1071  1  0.07318550  0.99808850  0.62442200  1
  H  1072  1  0.34785450  0.08384350  0.66897400  1
  H  1073  1  0.44935700  0.06133700  0.72073900  1
  H  1074  1  0.40913050  0.05765150  0.74496600  1
  H  1075  1  0.38806450  0.08740350  0.64463600  1
  H  1082  1  0.24820100  0.04893800  0.79041500  1
  H  1083  1  0.26830700  0.06140850  0.70770550  1
  H  1084  1  0.34858250  0.06063750  0.79502900  1
  H  1085  1  0.36765450  0.03435350  0.89028700  1
  H  1096  1  0.29560150  0.98441550  0.95287800  1
  H  1097  1  0.02986650  0.01897850  0.64164600  1
  H  1098  1  0.46309900  0.06610200  0.67378900  1
  H  1116  1  0.96890200  0.93147600  0.65684500  1
  H  1117  1  0.90439700  0.91067900  0.63873500  1
  H  1118  1  0.98548100  0.03290500  0.66156000  1
  H  1119  1  0.70001350  0.80329900  0.66501850  1
  H  1120  1  0.75129750  0.77258700  0.60891250  1
  H  1121  1  0.74233600  0.72307650  0.62330150  1
  H  1122  1  0.69134300  0.75378800  0.67957300  1
  H  1123  1  0.64965500  0.94260550  0.59332650  1
  H  1124  1  0.72402200  0.06647000  0.61575900  1
  H  1125  1  0.75197800  0.02990900  0.61961400  1
  H  1126  1  0.62171550  0.97927550  0.58960000  1
  H  1133  1  0.80657200  0.87803550  0.62872850  1
  H  1134  1  0.71114400  0.88553100  0.61617900  1
  H  1135  1  0.79912000  0.96649250  0.61672950  1
  H  1136  1  0.92073600  0.01208250  0.64315150  1
  H  1147  1  0.03364650  0.99029800  0.69317650  1
  H  1148  1  0.68785600  0.68970850  0.65878550  1
  H  1149  1  0.67222700  0.07552703  0.61097503  1
  H  1167  1  0.09527600  0.75359250  0.96163850  1
  H  1168  1  0.15966600  0.80002200  0.00543700  1
  H  1169  1  0.07819250  0.74125650  0.04597000  1
  H  1170  1  0.36366650  0.03034150  0.10199800  1
  H  1171  1  0.31237950  0.92283350  0.02037900  1
  H  1172  1  0.32131000  0.94607400  0.97980600  1
  H  1173  1  0.37230400  0.05345400  0.06113000  1
  H  1174  1  0.41349600  0.00932250  0.29160150  1
  H  1175  1  0.33882750  0.95716950  0.34071000  1
  H  1176  1  0.31112900  0.93310350  0.27637250  1
  H  1177  1  0.44118100  0.03349850  0.35603750  1
  H  1184  1  0.25723800  0.88756250  0.07050350  1
  H  1185  1  0.35238800  0.97050600  0.17318500  1
  H  1186  1  0.26439150  0.88311950  0.16619400  1
  H  1187  1  0.14282350  0.78762700  0.08998350  1
  H  1198  1  0.03036850  0.72493750  0.95540000  1
  H  1199  1  0.37579050  0.03601500  0.00068850  1
  H  1200  1  0.39042500  0.00404252  0.40146052  1
  H  1430  1  0.51643400  0.09729850  0.66843850  1
  H  1431  1  0.55036250  0.10376000  0.63779250  1
  H  1432  1  0.42904200  0.09483550  0.58530850  1
  H  1433  1  0.46310350  0.10157750  0.55462000  1
  H  1434  1  0.51266650  0.15286950  0.55203300  1
  H  1435  1  0.54694200  0.21749050  0.57979650  1
  H  1436  1  0.63417750  0.22061700  0.66376250  1
  H  1437  1  0.59980050  0.15584550  0.63614200  1
  H  1438  1  0.59874350  0.12526900  0.57284750  1
  H  1439  1  0.63571500  0.09755500  0.57920600  1
  H  1440  1  0.55493450  0.01303600  0.58197550  1
  H  1441  1  0.51765700  0.04060550  0.57535750  1
  H  1442  1  0.46384850  0.03924200  0.52446150  1
  H  1443  1  0.54496050  0.12294950  0.52102300  1
  H  1444  1  0.50766850  0.09256050  0.45634900  1
  H  1449  1  0.42685600  0.00890200  0.45994700  1
  N  449  1  0.44800500  0.75568350  0.31039550  1
  N  450  1  0.61550900  0.92729000  0.30626900  1
  N  451  1  0.44346900  0.69895850  0.08152650  1
  N  452  1  0.61919500  0.70244400  0.25259900  1
  N  947  1  0.44800500  0.92279050  0.47750250  1
  N  948  1  0.61550900  0.09439700  0.47337600  1
  N  949  1  0.44346900  0.86606550  0.24863350  1
  N  950  1  0.61919500  0.86955100  0.41970600  1
  N  1445  1  0.44800500  0.08989750  0.64460950  1
  N  1446  1  0.61550900  0.26150400  0.64048300  1
  N  1447  1  0.44346900  0.03317252  0.41574052  1
  N  1448  1  0.61919500  0.03665802  0.58681303  1
