# generated using pymatgen
data_Sm2H9C24(NO6)3
_symmetry_space_group_name_H-M   'P 1'
_cell_length_a   13.85479000
_cell_length_b   13.89890000
_cell_length_c   16.36991000
_cell_angle_alpha   66.67361000
_cell_angle_beta   66.63991000
_cell_angle_gamma   71.51493000
_symmetry_Int_Tables_number   1
_chemical_formula_structural   Sm2H9C24(NO6)3
_chemical_formula_sum   'Sm4 H18 C48 N6 O36'
_cell_volume   2609.03223608
_cell_formula_units_Z   2
loop_
 _symmetry_equiv_pos_site_id
 _symmetry_equiv_pos_as_xyz
  1  'x, y, z'
loop_
 _atom_site_type_symbol
 _atom_site_label
 _atom_site_symmetry_multiplicity
 _atom_site_fract_x
 _atom_site_fract_y
 _atom_site_fract_z
 _atom_site_occupancy
  Sm  Sm1  1  0.56681000  0.84620000  0.00014000  1.0
  Sm  Sm2  1  0.15392000  0.43332000  0.49968000  1.0
  Sm  Sm3  1  0.43778000  0.15199000  0.00400000  1.0
  Sm  Sm4  1  0.84719000  0.56206000  0.49639000  1.0
  H  H1  1  0.76126000  0.65243000  0.76586000  1.0
  H  H2  1  0.10129000  0.53264000  0.71743000  1.0
  H  H3  1  0.91112000  0.64395000  0.95510000  1.0
  H  H4  1  0.86683000  0.92235000  0.85672000  1.0
  H  H5  1  0.34497000  0.23766000  0.73629000  1.0
  H  H6  1  0.46420000  0.89880000  0.78447000  1.0
  H  H7  1  0.35804000  0.08938000  0.54422000  1.0
  H  H8  1  0.07832000  0.13263000  0.64351000  1.0
  H  H9  1  0.22880000  0.34997000  0.23215000  1.0
  H  H10  1  0.88857000  0.46076000  0.27673000  1.0
  H  H11  1  0.08843000  0.35409000  0.03801000  1.0
  H  H12  1  0.13940000  0.07202000  0.14657000  1.0
  H  H13  1  0.64646000  0.77049000  0.27031000  1.0
  H  H14  1  0.53985000  0.11042000  0.22228000  1.0
  H  H15  1  0.64719000  0.91309000  0.46095000  1.0
  H  H16  1  0.92634000  0.86043000  0.35497000  1.0
  H  H17  1  0.74126000  0.25765000  0.74985000  1.0
  H  H18  1  0.26366000  0.73560000  0.25120000  1.0
  C  C1  1  0.93807000  0.56922000  0.64738000  1.0
  C  C2  1  0.93162000  0.58981000  0.73254000  1.0
  C  C3  1  0.82515000  0.65155000  0.86705000  1.0
  C  C4  1  0.72178000  0.70006000  0.92412000  1.0
  C  C5  1  0.91656000  0.62849000  0.89330000  1.0
  C  C6  1  0.79262000  0.08903000  0.81110000  1.0
  C  C7  1  0.68356000  0.07226000  0.87766000  1.0
  C  C8  1  0.87859000  0.00212000  0.81051000  1.0
  C  C9  1  0.83242000  0.63320000  0.78654000  1.0
  C  C10  1  0.02375000  0.56640000  0.75831000  1.0
  C  C11  1  0.01436000  0.58708000  0.83801000  1.0
  C  C12  1  0.42569000  0.05978000  0.85590000  1.0
  C  C13  1  0.40709000  0.06790000  0.76934000  1.0
  C  C14  1  0.34804000  0.17481000  0.63345000  1.0
  C  C15  1  0.30009000  0.27805000  0.57606000  1.0
  C  C16  1  0.37204000  0.08386000  0.60673000  1.0
  C  C17  1  0.91108000  0.20695000  0.68825000  1.0
  C  C18  1  0.92795000  0.31559000  0.62131000  1.0
  C  C19  1  0.99813000  0.12111000  0.68942000  1.0
  C  C20  1  0.36469000  0.16708000  0.71496000  1.0
  C  C21  1  0.43147000  0.97628000  0.74305000  1.0
  C  C22  1  0.41254000  0.98618000  0.66245000  1.0
  C  C23  1  0.04489000  0.42983000  0.35003000  1.0
  C  C24  1  0.05771000  0.40828000  0.26355000  1.0
  C  C25  1  0.16941000  0.34788000  0.12925000  1.0
  C  C26  1  0.27491000  0.29961000  0.07404000  1.0
  C  C27  1  0.07984000  0.36958000  0.10075000  1.0
  C  C28  1  0.21355000  0.90482000  0.19067000  1.0
  C  C29  1  0.32351000  0.91990000  0.12561000  1.0
  C  C30  1  0.12771000  0.99178000  0.19154000  1.0
  C  C31  1  0.15881000  0.36722000  0.21036000  1.0
  C  C32  1  0.96740000  0.42939000  0.23592000  1.0
  C  C33  1  0.98025000  0.40976000  0.15486000  1.0
  C  C34  1  0.57058000  0.95379000  0.15002000  1.0
  C  C35  1  0.59091000  0.94142000  0.23696000  1.0
  C  C36  1  0.65078000  0.83073000  0.37178000  1.0
  C  C37  1  0.69855000  0.72569000  0.42782000  1.0
  C  C38  1  0.63061000  0.92077000  0.39894000  1.0
  C  C39  1  0.09412000  0.78632000  0.31095000  1.0
  C  C40  1  0.07969000  0.67659000  0.37592000  1.0
  C  C41  1  0.00689000  0.87196000  0.30993000  1.0
  C  C42  1  0.63065000  0.84065000  0.29118000  1.0
  C  C43  1  0.57069000  0.03194000  0.26360000  1.0
  C  C44  1  0.59062000  0.01977000  0.34434000  1.0
  C  C45  1  0.80871000  0.19094000  0.74963000  1.0
  C  C46  1  0.98004000  0.02011000  0.75012000  1.0
  C  C47  1  0.19671000  0.80275000  0.25085000  1.0
  C  C48  1  0.02576000  0.97338000  0.25066000  1.0
  N  N1  1  0.11071000  0.56344000  0.86602000  1.0
  N  N2  1  0.43629000  0.89037000  0.63432000  1.0
  N  N3  1  0.88518000  0.43306000  0.12514000  1.0
  N  N4  1  0.56871000  0.11520000  0.37267000  1.0
  N  N5  1  0.07166000  0.92869000  0.75070000  1.0
  N  N6  1  0.93442000  0.06513000  0.25042000  1.0
  O  O1  1  0.67115000  0.97542000  0.92127000  1.0
  O  O2  1  0.85232000  0.59386000  0.62640000  1.0
  O  O3  1  0.71500000  0.70417000  0.00346000  1.0
  O  O4  1  0.61025000  0.15328000  0.88764000  1.0
  O  O5  1  0.02908000  0.52840000  0.59955000  1.0
  O  O6  1  0.64160000  0.74373000  0.89255000  1.0
  O  O7  1  0.19745000  0.52784000  0.81534000  1.0
  O  O8  1  0.09777000  0.58016000  0.93919000  1.0
  O  O9  1  0.05152000  0.83849000  0.79949000  1.0
  O  O10  1  0.02508000  0.32858000  0.57839000  1.0
  O  O11  1  0.39625000  0.14324000  0.88073000  1.0
  O  O12  1  0.29589000  0.28503000  0.49667000  1.0
  O  O13  1  0.84642000  0.38777000  0.61063000  1.0
  O  O14  1  0.47011000  0.96935000  0.90104000  1.0
  O  O15  1  0.25681000  0.35795000  0.60767000  1.0
  O  O16  1  0.47148000  0.80374000  0.68514000  1.0
  O  O17  1  0.41982000  0.90368000  0.56093000  1.0
  O  O18  1  0.16249000  0.94829000  0.70245000  1.0
  O  O19  1  0.34337000  0.01432000  0.09221000  1.0
  O  O20  1  0.12807000  0.41938000  0.37021000  1.0
  O  O21  1  0.28380000  0.29042000  0.99614000  1.0
  O  O22  1  0.39049000  0.83836000  0.10726000  1.0
  O  O23  1  0.94936000  0.45832000  0.39997000  1.0
  O  O24  1  0.35425000  0.26164000  0.10670000  1.0
  O  O25  1  0.79721000  0.46631000  0.17601000  1.0
  O  O26  1  0.90014000  0.41874000  0.05039000  1.0
  O  O27  1  0.95459000  0.15475000  0.19913000  1.0
  O  O28  1  0.98488000  0.65647000  0.41130000  1.0
  O  O29  1  0.58140000  0.87078000  0.12987000  1.0
  O  O30  1  0.71523000  0.72027000  0.50155000  1.0
  O  O31  1  0.16213000  0.60950000  0.39236000  1.0
  O  O32  1  0.54284000  0.04879000  0.09945000  1.0
  O  O33  1  0.72867000  0.64320000  0.40036000  1.0
  O  O34  1  0.53795000  0.20288000  0.32021000  1.0
  O  O35  1  0.58174000  0.10070000  0.44784000  1.0
  O  O36  1  0.84392000  0.04651000  0.30140000  1.0
