# generated using pymatgen
data_H4C6N
_symmetry_space_group_name_H-M   'P 1'
_cell_length_a   8.05458333
_cell_length_b   31.13660000
_cell_length_c   71.22380000
_cell_angle_alpha   89.97760000
_cell_angle_beta   90.01620000
_cell_angle_gamma   90.10350000
_symmetry_Int_Tables_number   1
_chemical_formula_structural   H4C6N
_chemical_formula_sum   'H160 C240 N40'
_cell_volume   17862.35220493
_cell_formula_units_Z   40
loop_
 _symmetry_equiv_pos_site_id
 _symmetry_equiv_pos_as_xyz
  1  'x, y, z'
loop_
 _atom_site_type_symbol
 _atom_site_label
 _atom_site_symmetry_multiplicity
 _atom_site_fract_x
 _atom_site_fract_y
 _atom_site_fract_z
 _atom_site_occupancy
  C  1  1  0.84843260  0.26770150  0.94236700  1
  C  2  1  0.75031460  0.23120300  0.94243100  1
  C  3  1  0.71361260  0.22039650  0.92384400  1
  C  5  1  0.87139760  0.28059250  0.92375600  1
  C  6  1  0.96011956  0.31794500  0.91797300  1
  C  7  1  0.97169356  0.33235150  0.89907600  1
  C  9  1  0.94478956  0.33592000  0.86779450  1
  C  10  1  0.02598200  0.37314400  0.87375900  1
  C  11  1  0.04536200  0.37056300  0.89298400  1
  C  12  1  0.90782660  0.32479050  0.84892850  1
  C  13  1  0.83572160  0.28516350  0.84319750  1
  C  15  1  0.71391260  0.21988300  0.84314950  1
  C  16  1  0.75200060  0.23087800  0.82461050  1
  C  17  1  0.82427360  0.27106550  0.82461450  1
  C  18  1  0.63328760  0.18123600  0.84877400  1
  C  19  1  0.59918060  0.17005300  0.86770500  1
  C  21  1  0.59046560  0.17172400  0.89915300  1
  C  22  1  0.50272760  0.13549250  0.89310200  1
  C  23  1  0.50989160  0.13417100  0.87374400  1
  C  24  1  0.61718360  0.18431200  0.91810600  1
  C  25  1  0.53973860  0.15870900  0.93224400  1
  C  26  1  0.61866260  0.12164200  0.93937400  1
  C  27  1  0.53366660  0.09369450  0.95162500  1
  C  28  1  0.36755700  0.10205200  0.95699300  1
  C  29  1  0.28960500  0.13923250  0.94988400  1
  C  30  1  0.37441500  0.16729400  0.93768700  1
  C  31  1  0.58973360  0.15101650  0.83450450  1
  C  32  1  0.69435860  0.11558150  0.83092150  1
  C  33  1  0.66323360  0.08813150  0.81562500  1
  C  34  1  0.52642760  0.09529700  0.80355500  1
  C  35  1  0.42201560  0.13070000  0.80718200  1
  C  36  1  0.45208460  0.15803700  0.82257750  1
  C  37  1  0.95105656  0.35470800  0.83459350  1
  C  38  1  0.82720460  0.38052950  0.82626500  1
  C  39  1  0.86614760  0.40761250  0.81106750  1
  C  40  1  0.02887400  0.40933100  0.80375900  1
  C  41  1  0.15329900  0.38396750  0.81238100  1
  C  42  1  0.11475500  0.35682200  0.82757000  1
  C  43  1  0.04436000  0.34289250  0.93189200  1
  C  44  1  0.96939256  0.37952350  0.93994300  1
  C  45  1  0.21167900  0.33388000  0.93635400  1
  C  46  1  0.30200000  0.36100650  0.94846700  1
  C  47  1  0.22811600  0.39777400  0.95648600  1
  C  48  1  0.06005000  0.40657750  0.95207950  1
  C  79  1  0.84452060  0.72724950  0.55288100  1
  C  80  1  0.74601860  0.76359550  0.55276550  1
  C  81  1  0.71067260  0.77474400  0.57134100  1
  C  83  1  0.86904260  0.71474900  0.57151650  1
  C  84  1  0.95895556  0.67769350  0.57735750  1
  C  85  1  0.97167256  0.66362100  0.59629950  1
  C  87  1  0.94564456  0.66041650  0.62761500  1
  C  88  1  0.02857100  0.62345900  0.62173550  1
  C  89  1  0.04714400  0.62579600  0.60249050  1
  C  90  1  0.90827660  0.67162550  0.64646100  1
  C  91  1  0.83438960  0.71099800  0.65213650  1
  C  93  1  0.71244560  0.77614700  0.65207500  1
  C  94  1  0.74787860  0.76501000  0.67066350  1
  C  95  1  0.82009760  0.72488850  0.67072300  1
  C  96  1  0.63316160  0.81482800  0.64635850  1
  C  97  1  0.59931860  0.82587600  0.62740750  1
  C  99  1  0.58953560  0.82382300  0.59595900  1
  C  100  1  0.50356460  0.86030000  0.60195850  1
  C  101  1  0.51137360  0.86184900  0.62131300  1
  C  102  1  0.61498760  0.81092800  0.57702400  1
  C  103  1  0.53767760  0.83647000  0.56285900  1
  C  104  1  0.61723460  0.87345450  0.55566250  1
  C  105  1  0.53225660  0.90150000  0.54347850  1
  C  106  1  0.36567600  0.89329200  0.53819150  1
  C  107  1  0.28717200  0.85617400  0.54535600  1
  C  108  1  0.37187100  0.82802700  0.55750400  1
  C  109  1  0.59135960  0.84529100  0.66057200  1
  C  110  1  0.70021760  0.87984350  0.66437900  1
  C  111  1  0.67111460  0.90735100  0.67969400  1
  C  112  1  0.53228660  0.90109200  0.69156050  1
  C  113  1  0.42380360  0.86652750  0.68774100  1
  C  114  1  0.45185060  0.83914900  0.67231850  1
  C  115  1  0.95081956  0.64180600  0.66084700  1
  C  116  1  0.82711760  0.61521350  0.66878950  1
  C  117  1  0.86490260  0.58808950  0.68400050  1
  C  118  1  0.02645600  0.58693800  0.69165950  1
  C  119  1  0.15022400  0.61357700  0.68360900  1
  C  120  1  0.11282000  0.64077200  0.66840600  1
  C  121  1  0.04336100  0.65274800  0.56346400  1
  C  122  1  0.96907156  0.61582600  0.55551700  1
  C  123  1  0.21029900  0.66211400  0.55890150  1
  C  124  1  0.30085700  0.63506600  0.54681150  1
  C  125  1  0.22769600  0.59799700  0.53890600  1
  C  126  1  0.06002300  0.58882900  0.54341750  1
  C  157  1  0.26651200  0.72791100  0.05298200  1
  C  158  1  0.36497800  0.76433700  0.05290750  1
  C  159  1  0.40098680  0.77529200  0.07149550  1
  C  161  1  0.24224500  0.71525500  0.07160450  1
  C  162  1  0.15259900  0.67803800  0.07738650  1
  C  163  1  0.13998700  0.66381400  0.09630750  1
  C  165  1  0.16661800  0.66038500  0.12760600  1
  C  166  1  0.08256700  0.62353900  0.12170150  1
  C  167  1  0.06335800  0.62605400  0.10247350  1
  C  168  1  0.20417500  0.67147950  0.14646250  1
  C  169  1  0.27805600  0.71090000  0.15217900  1
  C  171  1  0.40074380  0.77608500  0.15219650  1
  C  172  1  0.36348700  0.76504100  0.17075100  1
  C  173  1  0.29089300  0.72489150  0.17076700  1
  C  174  1  0.48123380  0.81472600  0.14654250  1
  C  175  1  0.51542480  0.82582600  0.12760400  1
  C  177  1  0.52406480  0.82407700  0.09615150  1
  C  178  1  0.61279280  0.86015700  0.10219250  1
  C  179  1  0.60573380  0.86152050  0.12155100  1
  C  180  1  0.49734980  0.81141600  0.07720550  1
  C  181  1  0.57419780  0.83705600  0.06303150  1
  C  182  1  0.50000480  0.87564350  0.05686450  1
  C  183  1  0.58522280  0.90336700  0.04454400  1
  C  184  1  0.74693480  0.89328750  0.03810900  1
  C  185  1  0.81890480  0.85423950  0.04402750  1
  C  186  1  0.73418180  0.82648600  0.05637250  1
  C  187  1  0.52482380  0.84500350  0.16079150  1
  C  188  1  0.42003680  0.88041900  0.16435150  1
  C  189  1  0.45106280  0.90794850  0.17962400  1
  C  190  1  0.58764380  0.90080700  0.19173150  1
  C  191  1  0.69219380  0.86541700  0.18812800  1
  C  192  1  0.66246080  0.83805850  0.17272950  1
  C  193  1  0.16065700  0.64161650  0.16081000  1
  C  194  1  0.28395400  0.61537700  0.16898950  1
  C  195  1  0.24496900  0.58829900  0.18418750  1
  C  196  1  0.08278300  0.58704000  0.19166300  1
  C  197  1  0.95885600  0.61283900  0.18319450  1
  C  198  1  0.99744500  0.63997000  0.16800150  1
  C  199  1  0.06874900  0.65307450  0.06342850  1
  C  200  1  0.13786300  0.61447700  0.05654400  1
  C  201  1  0.90753500  0.66468300  0.05748900  1
  C  202  1  0.81695300  0.63802750  0.04519700  1
  C  203  1  0.88382000  0.59894400  0.03859400  1
  C  204  1  0.04665400  0.58779200  0.04430950  1
  C  235  1  0.26883100  0.26881500  0.44244350  1
  C  236  1  0.36773200  0.23255000  0.44255200  1
  C  237  1  0.40299080  0.22140300  0.42397400  1
  C  239  1  0.24385300  0.28127250  0.42380950  1
  C  240  1  0.15363100  0.31830700  0.41799400  1
  C  241  1  0.14018500  0.33228900  0.39904100  1
  C  243  1  0.16591000  0.33542300  0.36771150  1
  C  244  1  0.08129200  0.37214400  0.37356300  1
  C  245  1  0.06267700  0.36980350  0.39280550  1
  C  246  1  0.20374000  0.32429150  0.34886850  1
  C  247  1  0.27819400  0.28499000  0.34319400  1
  C  249  1  0.40095680  0.21995000  0.34325550  1
  C  250  1  0.36511300  0.23102300  0.32467050  1
  C  251  1  0.29273200  0.27112200  0.32460650  1
  C  252  1  0.48089780  0.18135600  0.34896650  1
  C  253  1  0.51527480  0.17040100  0.36791550  1
  C  255  1  0.52498580  0.17243700  0.39936750  1
  C  256  1  0.61261280  0.13623600  0.39335250  1
  C  257  1  0.60474080  0.13467450  0.37399800  1
  C  258  1  0.49898780  0.18525700  0.41830550  1
  C  259  1  0.57551480  0.15962500  0.43249850  1
  C  260  1  0.50096180  0.12098800  0.43863700  1
  C  261  1  0.58600580  0.09317750  0.45091150  1
  C  262  1  0.74796380  0.10319500  0.45734100  1
  C  263  1  0.82030880  0.14229700  0.45145800  1
  C  264  1  0.73573580  0.17013950  0.43916000  1
  C  265  1  0.52260080  0.15086800  0.33475800  1
  C  266  1  0.41381780  0.11627900  0.33099000  1
  C  267  1  0.44268380  0.08875250  0.31567600  1
  C  268  1  0.58120280  0.09504000  0.30376500  1
  C  269  1  0.68969780  0.12962050  0.30755200  1
  C  270  1  0.66178880  0.15704300  0.32296400  1
  C  271  1  0.16115500  0.35410800  0.33448050  1
  C  272  1  0.28468600  0.38087500  0.32661750  1
  C  273  1  0.24698200  0.40803450  0.31141650  1
  C  274  1  0.08566900  0.40905450  0.30369000  1
  C  275  1  0.96205100  0.38224350  0.31166150  1
  C  276  1  0.99938300  0.35500200  0.32685300  1
  C  277  1  0.06971500  0.34325800  0.43193850  1
  C  278  1  0.13809400  0.38211900  0.43871700  1
  C  279  1  0.90889100  0.33138100  0.43796600  1
  C  280  1  0.81823100  0.35793500  0.45025950  1
  C  281  1  0.88437500  0.39726200  0.45675550  1
  C  282  1  0.04677100  0.40871700  0.45094400  1
  C  313  1  0.08909000  0.53296300  0.74689600  1
  C  314  1  0.08717000  0.50526500  0.76248650  1
  C  315  1  0.16763900  0.46502050  0.76174800  1
  C  316  1  0.24759800  0.45314100  0.74485950  1
  C  317  1  0.25048700  0.48037700  0.72893050  1
  C  318  1  0.17054900  0.52105400  0.73010600  1
  C  325  1  0.17418800  0.43763150  0.77710950  1
  C  327  1  0.18028100  0.55067650  0.71571350  1
  C  329  1  0.58094360  0.04019900  0.75052500  1
  C  330  1  0.58364960  0.02265500  0.73236800  1
  C  331  1  0.51890360  0.98126200  0.72873850  1
  C  332  1  0.44559260  0.95881400  0.74393450  1
  C  333  1  0.44075060  0.97593400  0.76239950  1
  C  334  1  0.51161660  0.01724000  0.76578350  1
  C  341  1  0.53670860  0.96349800  0.71084800  1
  C  343  1  0.53293460  0.03360900  0.78378700  1
  C  345  1  0.02304700  0.46323150  0.24846550  1
  C  346  1  0.02491000  0.49100500  0.23290000  1
  C  347  1  0.94455500  0.53126250  0.23368300  1
  C  348  1  0.86480900  0.54307600  0.25059450  1
  C  349  1  0.86197700  0.51576000  0.26649850  1
  C  350  1  0.94176200  0.47507350  0.26527450  1
  C  357  1  0.93783800  0.55871900  0.21834300  1
  C  359  1  0.93200300  0.44537700  0.27963850  1
  C  361  1  0.53235980  0.95590250  0.24477550  1
  C  362  1  0.52950980  0.97346000  0.26292950  1
  C  363  1  0.59401280  0.01487800  0.26655950  1
  C  364  1  0.66722780  0.03734250  0.25136050  1
  C  365  1  0.67220480  0.02021050  0.23289850  1
  C  366  1  0.60158780  0.97887400  0.22951550  1
  C  373  1  0.57607280  0.03264600  0.28444950  1
  C  375  1  0.58040780  0.96248400  0.21151150  1
  C  377  1  0.55141400  0.45212500  0.99634500  1
  C  378  1  0.67577600  0.47254350  0.00695950  1
  C  379  1  0.67427600  0.51744350  0.00989600  1
  C  380  1  0.54423800  0.54112650  0.00144750  1
  C  381  1  0.41789600  0.52130450  0.99053100  1
  C  382  1  0.42081500  0.47579350  0.98801400  1
  C  389  1  0.79882100  0.53661900  0.02074300  1
  C  391  1  0.29476400  0.45371850  0.97863300  1
  C  393  1  0.55179800  0.54376650  0.49910950  1
  C  394  1  0.67596500  0.52347100  0.48846400  1
  C  395  1  0.67430000  0.47858100  0.48547100  1
  C  396  1  0.54419300  0.45479900  0.49390800  1
  C  397  1  0.41805200  0.47449450  0.50485750  1
  C  398  1  0.42109100  0.52000200  0.50742800  1
  C  405  1  0.79875800  0.45953100  0.47459350  1
  C  407  1  0.29501300  0.54196200  0.51682650  1
  C  409  1  0.05513100  0.95176300  0.49841850  1
  C  410  1  0.93389480  0.97381400  0.48802800  1
  C  411  1  0.94210278  0.01881300  0.48557300  1
  C  412  1  0.07545600  0.04091350  0.49422950  1
  C  413  1  0.19876500  0.01942250  0.50493000  1
  C  414  1  0.18892500  0.97385800  0.50697750  1
  C  421  1  0.82068080  0.03962050  0.47493750  1
  C  423  1  0.31062600  0.95023400  0.51626200  1
  C  425  1  0.05703000  0.04413250  0.99689000  1
  C  426  1  0.93502580  0.02222350  0.00725350  1
  C  427  1  0.94174878  0.97721300  0.00967100  1
  C  428  1  0.07434900  0.95493900  0.00101950  1
  C  429  1  0.19840500  0.97628800  0.99034600  1
  C  430  1  0.19002900  0.02186400  0.98832700  1
  C  437  1  0.81971180  0.95653900  0.02027800  1
  C  439  1  0.31216500  0.04533550  0.97901800  1
  H  49  1  0.00354800  0.43351750  0.95717150  1
  H  50  1  0.84986060  0.38747750  0.93654000  1
  H  51  1  0.42401600  0.35409400  0.95112000  1
  H  52  1  0.27046700  0.30816450  0.93037800  1
  H  53  1  0.89172560  0.28268600  0.95416350  1
  H  54  1  0.71393060  0.21520000  0.95427300  1
  H  55  1  0.78323960  0.25180200  0.89981900  1
  H  56  1  0.75157460  0.25557700  0.86704500  1
  H  57  1  0.10094600  0.39360550  0.90105000  1
  H  58  1  0.06881300  0.39780400  0.86560700  1
  H  59  1  0.70712060  0.37907800  0.83093650  1
  H  60  1  0.77328560  0.42533300  0.80504950  1
  H  61  1  0.20607800  0.33798850  0.83322200  1
  H  62  1  0.27266300  0.38443600  0.80754600  1
  H  63  1  0.86516660  0.28655850  0.81283050  1
  H  64  1  0.73013960  0.21321150  0.81277400  1
  H  65  1  0.44482160  0.11298050  0.90125200  1
  H  66  1  0.45513860  0.11116900  0.86557700  1
  H  67  1  0.79771160  0.11049600  0.83898950  1
  H  68  1  0.74553260  0.06395200  0.81291250  1
  H  69  1  0.37687500  0.18409650  0.82458450  1
  H  70  1  0.32500200  0.13737800  0.79837050  1
  H  71  1  0.31284900  0.19330200  0.93233250  1
  H  72  1  0.16860600  0.14571950  0.95323200  1
  H  73  1  0.59221760  0.06638100  0.95601100  1
  H  74  1  0.73652060  0.11399500  0.93518500  1
  H  127  1  0.00391100  0.56171150  0.53839200  1
  H  128  1  0.84988760  0.60758850  0.55899100  1
  H  129  1  0.42258500  0.64227200  0.54409100  1
  H  130  1  0.26869100  0.68805450  0.56478900  1
  H  131  1  0.88734860  0.71214600  0.54110350  1
  H  132  1  0.70907060  0.77938750  0.54089850  1
  H  133  1  0.78259460  0.74393150  0.59541550  1
  H  134  1  0.75525560  0.74094900  0.62816900  1
  H  135  1  0.10436000  0.60296350  0.59448750  1
  H  136  1  0.07339100  0.59920450  0.62996300  1
  H  137  1  0.70804460  0.61596100  0.66376400  1
  H  138  1  0.77246360  0.56945400  0.68960350  1
  H  139  1  0.20363000  0.66039600  0.66312500  1
  H  140  1  0.26810600  0.61405600  0.68888900  1
  H  141  1  0.86017460  0.70945000  0.68254900  1
  H  142  1  0.72481160  0.78259950  0.68248400  1
  H  143  1  0.44590160  0.88275200  0.59378000  1
  H  144  1  0.45768560  0.88502400  0.62944550  1
  H  145  1  0.80514260  0.88417650  0.65648400  1
  H  146  1  0.75618560  0.93085950  0.68259200  1
  H  147  1  0.37369500  0.81366300  0.67016700  1
  H  148  1  0.32514000  0.86052650  0.69641400  1
  H  149  1  0.30980700  0.80210800  0.56291800  1
  H  150  1  0.16586400  0.84977100  0.54207200  1
  H  151  1  0.59142260  0.92873250  0.53904150  1
  H  152  1  0.73541360  0.88103450  0.55980150  1
  H  205  1  0.09967300  0.55978550  0.03989600  1
  H  206  1  0.25333300  0.60493000  0.06084400  1
  H  207  1  0.69919400  0.64693950  0.04145250  1
  H  208  1  0.85307000  0.69207000  0.06248900  1
  H  209  1  0.22365400  0.71285300  0.04118350  1
  H  210  1  0.40171280  0.78025200  0.04105750  1
  H  211  1  0.32950600  0.74424450  0.09553850  1
  H  212  1  0.36007300  0.74067800  0.12828050  1
  H  213  1  0.00505600  0.60334300  0.09447550  1
  H  214  1  0.03738700  0.59923750  0.12989800  1
  H  215  1  0.40369880  0.61645600  0.16418600  1
  H  216  1  0.33748900  0.57026250  0.19009150  1
  H  217  1  0.90656600  0.65912650  0.16246700  1
  H  218  1  0.83990900  0.61274800  0.18816150  1
  H  219  1  0.24949000  0.70951500  0.18255650  1
  H  220  1  0.38556100  0.78271500  0.18257950  1
  H  221  1  0.67215080  0.88241600  0.09404450  1
  H  222  1  0.66114380  0.88443100  0.12971050  1
  H  223  1  0.31671700  0.88546800  0.15627350  1
  H  224  1  0.36846400  0.93205900  0.18233950  1
  H  225  1  0.73762280  0.81197300  0.17076200  1
  H  226  1  0.78902180  0.85874700  0.19696600  1
  H  227  1  0.79219880  0.79916600  0.06092350  1
  H  228  1  0.93627980  0.84621000  0.03978550  1
  H  229  1  0.52924280  0.93145300  0.04072750  1
  H  230  1  0.38566000  0.88447300  0.06178950  1
  H  283  1  0.09931300  0.43690750  0.45526700  1
  H  284  1  0.25318900  0.39189750  0.43435250  1
  H  285  1  0.70079900  0.34877800  0.45406400  1
  H  286  1  0.85488500  0.30378700  0.43306500  1
  H  287  1  0.22690600  0.28404250  0.45423150  1
  H  288  1  0.40511480  0.21683200  0.45442050  1
  H  289  1  0.33029500  0.25210250  0.39990300  1
  H  290  1  0.35817400  0.25517800  0.36715750  1
  H  291  1  0.00414400  0.39247500  0.40077150  1
  H  292  1  0.03543700  0.39624200  0.36532150  1
  H  293  1  0.40356380  0.38025950  0.33170400  1
  H  294  1  0.33926500  0.42682600  0.30588250  1
  H  295  1  0.90874700  0.33524200  0.33207150  1
  H  296  1  0.84437900  0.38164750  0.30632250  1
  H  297  1  0.25199200  0.28647400  0.31278850  1
  H  298  1  0.38826700  0.21343700  0.31284950  1
  H  299  1  0.67145480  0.11396800  0.40151700  1
  H  300  1  0.65913080  0.11162450  0.36585650  1
  H  301  1  0.30928300  0.11187000  0.33894250  1
  H  302  1  0.35780200  0.06517000  0.31282850  1
  H  303  1  0.73992980  0.18254350  0.32508950  1
  H  304  1  0.78808880  0.13565500  0.29884200  1
  H  305  1  0.79421180  0.19744500  0.43460800  1
  H  306  1  0.93791780  0.15027850  0.45567800  1
  H  307  1  0.52970180  0.06506200  0.45469450  1
  H  308  1  0.38647900  0.11216300  0.43370550  1
  H  319  1  0.03325700  0.56238350  0.74809150  1
  H  320  1  0.03011900  0.51529550  0.77455250  1
  H  321  1  0.30588500  0.42394050  0.74411500  1
  H  323  1  0.38180600  0.43833200  0.71264400  1
  H  324  1  0.33185000  0.48341950  0.70170750  1
  H  326  1  0.27235400  0.41857750  0.77845550  1
  H  328  1  0.29135000  0.56220350  0.71234050  1
  H  335  1  0.63653960  0.06945100  0.75258050  1
  H  336  1  0.64001660  0.03996150  0.72191850  1
  H  337  1  0.39725360  0.92883200  0.74163050  1
  H  339  1  0.31944000  0.92409600  0.77354950  1
  H  340  1  0.35638800  0.96278750  0.78892050  1
  H  342  1  0.57936560  0.98209500  0.70053500  1
  H  344  1  0.58091960  0.01439650  0.79352900  1
  H  351  1  0.07876600  0.43380350  0.24723450  1
  H  352  1  0.08179000  0.48101800  0.22081650  1
  H  353  1  0.80659700  0.57228150  0.25137350  1
  H  355  1  0.73088900  0.55774550  0.28283850  1
  H  356  1  0.78078500  0.51259050  0.29372450  1
  H  358  1  0.83979800  0.57783550  0.21704950  1
  H  360  1  0.82098500  0.43374100  0.28296250  1
  H  367  1  0.47693780  0.92662800  0.24272150  1
  H  368  1  0.47322680  0.95613600  0.27338000  1
  H  369  1  0.71537480  0.06734600  0.25366150  1
  H  371  1  0.79326680  0.07208700  0.22174650  1
  H  372  1  0.75657980  0.03337100  0.20637850  1
  H  374  1  0.53298680  0.01407550  0.29474800  1
  H  376  1  0.53248280  0.98167950  0.20176000  1
  H  383  1  0.55604000  0.41938100  0.99504850  1
  H  384  1  0.76664600  0.45390550  0.01284300  1
  H  385  1  0.54162500  0.57377150  0.00318250  1
  H  387  1  0.30143300  0.57797100  0.98442400  1
  H  388  1  0.21412400  0.53562950  0.97446850  1
  H  390  1  0.89960900  0.51953050  0.02369150  1
  H  392  1  0.17789900  0.46181200  0.98128050  1
  H  399  1  0.55660100  0.57650700  0.50043400  1
  H  400  1  0.76686500  0.54220050  0.48259550  1
  H  401  1  0.54139100  0.42216250  0.49213850  1
  H  403  1  0.30149900  0.41770950  0.51091800  1
  H  404  1  0.21450500  0.45992450  0.52093500  1
  H  406  1  0.89928200  0.47677350  0.47160650  1
  H  408  1  0.17819600  0.53362350  0.51423200  1
  H  415  1  0.04564500  0.91902100  0.49940900  1
  H  416  1  0.84034580  0.95632600  0.48196250  1
  H  417  1  0.08276700  0.07360200  0.49282650  1
  H  419  1  0.32356200  0.07465700  0.51158900  1
  H  420  1  0.40464560  0.03102800  0.52109450  1
  H  422  1  0.71650280  0.02383000  0.47202600  1
  H  424  1  0.42896660  0.95714350  0.51374550  1
  H  431  1  0.04865100  0.07688750  0.99591100  1
  H  432  1  0.84204680  0.03981200  0.01332400  1
  H  433  1  0.08049600  0.92223500  0.00240200  1
  H  435  1  0.32141400  0.92091650  0.98367200  1
  H  436  1  0.40405160  0.96447500  0.97421000  1
  H  438  1  0.71526080  0.97226400  0.02302850  1
  H  440  1  0.43042160  0.03841550  0.98153800  1
  N  4  1  0.78908960  0.25099200  0.91327800  1
  N  8  1  0.91430960  0.31265500  0.88344700  1
  N  14  1  0.76780760  0.25338950  0.85371000  1
  N  20  1  0.64536560  0.19135200  0.88340600  1
  N  75  1  0.50255360  0.07314150  0.78777350  1
  N  76  1  0.05300000  0.43417350  0.78876750  1
  N  77  1  0.32497100  0.42304700  0.96700200  1
  N  78  1  0.27557700  0.07575850  0.96750900  1
  N  82  1  0.78701360  0.74441300  0.58194850  1
  N  86  1  0.91368860  0.68329400  0.61189200  1
  N  92  1  0.76736060  0.74273300  0.64156650  1
  N  98  1  0.64393760  0.80427600  0.61173900  1
  N  153  1  0.51008960  0.92352650  0.70728950  1
  N  154  1  0.05043200  0.56089800  0.70624650  1
  N  155  1  0.32481500  0.57282400  0.52839750  1
  N  156  1  0.27382800  0.91969250  0.52772450  1
  N  160  1  0.32458900  0.74486800  0.08207400  1
  N  164  1  0.19871200  0.68336250  0.11191150  1
  N  170  1  0.34624300  0.74261500  0.14165450  1
  N  176  1  0.46883180  0.80455300  0.11190850  1
  N  231  1  0.61114580  0.92297050  0.20752150  1
  N  232  1  0.05872900  0.56215900  0.20664500  1
  N  233  1  0.78620000  0.57467300  0.02770000  1
  N  234  1  0.83991080  0.91879200  0.02729850  1
  N  238  1  0.32602900  0.25163800  0.41337050  1
  N  242  1  0.19889800  0.31271400  0.38345550  1
  N  248  1  0.34562200  0.25331400  0.35376650  1
  N  254  1  0.46988480  0.19187400  0.38359150  1
  N  309  1  0.60330080  0.07258150  0.28803600  1
  N  310  1  0.06174400  0.43517000  0.28912650  1
  N  311  1  0.78662000  0.42141750  0.46766300  1
  N  312  1  0.84080480  0.07758200  0.46810600  1
  N  322  1  0.32942300  0.46646400  0.71315650  1
  N  338  1  0.36881700  0.95200500  0.77620600  1
  N  354  1  0.78319400  0.52960850  0.28229350  1
  N  370  1  0.74403980  0.04415800  0.21909050  1
  N  386  1  0.29957900  0.54694700  0.98271700  1
  N  402  1  0.29974700  0.44872350  0.51265450  1
  N  418  1  0.32075700  0.04355600  0.51299450  1
  N  434  1  0.31962600  0.95202400  0.98228000  1
