# generated using pymatgen
data_HC2
_symmetry_space_group_name_H-M   'P 1'
_cell_length_a   19.27651305
_cell_length_b   19.27651305
_cell_length_c   19.27651305
_cell_angle_alpha   109.47122063
_cell_angle_beta   109.47122063
_cell_angle_gamma   109.47122063
_symmetry_Int_Tables_number   1
_chemical_formula_structural   HC2
_chemical_formula_sum   'H72 C144'
_cell_volume   5513.95908748
_cell_formula_units_Z   72
loop_
 _symmetry_equiv_pos_site_id
 _symmetry_equiv_pos_as_xyz
  1  'x, y, z'
loop_
 _atom_site_type_symbol
 _atom_site_label
 _atom_site_symmetry_multiplicity
 _atom_site_fract_x
 _atom_site_fract_y
 _atom_site_fract_z
 _atom_site_occupancy
  C  1  1  0.13553050  0.59349350  0.73539200  1
  C  2  1  0.17097300  0.60733350  0.68429150  1
  C  3  1  0.25822700  0.63784750  0.71026950  1
  C  4  1  0.31160200  0.65343500  0.79171600  1
  C  5  1  0.27776700  0.62922050  0.84067850  1
  C  6  1  0.19039150  0.60296500  0.81272350  1
  C  10  1  0.46798900  0.65164100  0.00974000  1
  C  11  1  0.43257650  0.56510300  0.98810150  1
  C  12  1  0.34530950  0.50384800  0.93139750  1
  C  13  1  0.29178650  0.53194300  0.89387050  1
  C  14  1  0.32570750  0.61470400  0.90334450  1
  C  15  1  0.41310750  0.67409250  0.96437200  1
  C  19  1  0.69367700  0.90642350  0.49023350  1
  C  20  1  0.62881450  0.89272050  0.51192900  1
  C  21  1  0.62424100  0.86211750  0.56860150  1
  C  22  1  0.68988650  0.84615600  0.60614750  1
  C  23  1  0.76316700  0.87058950  0.59666150  1
  C  24  1  0.76151100  0.89693850  0.53561850  1
  C  28  1  0.90987900  0.84829800  0.76457800  1
  C  29  1  0.97473950  0.93487000  0.81571350  1
  C  30  1  0.97933050  0.99608550  0.78963200  1
  C  31  1  0.91352350  0.96795250  0.70809400  1
  C  32  1  0.84031050  0.88517600  0.65925050  1
  C  33  1  0.84199950  0.82581100  0.68726850  1
  C  37  1  0.40015800  0.26458100  0.85811300  1
  C  38  1  0.48673050  0.31576050  0.92296300  1
  C  39  1  0.54794600  0.28967150  0.92758650  1
  C  40  1  0.51983500  0.20811450  0.86184750  1
  C  41  1  0.43709850  0.15928800  0.78860750  1
  C  42  1  0.37768750  0.18725900  0.79025350  1
  C  46  1  0.45827550  0.99025350  0.64189800  1
  C  47  1  0.44446850  0.01188050  0.57697300  1
  C  48  1  0.41386250  0.06854800  0.57239250  1
  C  49  1  0.39830450  0.10634700  0.63827050  1
  C  50  1  0.42245300  0.09669200  0.71143700  1
  C  51  1  0.44882450  0.03565950  0.70976400  1
  C  55  1  0.20341350  0.50974600  0.41620250  1
  C  56  1  0.11685750  0.48809950  0.38078800  1
  C  57  1  0.05560550  0.43139700  0.29352850  1
  C  58  1  0.08369050  0.39365900  0.24014250  1
  C  59  1  0.16652550  0.40334750  0.27393800  1
  C  60  1  0.22589400  0.46438700  0.36133500  1
  C  64  1  0.14524250  0.23539250  0.08371800  1
  C  65  1  0.15906300  0.18427650  0.11913550  1
  C  66  1  0.18975250  0.21031850  0.20642200  1
  C  67  1  0.20531350  0.29176050  0.25978200  1
  C  68  1  0.18112050  0.34076700  0.22599850  1
  C  69  1  0.15470450  0.31270900  0.13858050  1
  C  73  1  0.54209550  0.14190850  0.40650500  1
  C  74  1  0.56372100  0.07698850  0.39270450  1
  C  75  1  0.62045100  0.07245050  0.36218150  1
  C  76  1  0.65822750  0.13830050  0.34657800  1
  C  77  1  0.64859700  0.21147200  0.37078600  1
  C  78  1  0.58747000  0.20976850  0.39703150  1
  C  82  1  0.81634950  0.35813850  0.34834200  1
  C  83  1  0.86744950  0.42306450  0.43487300  1
  C  84  1  0.84143200  0.42765000  0.49612400  1
  C  85  1  0.75986250  0.36195550  0.46804300  1
  C  86  1  0.71103950  0.28865850  0.38529600  1
  C  87  1  0.73904450  0.29029300  0.32590450  1
  C  91  1  0.78719400  0.58378200  0.09348300  1
  C  92  1  0.73601400  0.61916750  0.10714950  1
  C  93  1  0.76210650  0.70646950  0.13789000  1
  C  94  1  0.84370850  0.75996900  0.15382750  1
  C  95  1  0.89254400  0.72604700  0.12937100  1
  C  96  1  0.86453100  0.63865600  0.10300700  1
  C  100  1  0.06153550  0.91626350  0.15165700  1
  C  101  1  0.03982550  0.88083200  0.06509250  1
  C  102  1  0.98321450  0.79353550  0.00388600  1
  C  103  1  0.94554550  0.74012950  0.03201900  1
  C  104  1  0.95510000  0.77405900  0.11479000  1
  C  105  1  0.01614800  0.86144850  0.17415350  1
  C  109  1  0.96798450  0.40644950  0.26456200  1
  C  110  1  0.93257750  0.39275100  0.31572150  1
  C  111  1  0.84528250  0.36207100  0.28964350  1
  C  112  1  0.79184800  0.34627650  0.20809350  1
  C  113  1  0.82576750  0.37069500  0.15927750  1
  C  114  1  0.91315000  0.39701300  0.18725100  1
  C  118  1  0.63556900  0.34837250  0.99025150  1
  C  119  1  0.67099900  0.43491150  0.01184550  1
  C  120  1  0.75826750  0.49616200  0.06850950  1
  C  121  1  0.81162750  0.46809400  0.10632850  1
  C  122  1  0.77782800  0.38527600  0.09668200  1
  C  123  1  0.69042850  0.32591300  0.03565250  1
  C  127  1  0.40991500  0.09352900  0.50975300  1
  C  128  1  0.47482800  0.10729350  0.48811450  1
  C  129  1  0.47942350  0.13789450  0.43145200  1
  C  130  1  0.41359000  0.15352550  0.39369050  1
  C  131  1  0.34042800  0.12940600  0.40335600  1
  C  132  1  0.34207900  0.10303200  0.46438100  1
  C  136  1  0.19374350  0.15165800  0.23538350  1
  C  137  1  0.12881650  0.06512050  0.18426100  1
  C  138  1  0.12423250  0.00387900  0.21029150  1
  C  139  1  0.19006300  0.03196400  0.29176000  1
  C  140  1  0.26325800  0.11476100  0.34076500  1
  C  141  1  0.26160700  0.17411250  0.31269550  1
  C  145  1  0.70343000  0.73541900  0.14187800  1
  C  146  1  0.61689050  0.68433350  0.07693000  1
  C  147  1  0.55561950  0.71033050  0.07235000  1
  C  148  1  0.58368800  0.79173050  0.13828850  1
  C  149  1  0.66648550  0.84068900  0.21146450  1
  C  150  1  0.72590600  0.81274150  0.20975050  1
  C  154  1  0.64540050  0.00977950  0.35816500  1
  C  155  1  0.65917600  0.98813050  0.42305650  1
  C  156  1  0.68974000  0.93143350  0.42760950  1
  C  157  1  0.70565300  0.89385300  0.36193100  1
  C  158  1  0.68121650  0.90334300  0.28865750  1
  C  159  1  0.65488450  0.96440450  0.29032600  1
  C  163  1  0.90012850  0.49027650  0.58375400  1
  C  164  1  0.98667900  0.51194600  0.61915400  1
  C  165  1  0.04790450  0.56853150  0.70645000  1
  C  166  1  0.01981150  0.60610850  0.75995100  1
  C  167  1  0.93705750  0.59665100  0.72603850  1
  C  168  1  0.87767600  0.53563450  0.63864050  1
  C  172  1  0.95827350  0.76457100  0.91626250  1
  C  173  1  0.94455300  0.81570900  0.88083200  1
  C  174  1  0.91389150  0.78963700  0.79354250  1
  C  175  1  0.89815950  0.70810000  0.74013250  1
  C  176  1  0.92252100  0.65925000  0.77405700  1
  C  177  1  0.94884800  0.68726200  0.86144000  1
  C  181  1  0.56157950  0.85813250  0.59356800  1
  C  182  1  0.53985800  0.92298650  0.60724750  1
  C  183  1  0.48321800  0.92757150  0.63789950  1
  C  184  1  0.44560750  0.86185150  0.65374800  1
  C  185  1  0.45510350  0.78861350  0.62933200  1
  C  186  1  0.51616650  0.79026250  0.60300900  1
  C  190  1  0.28719700  0.64187400  0.65161800  1
  C  191  1  0.23606500  0.57697650  0.56506350  1
  C  192  1  0.26208800  0.57243300  0.50381900  1
  C  193  1  0.34354950  0.63827750  0.53190900  1
  C  194  1  0.39256750  0.71143350  0.61474000  1
  C  195  1  0.36451950  0.70974650  0.67409700  1
  C  199  1  0.31636850  0.41622650  0.90646600  1
  C  200  1  0.36749850  0.38080350  0.89268000  1
  C  201  1  0.34150000  0.29354650  0.86212950  1
  C  202  1  0.26002850  0.24015550  0.84647900  1
  C  203  1  0.21098300  0.27394500  0.87058100  1
  C  204  1  0.23901650  0.36134750  0.89694700  1
  C  208  1  0.04199350  0.08371550  0.84829900  1
  C  209  1  0.06360950  0.11914300  0.93483950  1
  C  210  1  0.12024150  0.20642250  0.99608700  1
  C  211  1  0.15804550  0.25977300  0.96799950  1
  C  212  1  0.14841800  0.22600000  0.88518800  1
  C  213  1  0.08741050  0.13857450  0.82584900  1
  H  7  1  0.37287750  0.66761650  0.80786500  1
  H  8  1  0.16501250  0.58581550  0.84728400  1
  H  9  1  0.13328950  0.60209200  0.62860550  1
  H  16  1  0.23065600  0.48674850  0.84654250  1
  H  17  1  0.43849050  0.73399650  0.97251500  1
  H  18  1  0.47029550  0.54708500  0.02047250  1
  H  25  1  0.69201650  0.83234000  0.65346850  1
  H  26  1  0.81325400  0.91414500  0.52744700  1
  H  27  1  0.57838150  0.89797800  0.47949750  1
  H  34  1  0.91160900  0.01324300  0.69221800  1
  H  35  1  0.79031350  0.76585600  0.65271250  1
  H  36  1  0.02523650  0.95286100  0.87134850  1
  H  43  1  0.56513050  0.19223950  0.85995200  1
  H  44  1  0.31773400  0.15268500  0.73856200  1
  H  45  1  0.50471200  0.37140350  0.97344050  1
  H  52  1  0.38412200  0.15343600  0.64022800  1
  H  53  1  0.46594200  0.02739250  0.76145150  1
  H  54  1  0.44967500  0.97938200  0.52652700  1
  H  61  1  0.03856100  0.34657650  0.17886750  1
  H  62  1  0.28585750  0.47267800  0.38671150  1
  H  63  1  0.09890400  0.52058150  0.41849950  1
  H  70  1  0.21954900  0.30792450  0.32106950  1
  H  71  1  0.13766050  0.34733150  0.11323100  1
  H  72  1  0.15386950  0.12861900  0.08145850  1
  H  79  1  0.70531900  0.14027100  0.33239600  1
  H  80  1  0.57922050  0.26146650  0.41416500  1
  H  81  1  0.53128500  0.02655100  0.39795800  1
  H  88  1  0.74393850  0.35981600  0.51324450  1
  H  89  1  0.70453850  0.23852150  0.26600900  1
  H  90  1  0.92316800  0.47347200  0.45288000  1
  H  97  1  0.85967000  0.82111800  0.16768100  1
  H  98  1  0.89907600  0.61327950  0.08581550  1
  H  99  1  0.68035050  0.58149000  0.10194250  1
  H  106  1  0.89834800  0.67895700  0.98673100  1
  H  107  1  0.02442300  0.88684850  0.23411050  1
  H  108  1  0.07234300  0.91846650  0.04710350  1
  H  115  1  0.73068200  0.33231100  0.19222300  1
  H  116  1  0.93853750  0.41414350  0.15268700  1
  H  117  1  0.97024100  0.39793950  0.37138250  1
  H  124  1  0.87290000  0.51322950  0.15341850  1
  H  125  1  0.66504400  0.26595850  0.02739250  1
  H  126  1  0.63329100  0.45285000  0.97933400  1
  H  133  1  0.41164800  0.16772700  0.34661600  1
  H  134  1  0.29039650  0.08593900  0.47265550  1
  H  135  1  0.52525100  0.10204700  0.52059200  1
  H  142  1  0.19198800  0.98684200  0.30793000  1
  H  143  1  0.31326900  0.23409000  0.34732500  1
  H  144  1  0.07833800  0.04713200  0.12861200  1
  H  151  1  0.53856150  0.80787000  0.14027450  1
  H  152  1  0.78584350  0.84729300  0.26146050  1
  H  153  1  0.59889400  0.62865550  0.02648050  1
  H  160  1  0.71942300  0.84650000  0.35977600  1
  H  161  1  0.63765150  0.97256400  0.23857550  1
  H  162  1  0.65385950  0.02051900  0.47346350  1
  H  169  1  0.06500100  0.65340600  0.82109600  1
  H  170  1  0.81776500  0.52747350  0.61326850  1
  H  171  1  0.00466850  0.47949300  0.58146950  1
  H  178  1  0.88419550  0.69222800  0.67896550  1
  H  179  1  0.96597000  0.65270150  0.88683250  1
  H  180  1  0.94967350  0.87133600  0.91847150  1
  H  187  1  0.39841450  0.85995750  0.66772500  1
  H  188  1  0.52441100  0.73856150  0.58587950  1
  H  189  1  0.57236150  0.97347100  0.60209450  1
  H  196  1  0.35969800  0.64023500  0.48678400  1
  H  197  1  0.39909150  0.76142000  0.73405750  1
  H  198  1  0.18040250  0.52653200  0.54710750  1
  H  205  1  0.24387650  0.17887750  0.83227900  1
  H  206  1  0.20442400  0.38671750  0.91403050  1
  H  207  1  0.42315900  0.41851250  0.89789950  1
  H  214  1  0.20511150  0.32105400  0.01312450  1
  H  215  1  0.07909600  0.11322100  0.76587300  1
  H  216  1  0.03112700  0.08148150  0.95283250  1
