# generated using pymatgen
data_Zn2H25C39(NO3)3
_symmetry_space_group_name_H-M   'P 1'
_cell_length_a   15.33806000
_cell_length_b   15.35467000
_cell_length_c   16.05125000
_cell_angle_alpha   98.79491000
_cell_angle_beta   102.19520000
_cell_angle_gamma   103.17828000
_symmetry_Int_Tables_number   1
_chemical_formula_structural   Zn2H25C39(NO3)3
_chemical_formula_sum   'Zn4 H50 C78 N6 O18'
_cell_volume   3516.43106905
_cell_formula_units_Z   2
loop_
 _symmetry_equiv_pos_site_id
 _symmetry_equiv_pos_as_xyz
  1  'x, y, z'
loop_
 _atom_site_type_symbol
 _atom_site_label
 _atom_site_symmetry_multiplicity
 _atom_site_fract_x
 _atom_site_fract_y
 _atom_site_fract_z
 _atom_site_occupancy
  Zn  Zn0  1  0.38506000  0.82876000  0.39496000  1
  Zn  Zn1  1  0.33538000  0.78610000  0.20956000  1
  Zn  Zn2  1  0.61494000  0.17124000  0.60503000  1
  Zn  Zn3  1  0.66461000  0.21389000  0.79044000  1
  H  H4  1  0.39047000  0.11845000  0.44921000  1
  H  H5  1  0.38094000  0.27616000  0.44568000  1
  H  H6  1  0.37072000  0.22611000  0.17141000  1
  H  H7  1  0.37188000  0.06493000  0.17512000  1
  H  H8  1  0.04435000  0.80024000  0.15175000  1
  H  H9  1  0.89057000  0.82024000  0.16021000  1
  H  H10  1  0.95999000  0.81724000  0.43441000  1
  H  H11  1  0.11548000  0.80347000  0.42489000  1
  H  H12  1  0.28354000  0.48539000  0.16578000  1
  H  H13  1  0.29129000  0.32608000  0.16977000  1
  H  H14  1  0.44213000  0.41496000  0.44033000  1
  H  H15  1  0.42903000  0.57231000  0.43562000  1
  H  H16  1  0.59911000  0.78884000  0.17435000  1
  H  H17  1  0.75645000  0.78286000  0.16442000  1
  H  H18  1  0.85482000  0.87432000  0.44382000  1
  H  H19  1  0.69653000  0.87560000  0.45223000  1
  H  H20  1  0.38704000  0.70663000  0.52149000  1
  H  H21  1  0.39121000  0.71517000  0.67953000  1
  H  H22  1  0.40203000  0.00172000  0.70151000  1
  H  H23  1  0.39902000  0.98166000  0.54228000  1
  H  H24  1  0.44827000  0.89801000  0.12455000  1
  H  H25  1  0.46542000  0.91510000  0.97706000  1
  H  H26  1  0.23445000  0.67358000  0.87117000  1
  H  H27  1  0.22716000  0.66642000  0.02375000  1
  H  H28  1  0.31172000  0.74746000  0.77821000  1
  H  H29  1  0.60952000  0.88154000  0.55078000  1
  H  H30  1  0.61905000  0.72383000  0.55432000  1
  H  H31  1  0.62927000  0.77388000  0.82859000  1
  H  H32  1  0.62811000  0.93507000  0.82488000  1
  H  H33  1  0.95564000  0.19975000  0.84824000  1
  H  H34  1  0.10942000  0.17975000  0.83978000  1
  H  H35  1  0.04000000  0.18275000  0.56559000  1
  H  H36  1  0.88451000  0.19652000  0.57511000  1
  H  H37  1  0.71645000  0.51460000  0.83422000  1
  H  H38  1  0.70870000  0.67391000  0.83022000  1
  H  H39  1  0.55786000  0.58503000  0.55966000  1
  H  H40  1  0.57096000  0.42768000  0.56437000  1
  H  H41  1  0.40088000  0.21116000  0.82564000  1
  H  H42  1  0.24354000  0.21713000  0.83557000  1
  H  H43  1  0.14517000  0.12568000  0.55618000  1
  H  H44  1  0.30346000  0.12439000  0.54777000  1
  H  H45  1  0.61296000  0.29336000  0.47850000  1
  H  H46  1  0.60878000  0.28482000  0.32046000  1
  H  H47  1  0.59796000  0.99827000  0.29848000  1
  H  H48  1  0.60097000  0.01833000  0.45771000  1
  H  H49  1  0.55172000  0.10199000  0.87545000  1
  H  H50  1  0.53458000  0.08489000  0.02294000  1
  H  H51  1  0.76555000  0.32641000  0.12883000  1
  H  H52  1  0.77284000  0.33357000  0.97624000  1
  H  H53  1  0.68827000  0.25253000  0.22179000  1
  C  C54  1  0.37787000  0.98338000  0.31287000  1
  C  C55  1  0.37873000  0.08088000  0.31165000  1
  C  C56  1  0.38367000  0.14179000  0.38809000  1
  C  C57  1  0.38027000  0.23134000  0.38597000  1
  C  C58  1  0.37386000  0.26351000  0.30783000  1
  C  C59  1  0.37238000  0.20237000  0.23203000  1
  C  C60  1  0.37372000  0.11230000  0.23363000  1
  C  C61  1  0.18355000  0.79095000  0.28338000  1
  C  C62  1  0.08918000  0.79948000  0.28757000  1
  C  C63  1  0.02476000  0.80406000  0.21321000  1
  C  C64  1  0.93821000  0.81476000  0.21859000  1
  C  C65  1  0.91207000  0.81955000  0.29800000  1
  C  C66  1  0.97774000  0.81498000  0.37218000  1
  C  C67  1  0.06483000  0.80596000  0.36727000  1
  C  C68  1  0.35065000  0.63501000  0.29827000  1
  C  C69  1  0.35542000  0.53884000  0.30044000  1
  C  C70  1  0.31775000  0.46879000  0.22549000  1
  C  C71  1  0.32341000  0.37989000  0.22803000  1
  C  C72  1  0.36805000  0.35802000  0.30519000  1
  C  C73  1  0.40609000  0.42915000  0.38001000  1
  C  C74  1  0.39937000  0.51768000  0.37776000  1
  C  C75  1  0.53992000  0.82956000  0.31752000  1
  C  C76  1  0.63715000  0.83155000  0.31372000  1
  C  C77  1  0.65596000  0.80716000  0.23279000  1
  C  C78  1  0.74477000  0.80458000  0.22787000  1
  C  C79  1  0.81870000  0.82698000  0.30341000  1
  C  C80  1  0.79944000  0.85409000  0.38410000  1
  C  C81  1  0.71032000  0.85584000  0.38931000  1
  C  C82  1  0.38883000  0.76981000  0.56403000  1
  C  C83  1  0.38953000  0.77520000  0.65153000  1
  C  C84  1  0.39356000  0.85962000  0.70203000  1
  C  C85  1  0.39702000  0.93527000  0.66293000  1
  C  C86  1  0.39524000  0.92430000  0.57493000  1
  C  C87  1  0.40105000  0.87509000  0.79789000  1
  C  C88  1  0.40245000  0.84953000  0.06678000  1
  C  C89  1  0.41211000  0.85917000  0.98440000  1
  C  C90  1  0.35089000  0.79585000  0.91138000  1
  C  C91  1  0.28342000  0.72458000  0.92556000  1
  C  C92  1  0.27885000  0.72027000  0.01041000  1
  C  C93  1  0.62212000  0.01662000  0.68713000  1
  C  C94  1  0.62126000  0.91911000  0.68835000  1
  C  C95  1  0.61632000  0.85820000  0.61191000  1
  C  C96  1  0.61972000  0.76865000  0.61403000  1
  C  C97  1  0.62613000  0.73648000  0.69216000  1
  C  C98  1  0.62761000  0.79762000  0.76796000  1
  C  C99  1  0.62627000  0.88769000  0.76637000  1
  C  C100  1  0.81644000  0.20904000  0.71661000  1
  C  C101  1  0.91081000  0.20052000  0.71243000  1
  C  C102  1  0.97523000  0.19594000  0.78679000  1
  C  C103  1  0.06178000  0.18524000  0.78140000  1
  C  C104  1  0.08793000  0.18044000  0.70200000  1
  C  C105  1  0.02226000  0.18501000  0.62781000  1
  C  C106  1  0.93516000  0.19403000  0.63272000  1
  C  C107  1  0.64934000  0.36498000  0.70172000  1
  C  C108  1  0.64457000  0.46116000  0.69955000  1
  C  C109  1  0.68224000  0.53121000  0.77450000  1
  C  C110  1  0.67658000  0.62010000  0.77197000  1
  C  C111  1  0.63194000  0.64198000  0.69480000  1
  C  C112  1  0.59390000  0.57084000  0.61999000  1
  C  C113  1  0.60062000  0.48231000  0.62223000  1
  C  C114  1  0.46008000  0.17043000  0.68248000  1
  C  C115  1  0.36285000  0.16844000  0.68628000  1
  C  C116  1  0.34403000  0.19283000  0.76721000  1
  C  C117  1  0.25522000  0.19541000  0.77213000  1
  C  C118  1  0.18129000  0.17302000  0.69659000  1
  C  C119  1  0.20055000  0.14590000  0.61589000  1
  C  C120  1  0.28967000  0.14415000  0.61069000  1
  C  C121  1  0.61116000  0.23018000  0.43596000  1
  C  C122  1  0.61047000  0.22480000  0.34847000  1
  C  C123  1  0.60643000  0.14038000  0.29797000  1
  C  C124  1  0.60297000  0.06472000  0.33706000  1
  C  C125  1  0.60475000  0.07569000  0.42506000  1
  C  C126  1  0.59894000  0.12489000  0.20211000  1
  C  C127  1  0.59755000  0.15047000  0.93321000  1
  C  C128  1  0.58788000  0.14083000  0.01559000  1
  C  C129  1  0.64910000  0.20415000  0.08861000  1
  C  C130  1  0.71657000  0.27542000  0.07443000  1
  C  C131  1  0.72114000  0.27972000  0.98958000  1
  N  N132  1  0.39143000  0.84284000  0.52652000  1
  N  N133  1  0.35494000  0.80042000  0.82581000  1
  N  N134  1  0.33695000  0.78190000  0.08047000  1
  N  N135  1  0.60856000  0.15716000  0.47348000  1
  N  N136  1  0.64505000  0.19957000  0.17419000  1
  N  N137  1  0.66304000  0.21809000  0.91953000  1
  O  O138  1  0.36436000  0.92975000  0.23987000  1
  O  O139  1  0.39049000  0.96126000  0.38727000  1
  O  O140  1  0.24064000  0.79696000  0.35568000  1
  O  O141  1  0.20021000  0.77946000  0.20826000  1
  O  O142  1  0.32009000  0.65306000  0.22448000  1
  O  O143  1  0.37892000  0.69192000  0.37151000  1
  O  O144  1  0.52473000  0.85273000  0.39193000  1
  O  O145  1  0.47904000  0.80469000  0.24475000  1
  O  O146  1  0.44486000  0.94893000  0.84692000  1
  O  O147  1  0.63563000  0.07024000  0.76012000  1
  O  O148  1  0.60951000  0.03873000  0.61273000  1
  O  O149  1  0.75935000  0.20303000  0.64432000  1
  O  O150  1  0.79978000  0.22053000  0.79174000  1
  O  O151  1  0.67990000  0.34693000  0.77551000  1
  O  O152  1  0.62108000  0.30807000  0.62848000  1
  O  O153  1  0.47526000  0.14726000  0.60807000  1
  O  O154  1  0.52095000  0.19530000  0.75525000  1
  O  O155  1  0.55513000  0.05107000  0.15308000  1
