# generated using pymatgen
data_CuH6C6(N2O)4
_symmetry_space_group_name_H-M   'P 1'
_cell_length_a   4.31346000
_cell_length_b   17.30519917
_cell_length_c   17.32311405
_cell_angle_alpha   89.15139299
_cell_angle_beta   83.13141468
_cell_angle_gamma   83.25346234
_symmetry_Int_Tables_number   1
_chemical_formula_structural   CuH6C6(N2O)4
_chemical_formula_sum   'Cu4 H24 C24 N32 O16'
_cell_volume   1274.91832105
_cell_formula_units_Z   4
loop_
 _symmetry_equiv_pos_site_id
 _symmetry_equiv_pos_as_xyz
  1  'x, y, z'
loop_
 _atom_site_type_symbol
 _atom_site_label
 _atom_site_symmetry_multiplicity
 _atom_site_fract_x
 _atom_site_fract_y
 _atom_site_fract_z
 _atom_site_occupancy
  Cu  Cu0  1  0.50001000  0.49999000  0.50000000  1
  Cu  Cu1  1  0.50001000  0.00000000  0.00000000  1
  Cu  Cu2  1  0.00001000  0.50000000  0.00000000  1
  Cu  Cu3  1  0.49997000  0.99999000  0.50001000  1
  H  H4  1  0.83469000  0.39428000  0.72696000  1
  H  H5  1  0.97508000  0.48626000  0.70733000  1
  H  H6  1  0.19543000  0.42281000  0.82840000  1
  H  H7  1  0.96124000  0.10523000  0.77432000  1
  H  H8  1  0.16641000  0.01319000  0.79478000  1
  H  H9  1  0.44914000  0.07539000  0.67155000  1
  H  H10  1  0.23764000  0.72730000  0.10544000  1
  H  H11  1  0.46525000  0.70781000  0.01345000  1
  H  H12  1  0.62583000  0.82777000  0.07757000  1
  H  H13  1  0.06320000  0.77521000  0.39468000  1
  H  H14  1  0.18197000  0.79510000  0.48667000  1
  H  H15  1  0.52368000  0.67141000  0.42427000  1
  H  H16  1  0.16532000  0.60571000  0.27303000  1
  H  H17  1  0.02492000  0.51374000  0.29267000  1
  H  H18  1  0.80458000  0.57718000  0.17161000  1
  H  H19  1  0.03874000  0.89477000  0.22568000  1
  H  H20  1  0.83360000  0.98680000  0.20522000  1
  H  H21  1  0.55088000  0.92460000  0.32845000  1
  H  H22  1  0.76237000  0.27269000  0.89456000  1
  H  H23  1  0.53475000  0.29219000  0.98655000  1
  H  H24  1  0.37417000  0.17223000  0.92243000  1
  H  H25  1  0.93679000  0.22478000  0.60532000  1
  H  H26  1  0.81802000  0.20489000  0.51333000  1
  H  H27  1  0.47631000  0.32858000  0.57573000  1
  C  C28  1  0.56048000  0.47415000  0.65633000  1
  C  C29  1  0.75446000  0.45662000  0.72226000  1
  C  C30  1  0.34248000  0.46624000  0.84052000  1
  C  C31  1  0.69057000  0.02575000  0.84423000  1
  C  C32  1  0.93356000  0.04298000  0.77895000  1
  C  C33  1  0.65153000  0.03276000  0.65966000  1
  C  C34  1  0.04000000  0.65606000  0.02586000  1
  C  C35  1  0.21668000  0.72240000  0.04315000  1
  C  C36  1  0.81218000  0.84021000  0.03369000  1
  C  C37  1  0.71741000  0.84426000  0.47472000  1
  C  C38  1  0.97707000  0.77934000  0.45693000  1
  C  C39  1  0.68630000  0.65954000  0.46670000  1
  C  C40  1  0.43952000  0.52584000  0.34368000  1
  C  C41  1  0.24553000  0.54338000  0.27775000  1
  C  C42  1  0.65753000  0.53375000  0.15948000  1
  C  C43  1  0.30945000  0.97424000  0.15577000  1
  C  C44  1  0.06644000  0.95701000  0.22105000  1
  C  C45  1  0.34847000  0.96723000  0.34034000  1
  C  C46  1  0.96001000  0.34393000  0.97414000  1
  C  C47  1  0.78332000  0.27760000  0.95685000  1
  C  C48  1  0.18783000  0.15979000  0.96631000  1
  C  C49  1  0.28258000  0.15573000  0.52529000  1
  C  C50  1  0.02292000  0.22064000  0.54308000  1
  C  C51  1  0.31369000  0.34044000  0.53331000  1
  N  N52  1  0.59666000  0.48602000  0.79643000  1
  N  N53  1  0.71424000  0.54395000  0.83304000  1
  N  N54  1  0.53327000  0.55650000  0.89913000  1
  N  N55  1  0.30299000  0.50947000  0.90493000  1
  N  N56  1  0.88002000  0.01339000  0.70441000  1
  N  N57  1  0.09308000  0.95671000  0.66769000  1
  N  N58  1  0.99280000  0.94452000  0.60083000  1
  N  N59  1  0.72145000  0.99052000  0.59473000  1
  N  N60  1  0.08505000  0.79640000  0.01361000  1
  N  N61  1  0.25512000  0.83306000  0.95512000  1
  N  N62  1  0.08448000  0.89886000  0.94249000  1
  N  N63  1  0.81105000  0.90452000  0.99008000  1
  N  N64  1  0.89649000  0.70444000  0.48603000  1
  N  N65  1  0.05741000  0.66752000  0.54222000  1
  N  N66  1  0.94663000  0.60035000  0.55422000  1
  N  N67  1  0.71782000  0.59431000  0.50859000  1
  N  N68  1  0.40334000  0.51398000  0.20357000  1
  N  N69  1  0.28577000  0.45605000  0.16696000  1
  N  N70  1  0.46674000  0.44349000  0.10087000  1
  N  N71  1  0.69702000  0.49052000  0.09507000  1
  N  N72  1  0.11999000  0.98660000  0.29559000  1
  N  N73  1  0.90691000  0.04327000  0.33232000  1
  N  N74  1  0.00718000  0.05546000  0.39918000  1
  N  N75  1  0.27854000  0.00946000  0.40527000  1
  N  N76  1  0.91495000  0.20360000  0.98640000  1
  N  N77  1  0.74489000  0.16694000  0.04488000  1
  N  N78  1  0.91552000  0.10114000  0.05752000  1
  N  N79  1  0.18896000  0.09548000  0.00992000  1
  N  N80  1  0.10350000  0.29555000  0.51397000  1
  N  N81  1  0.94260000  0.33246000  0.45778000  1
  N  N82  1  0.05338000  0.39963000  0.44578000  1
  N  N83  1  0.28218000  0.40568000  0.49141000  1
  O  O84  1  0.69290000  0.44598000  0.59005000  1
  O  O85  1  0.30529000  0.51627000  0.66832000  1
  O  O86  1  0.73071000  0.05411000  0.91060000  1
  O  O87  1  0.48689000  0.98348000  0.83201000  1
  O  O88  1  0.14685000  0.58981000  0.05387000  1
  O  O89  1  0.82353000  0.66797000  0.98407000  1
  O  O90  1  0.78277000  0.91072000  0.44596000  1
  O  O91  1  0.47558000  0.83177000  0.51771000  1
  O  O92  1  0.30710000  0.55401000  0.40995000  1
  O  O93  1  0.69473000  0.48372000  0.33167000  1
  O  O94  1  0.26931000  0.94588000  0.08940000  1
  O  O95  1  0.51310000  0.01652000  0.16800000  1
  O  O96  1  0.85315000  0.41019000  0.94613000  1
  O  O97  1  0.17648000  0.33203000  0.01592000  1
  O  O98  1  0.21722000  0.08927000  0.55404000  1
  O  O99  1  0.52442000  0.16822000  0.48230000  1
