# generated using pymatgen
data_SrH2C6SO4
_symmetry_space_group_name_H-M   'P 1'
_cell_length_a   5.86361000
_cell_length_b   11.72049000
_cell_length_c   16.93446000
_cell_angle_alpha   90.01753000
_cell_angle_beta   90.02166000
_cell_angle_gamma   88.98362000
_symmetry_Int_Tables_number   1
_chemical_formula_structural   SrH2C6SO4
_chemical_formula_sum   'Sr4 H8 C24 S4 O16'
_cell_volume   1163.62706079
_cell_formula_units_Z   4
loop_
 _symmetry_equiv_pos_site_id
 _symmetry_equiv_pos_as_xyz
  1  'x, y, z'
loop_
 _atom_site_type_symbol
 _atom_site_label
 _atom_site_symmetry_multiplicity
 _atom_site_fract_x
 _atom_site_fract_y
 _atom_site_fract_z
 _atom_site_occupancy
  Sr  Sr1  1  0.27710000  0.90906000  0.00621000  1.0
  Sr  Sr2  1  0.22250000  0.59018000  0.50514000  1.0
  Sr  Sr3  1  0.72291000  0.09094000  0.99379000  1.0
  Sr  Sr4  1  0.77751000  0.40981000  0.49486000  1.0
  H  H1  1  0.90547000  0.37495000  0.30538000  1.0
  H  H2  1  0.85879000  0.26686000  0.16909000  1.0
  H  H3  1  0.59968000  0.12547000  0.80588000  1.0
  H  H4  1  0.64607000  0.23190000  0.66876000  1.0
  H  H5  1  0.09454000  0.62505000  0.69462000  1.0
  H  H6  1  0.14122000  0.73314000  0.83091000  1.0
  H  H7  1  0.40033000  0.87453000  0.19412000  1.0
  H  H8  1  0.35394000  0.76810000  0.33124000  1.0
  C  C1  1  0.21754000  0.10457000  0.12522000  1.0
  C  C2  1  0.18308000  0.17971000  0.19412000  1.0
  C  C3  1  0.00049000  0.25368000  0.20951000  1.0
  C  C4  1  0.02415000  0.31082000  0.28251000  1.0
  C  C5  1  0.22276000  0.27864000  0.32208000  1.0
  C  C6  1  0.30835000  0.32181000  0.39841000  1.0
  C  C7  1  0.28256000  0.39396000  0.62464000  1.0
  C  C8  1  0.32117000  0.31912000  0.69345000  1.0
  C  C9  1  0.50439000  0.24564000  0.70910000  1.0
  C  C10  1  0.48065000  0.18891000  0.78232000  1.0
  C  C11  1  0.28119000  0.22084000  0.82142000  1.0
  C  C12  1  0.19298000  0.17876000  0.89756000  1.0
  C  C13  1  0.78247000  0.89543000  0.87478000  1.0
  C  C14  1  0.81693000  0.82029000  0.80588000  1.0
  C  C15  1  0.99952000  0.74632000  0.79049000  1.0
  C  C16  1  0.97586000  0.68918000  0.71749000  1.0
  C  C17  1  0.77725000  0.72136000  0.67792000  1.0
  C  C18  1  0.69166000  0.67819000  0.60159000  1.0
  C  C19  1  0.71745000  0.60604000  0.37536000  1.0
  C  C20  1  0.67884000  0.68087000  0.30655000  1.0
  C  C21  1  0.49562000  0.75436000  0.29090000  1.0
  C  C22  1  0.51936000  0.81108000  0.21768000  1.0
  C  C23  1  0.71882000  0.77915000  0.17858000  1.0
  C  C24  1  0.80703000  0.82124000  0.10244000  1.0
  S  S1  1  0.38402000  0.17981000  0.26902000  1.0
  S  S2  1  0.11948000  0.31879000  0.76797000  1.0
  S  S3  1  0.61599000  0.82019000  0.73098000  1.0
  S  S4  1  0.88053000  0.68121000  0.23203000  1.0
  O  O1  1  0.41661000  0.06323000  0.11155000  1.0
  O  O2  1  0.04409000  0.07962000  0.08314000  1.0
  O  O3  1  0.51341000  0.29696000  0.41672000  1.0
  O  O4  1  0.17028000  0.38233000  0.44066000  1.0
  O  O5  1  0.08038000  0.43051000  0.61083000  1.0
  O  O6  1  0.45446000  0.42364000  0.58335000  1.0
  O  O7  1  0.98645000  0.20340000  0.91421000  1.0
  O  O8  1  0.32947000  0.11975000  0.94130000  1.0
  O  O9  1  0.58340000  0.93677000  0.88845000  1.0
  O  O10  1  0.95592000  0.92038000  0.91686000  1.0
  O  O11  1  0.48660000  0.70304000  0.58328000  1.0
  O  O12  1  0.82973000  0.61767000  0.55934000  1.0
  O  O13  1  0.91963000  0.56949000  0.38917000  1.0
  O  O14  1  0.54555000  0.57636000  0.41665000  1.0
  O  O15  1  0.01356000  0.79660000  0.08579000  1.0
  O  O16  1  0.67054000  0.88025000  0.05870000  1.0
