# generated using pymatgen
data_Cr3H24C25O13F2
_symmetry_space_group_name_H-M   'P 1'
_cell_length_a   10.96556345
_cell_length_b   10.98250000
_cell_length_c   18.76661000
_cell_angle_alpha   90.03950000
_cell_angle_beta   90.57935181
_cell_angle_gamma   119.88349977
_symmetry_Int_Tables_number   1
_chemical_formula_structural   Cr3H24C25O13F2
_chemical_formula_sum   'Cr6 H48 C50 O26 F4'
_cell_volume   1959.41118483
_cell_formula_units_Z   2
loop_
 _symmetry_equiv_pos_site_id
 _symmetry_equiv_pos_as_xyz
  1  'x, y, z'
loop_
 _atom_site_type_symbol
 _atom_site_label
 _atom_site_symmetry_multiplicity
 _atom_site_fract_x
 _atom_site_fract_y
 _atom_site_fract_z
 _atom_site_occupancy
  Cr  Cr0  1  0.60699000  0.20894000  0.50148000  1
  Cr  Cr1  1  0.60118000  0.89320000  0.50163000  1
  Cr  Cr2  1  0.29186000  0.89792000  0.49685000  1
  Cr  Cr3  1  0.06205000  0.12360000  0.00894000  1
  Cr  Cr4  1  0.37382000  0.43679000  0.99475000  1
  Cr  Cr5  1  0.06221000  0.43645000  0.00141000  1
  H  H6  1  0.44386000  0.54708000  0.79751000  1
  H  H7  1  0.07728000  0.47903000  0.78779000  1
  H  H8  1  0.10344000  0.55683000  0.67328000  1
  H  H9  1  0.08796000  0.08705000  0.79623000  1
  H  H10  1  0.12653000  0.99311000  0.67524000  1
  H  H11  1  0.40180000  0.17718000  0.80380000  1
  H  H12  1  0.39366000  0.28028000  0.69166000  1
  H  H13  1  0.63517000  0.16407000  0.70486000  1
  H  H14  1  0.92205000  0.17595000  0.69412000  1
  H  H15  1  0.23979000  0.79244000  0.15015000  1
  H  H16  1  0.43511000  0.67783000  0.18958000  1
  H  H17  1  0.46648000  0.76575000  0.29110000  1
  H  H18  1  0.56435000  0.20934000  0.29924000  1
  H  H19  1  0.30318000  0.06032000  0.17922000  1
  H  H20  1  0.76066000  0.95110000  0.17456000  1
  H  H21  1  0.56060000  0.77142000  0.69417000  1
  H  H22  1  0.68878000  0.91196000  0.29670000  1
  H  H23  1  0.79639000  0.24793000  0.19166000  1
  H  H24  1  0.79309000  0.22889000  0.30280000  1
  H  H25  1  0.46245000  0.58666000  0.67955000  1
  H  H26  1  0.19341000  0.41373000  0.77587000  1
  H  H27  1  0.39999000  0.85738000  0.82905000  1
  H  H28  1  0.42950000  0.90753000  0.71448000  1
  H  H29  1  0.78367000  0.46641000  0.75653000  1
  H  H30  1  0.60276000  0.33114000  0.74927000  1
  H  H31  1  0.65498000  0.45752000  0.81876000  1
  H  H32  1  0.62419000  0.23489000  0.86856000  1
  H  H33  1  0.80041000  0.37844000  0.87563000  1
  H  H34  1  0.66820000  0.64520000  0.86968000  1
  H  H35  1  0.72418000  0.71405000  0.78029000  1
  H  H36  1  0.79184000  0.82667000  0.85801000  1
  H  H37  1  0.61067000  0.86791000  0.80352000  1
  H  H38  1  0.55009000  0.77899000  0.88501000  1
  H  H39  1  0.09967000  0.86790000  0.19631000  1
  H  H40  1  0.00637000  0.67761000  0.20243000  1
  H  H41  1  0.96473000  0.78327000  0.26003000  1
  H  H42  1  0.09403000  0.69236000  0.32420000  1
  H  H43  1  0.18983000  0.88154000  0.32086000  1
  H  H44  1  0.62222000  0.48310000  0.30567000  1
  H  H45  1  0.75096000  0.44793000  0.26425000  1
  H  H46  1  0.74147000  0.60267000  0.24146000  1
  H  H47  1  0.63735000  0.42140000  0.14670000  1
  H  H48  1  0.51419000  0.46686000  0.18557000  1
  H  H49  1  0.96979000  0.74378000  0.82241000  1
  H  H50  1  0.02305000  0.66450000  0.75541000  1
  H  H51  1  0.98876000  0.59723000  0.84523000  1
  H  H52  1  0.19554000  0.79967000  0.89376000  1
  H  H53  1  0.20818000  0.89923000  0.81948000  1
  C  C54  1  0.76817000  0.12098000  0.60672000  1
  C  C55  1  0.30473000  0.77391000  0.80135000  1
  C  C56  1  0.30281000  0.63256000  0.81432000  1
  C  C57  1  0.33298000  0.68831000  0.67836000  1
  C  C58  1  0.19613000  0.54772000  0.69000000  1
  C  C59  1  0.32756000  0.80833000  0.72116000  1
  C  C60  1  0.32228000  0.18015000  0.66641000  1
  C  C61  1  0.30063000  0.15697000  0.82274000  1
  C  C62  1  0.19070000  0.11202000  0.77711000  1
  C  C63  1  0.20634000  0.08869000  0.70105000  1
  C  C64  1  0.82073000  0.16325000  0.67853000  1
  C  C65  1  0.34808000  0.72762000  0.60256000  1
  C  C66  1  0.82341000  0.14436000  0.83541000  1
  C  C67  1  0.76961000  0.21407000  0.80012000  1
  C  C68  1  0.73611000  0.18037000  0.72399000  1
  C  C69  1  0.38061000  0.77678000  0.31039000  1
  C  C70  1  0.36549000  0.70162000  0.15902000  1
  C  C71  1  0.30263000  0.76871000  0.18633000  1
  C  C72  1  0.28611000  0.78035000  0.26388000  1
  C  C73  1  0.35965000  0.17103000  0.32186000  1
  C  C74  1  0.37041000  0.16884000  0.16407000  1
  C  C75  1  0.47270000  0.25680000  0.20893000  1
  C  C76  1  0.37108000  0.14609000  0.60087000  1
  C  C77  1  0.46834000  0.20256000  0.27898000  1
  C  C78  1  0.74988000  0.12124000  0.32000000  1
  C  C79  1  0.80764000  0.16290000  0.16966000  1
  C  C80  1  0.75743000  0.03749000  0.20106000  1
  C  C81  1  0.72345000  0.01602000  0.27590000  1
  C  C82  1  0.29316000  0.19872000  0.89555000  1
  C  C83  1  0.27725000  0.59036000  0.88927000  1
  C  C84  1  0.88186000  0.17470000  0.90726000  1
  C  C85  1  0.32742000  0.21622000  0.10236000  1
  C  C86  1  0.30846000  0.62052000  0.09399000  1
  C  C87  1  0.71200000  0.09178000  0.39312000  1
  C  C88  1  0.89872000  0.19375000  0.10957000  1
  C  C89  1  0.38409000  0.79844000  0.38762000  1
  C  C90  1  0.38214000  0.15339000  0.39537000  1
  C  C91  1  0.44667000  0.64888000  0.78848000  1
  C  C92  1  0.45980000  0.67519000  0.70700000  1
  C  C93  1  0.18428000  0.50971000  0.76928000  1
  C  C94  1  0.71998000  0.30431000  0.83775000  1
  C  C95  1  0.68882000  0.39505000  0.78723000  1
  C  C96  1  0.57622000  0.76589000  0.82960000  1
  C  C97  1  0.69762000  0.73581000  0.83403000  1
  C  C98  1  0.15596000  0.78467000  0.28965000  1
  C  C99  1  0.05130000  0.77774000  0.23300000  1
  C  C100  1  0.57496000  0.41196000  0.19480000  1
  C  C101  1  0.67877000  0.49032000  0.25568000  1
  C  C102  1  0.18643000  0.79448000  0.83472000  1
  C  C103  1  0.03391000  0.69309000  0.81252000  1
  O  O104  1  0.49289000  0.23661000  0.58030000  1
  O  O105  1  0.47536000  0.77999000  0.42510000  1
  O  O106  1  0.26411000  0.75972000  0.41598000  1
  O  O107  1  0.30944000  0.03162000  0.42235000  1
  O  O108  1  0.50001000  0.00002000  0.49998000  1
  O  O109  1  0.91081000  0.08494000  0.93232000  1
  O  O110  1  0.18093000  0.12697000  0.93144000  1
  O  O111  1  0.39293000  0.31649000  0.91646000  1
  O  O112  1  0.35289000  0.54634000  0.91769000  1
  O  O113  1  0.16292000  0.56906000  0.91530000  1
  O  O114  1  0.93523000  0.29915000  0.93255000  1
  O  O115  1  0.71917000  0.19198000  0.57794000  1
  O  O116  1  0.93175000  0.10255000  0.09294000  1
  O  O117  1  0.20035000  0.14331000  0.08033000  1
  O  O118  1  0.41387000  0.33411000  0.07708000  1
  O  O119  1  0.37230000  0.56267000  0.06658000  1
  O  O120  1  0.18386000  0.58668000  0.07592000  1
  O  O121  1  0.95464000  0.31547000  0.08144000  1
  O  O122  1  0.16602000  0.33227000  0.00170000  1
  O  O123  1  0.73864000  0.99965000  0.58427000  1
  O  O124  1  0.46741000  0.77263000  0.57437000  1
  O  O125  1  0.25553000  0.75178000  0.57700000  1
  O  O126  1  0.30148000  0.02425000  0.57162000  1
  O  O127  1  0.50147000  0.24455000  0.41928000  1
  O  O128  1  0.72712000  0.19934000  0.42868000  1
  O  O129  1  0.74722000  0.00759000  0.42325000  1
  F  F130  1  0.22439000  0.83356000  0.69423000  1
  F  F131  1  0.84329000  0.04755000  0.80006000  1
  F  F132  1  0.23816000  0.16409000  0.29896000  1
  F  F133  1  0.19545000  0.44181000  0.64935000  1
