# generated using pymatgen
data_ZnH22C17NO6
_symmetry_space_group_name_H-M   'P 1'
_cell_length_a   9.85204000
_cell_length_b   10.73190000
_cell_length_c   10.95405000
_cell_angle_alpha   91.01481000
_cell_angle_beta   102.22615000
_cell_angle_gamma   90.40606000
_symmetry_Int_Tables_number   1
_chemical_formula_structural   ZnH22C17NO6
_chemical_formula_sum   'Zn2 H44 C34 N2 O12'
_cell_volume   1131.66832496
_cell_formula_units_Z   2
loop_
 _symmetry_equiv_pos_site_id
 _symmetry_equiv_pos_as_xyz
  1  'x, y, z'
loop_
 _atom_site_type_symbol
 _atom_site_label
 _atom_site_symmetry_multiplicity
 _atom_site_fract_x
 _atom_site_fract_y
 _atom_site_fract_z
 _atom_site_occupancy
  Zn  Zn0  1  0.34688000  0.50002000  0.50000000  1
  Zn  Zn1  1  0.65312000  0.49998000  0.50000000  1
  H  H2  1  0.83079000  0.56341000  0.31405000  1
  H  H3  1  0.16731000  0.44664000  0.68684000  1
  H  H4  1  0.08291000  0.56974000  0.31670000  1
  H  H5  1  0.91854000  0.44705000  0.68828000  1
  H  H6  1  0.71773000  0.88254000  0.49485000  1
  H  H7  1  0.27869000  0.11592000  0.45125000  1
  H  H8  1  0.70557000  0.16987000  0.15174000  1
  H  H9  1  0.57434000  0.18832000  0.01179000  1
  H  H10  1  0.50900000  0.18198000  0.26830000  1
  H  H11  1  0.38948000  0.17487000  0.12652000  1
  H  H12  1  0.48485000  0.97529000  0.06412000  1
  H  H13  1  0.42060000  0.96411000  0.20542000  1
  H  H14  1  0.60508000  0.97311000  0.21287000  1
  H  H15  1  0.17272000  0.28054000  0.83560000  1
  H  H16  1  0.32295000  0.22757000  0.93954000  1
  H  H17  1  0.26087000  0.22585000  0.65534000  1
  H  H18  1  0.43633000  0.20840000  0.74453000  1
  H  H19  1  0.35364000  0.02808000  0.85667000  1
  H  H20  1  0.33146000  0.00113000  0.69224000  1
  H  H21  1  0.18310000  0.04218000  0.75658000  1
  H  H22  1  0.12438000  0.41613000  0.18837000  1
  H  H23  1  0.26291000  0.30437000  0.22647000  1
  H  H24  1  0.01555000  0.28972000  0.00752000  1
  H  H25  1  0.15548000  0.18004000  0.03567000  1
  H  H26  1  0.95073000  0.23597000  0.20434000  1
  H  H27  1  0.10871000  0.15052000  0.25604000  1
  H  H28  1  0.98011000  0.08939000  0.12926000  1
  H  H29  1  0.86233000  0.31651000  0.82383000  1
  H  H30  1  0.69100000  0.28080000  0.73887000  1
  H  H31  1  0.80339000  0.16209000  0.98765000  1
  H  H32  1  0.65925000  0.11251000  0.86491000  1
  H  H33  1  0.95729000  0.11543000  0.82469000  1
  H  H34  1  0.80281000  0.03077000  0.74116000  1
  H  H35  1  0.88560000  0.98763000  0.89545000  1
  H  H36  1  0.96137000  0.18939000  0.50500000  1
  H  H37  1  0.84804000  0.20900000  0.61232000  1
  H  H38  1  0.91993000  0.05687000  0.58803000  1
  H  H39  1  0.78977000  0.04685000  0.37358000  1
  H  H40  1  0.72995000  0.19841000  0.37923000  1
  H  H41  1  0.03629000  0.82046000  0.44539000  1
  H  H42  1  0.18922000  0.80742000  0.56844000  1
  H  H43  1  0.11552000  0.95852000  0.52646000  1
  H  H44  1  0.17125000  0.93959000  0.31758000  1
  H  H45  1  0.23511000  0.78894000  0.34453000  1
  C  C46  1  0.49804000  0.73965000  0.49209000  1
  C  C47  1  0.50040000  0.25968000  0.49668000  1
  C  C48  1  0.55528000  0.48032000  0.73838000  1
  C  C49  1  0.44225000  0.48456000  0.25982000  1
  C  C50  1  0.90401000  0.53486000  0.39662000  1
  C  C51  1  0.09530000  0.46899000  0.60365000  1
  C  C52  1  0.04791000  0.53655000  0.39734000  1
  C  C53  1  0.95237000  0.46947000  0.60413000  1
  C  C54  1  0.58268000  0.42294000  0.86537000  1
  C  C55  1  0.40188000  0.44085000  0.12618000  1
  C  C56  1  0.47626000  0.40276000  0.92502000  1
  C  C57  1  0.49962000  0.39879000  0.06538000  1
  C  C58  1  0.62193000  0.93370000  0.48794000  1
  C  C59  1  0.37491000  0.06474000  0.46328000  1
  C  C60  1  0.62707000  0.06122000  0.47950000  1
  C  C61  1  0.36798000  0.93715000  0.44920000  1
  C  C62  1  0.50291000  0.12678000  0.48460000  1
  C  C63  1  0.49450000  0.87165000  0.47701000  1
  C  C64  1  0.60341000  0.21143000  0.11225000  1
  C  C65  1  0.49485000  0.14851000  0.17216000  1
  C  C66  1  0.50236000  0.00660000  0.16335000  1
  C  C67  1  0.28768000  0.27576000  0.85111000  1
  C  C68  1  0.32476000  0.19642000  0.74587000  1
  C  C69  1  0.29600000  0.05864000  0.76398000  1
  C  C70  1  0.19114000  0.35125000  0.14868000  1
  C  C71  1  0.09647000  0.24796000  0.08019000  1
  C  C72  1  0.02953000  0.17705000  0.17292000  1
  C  C73  1  0.75751000  0.28773000  0.83414000  1
  C  C74  1  0.76446000  0.15577000  0.88629000  1
  C  C75  1  0.85912000  0.06817000  0.83291000  1
  C  C76  1  0.75417000  0.11510000  0.43732000  1
  C  C77  1  0.87782000  0.14423000  0.54318000  1
  C  C78  1  0.22671000  0.87918000  0.39299000  1
  C  C79  1  0.13694000  0.86540000  0.48975000  1
  N  N80  1  0.14280000  0.50003000  0.50003000  1
  N  N81  1  0.85720000  0.49997000  0.49997000  1
  O  O82  1  0.38538000  0.68325000  0.50001000  1
  O  O83  1  0.61462000  0.31675000  0.49999000  1
  O  O84  1  0.61471000  0.68322000  0.50001000  1
  O  O85  1  0.38529000  0.31678000  0.49999000  1
  O  O86  1  0.42815000  0.50000000  0.68219000  1
  O  O87  1  0.57185000  0.50000000  0.31781000  1
  O  O88  1  0.65748000  0.49997000  0.68219000  1
  O  O89  1  0.34252000  0.50003000  0.31781000  1
  O  O90  1  0.61609000  0.34229000  0.13470000  1
  O  O91  1  0.34133000  0.39922000  0.85576000  1
  O  O92  1  0.26129000  0.42044000  0.06965000  1
  O  O93  1  0.71364000  0.37621000  0.91700000  1
