# generated using pymatgen
data_H24C45(N2O)4
_symmetry_space_group_name_H-M   'P 1'
_cell_length_a   30.91660000
_cell_length_b   43.47570000
_cell_length_c   43.47560000
_cell_angle_alpha   90.00000000
_cell_angle_beta   89.99320000
_cell_angle_gamma   90.00000000
_symmetry_Int_Tables_number   1
_chemical_formula_structural   H24C45(N2O)4
_chemical_formula_sum   'H192 C360 N64 O32'
_cell_volume   58436.45899825
_cell_formula_units_Z   8
loop_
 _symmetry_equiv_pos_site_id
 _symmetry_equiv_pos_as_xyz
  1  'x, y, z'
loop_
 _atom_site_type_symbol
 _atom_site_label
 _atom_site_symmetry_multiplicity
 _atom_site_fract_x
 _atom_site_fract_y
 _atom_site_fract_z
 _atom_site_occupancy
  H  25  1  0.02986400  0.20872500  0.99741700  1
  H  26  1  0.02460500  0.15775700  0.01692900  1
  H  27  1  0.01605700  0.10832600  0.04707000  1
  H  28  1  0.01314100  0.06799300  0.08446400  1
  H  29  1  0.99441200  0.13393200  0.15504800  1
  H  30  1  0.99725800  0.24423300  0.08513100  1
  H  31  1  0.09168300  0.18763800  0.11056900  1
  H  32  1  0.10640600  0.23959800  0.19247300  1
  H  33  1  0.02973000  0.23927000  0.20002600  1
  H  34  1  0.90586400  0.18208400  0.10511800  1
  H  35  1  0.95108600  0.23536400  0.19856400  1
  H  36  1  0.87596100  0.23010600  0.18743300  1
  H  70  1  0.02979200  0.79129800  0.86527900  1
  H  71  1  0.02470800  0.84226700  0.84575100  1
  H  72  1  0.01639100  0.89171100  0.81557600  1
  H  73  1  0.01336800  0.93205300  0.77819400  1
  H  74  1  0.99462900  0.86612200  0.70761000  1
  H  75  1  0.99737100  0.75581200  0.77751300  1
  H  76  1  0.09197800  0.81229600  0.75212000  1
  H  77  1  0.10669800  0.76051100  0.67010000  1
  H  78  1  0.03004000  0.76097800  0.66248400  1
  H  79  1  0.90615500  0.81775700  0.75763200  1
  H  80  1  0.95141900  0.76477500  0.66401900  1
  H  81  1  0.87630700  0.76985400  0.67524300  1
  H  115  1  0.02978100  0.93394100  0.13992200  1
  H  116  1  0.02474200  0.91437200  0.08896200  1
  H  117  1  0.01643100  0.88415200  0.03953900  1
  H  118  1  0.01347700  0.84672900  0.99923300  1
  H  119  1  0.99453800  0.77621600  0.06521600  1
  H  120  1  0.99715500  0.84623000  0.17545300  1
  H  121  1  0.09181400  0.82047100  0.11906500  1
  H  122  1  0.10585400  0.73871000  0.17135600  1
  H  123  1  0.02915200  0.73135200  0.17084600  1
  H  124  1  0.90603500  0.82639400  0.11309100  1
  H  125  1  0.95057100  0.73298700  0.16673500  1
  H  126  1  0.87552700  0.74428100  0.16126700  1
  H  160  1  0.02949300  0.06605900  0.72275000  1
  H  161  1  0.02434100  0.08560800  0.77370100  1
  H  162  1  0.01601500  0.11580200  0.82311800  1
  H  163  1  0.01315500  0.15320800  0.86344000  1
  H  164  1  0.99472900  0.22380400  0.79747400  1
  H  165  1  0.99732600  0.15384000  0.68719800  1
  H  166  1  0.09192200  0.17900900  0.74375000  1
  H  167  1  0.10716700  0.26096200  0.69194000  1
  H  168  1  0.03054400  0.26876200  0.69229600  1
  H  169  1  0.90606400  0.17406400  0.74917400  1
  H  170  1  0.95190700  0.26745100  0.69604600  1
  H  171  1  0.87672100  0.25647500  0.70114700  1
  H  205  1  0.53722000  0.70742400  0.49666100  1
  H  206  1  0.52774600  0.65656500  0.51598500  1
  H  207  1  0.51580100  0.60741600  0.54615300  1
  H  208  1  0.50993700  0.56728300  0.58350800  1
  H  209  1  0.49262900  0.63377100  0.65376000  1
  H  210  1  0.50639500  0.74382300  0.58434700  1
  H  211  1  0.59472300  0.68199800  0.61223800  1
  H  212  1  0.60990900  0.73140500  0.69571100  1
  H  213  1  0.53352600  0.73581200  0.70051400  1
  H  214  1  0.40940800  0.68739400  0.60098100  1
  H  215  1  0.45549000  0.73951300  0.69492200  1
  H  216  1  0.38106400  0.74010900  0.68066500  1
  H  250  1  0.53712300  0.29265800  0.36601100  1
  H  251  1  0.52748100  0.34350500  0.34669700  1
  H  252  1  0.51531900  0.39264300  0.31656000  1
  H  253  1  0.50961700  0.43277600  0.27919000  1
  H  254  1  0.49284600  0.36627600  0.20888100  1
  H  255  1  0.50662500  0.25623300  0.27829300  1
  H  256  1  0.59483300  0.31804200  0.25070400  1
  H  257  1  0.61055300  0.26893200  0.16710900  1
  H  258  1  0.53418900  0.26452500  0.16206900  1
  H  259  1  0.40947600  0.31248300  0.26148200  1
  H  260  1  0.45611100  0.26077800  0.16743900  1
  H  261  1  0.38162400  0.25999600  0.18156400  1
  H  295  1  0.53695500  0.43469200  0.63856800  1
  H  296  1  0.52745500  0.41534500  0.58772400  1
  H  297  1  0.51551000  0.38515400  0.53859400  1
  H  298  1  0.50978800  0.34776200  0.49848300  1
  H  299  1  0.49259700  0.27753200  0.56501400  1
  H  300  1  0.50618200  0.34702200  0.67501900  1
  H  301  1  0.59453600  0.31924800  0.61331300  1
  H  302  1  0.60987000  0.23573900  0.66264000  1
  H  303  1  0.53350000  0.23080700  0.66694500  1
  H  304  1  0.40918500  0.33027500  0.61862100  1
  H  305  1  0.45547100  0.23636700  0.67072200  1
  H  306  1  0.38103200  0.25059100  0.67139500  1
  H  340  1  0.53708700  0.56531400  0.22405700  1
  H  341  1  0.52758400  0.58464900  0.27490500  1
  H  342  1  0.51559700  0.61482500  0.32405300  1
  H  343  1  0.50974600  0.65218600  0.36418200  1
  H  344  1  0.49277800  0.72246200  0.29767500  1
  H  345  1  0.50659900  0.65304800  0.18763500  1
  H  346  1  0.59493700  0.68070500  0.24922100  1
  H  347  1  0.61028800  0.76445300  0.20029900  1
  H  348  1  0.53391400  0.76943100  0.19606600  1
  H  349  1  0.40960600  0.66969000  0.24381700  1
  H  350  1  0.45589100  0.76393300  0.19232500  1
  H  351  1  0.38147500  0.74965400  0.19147500  1
  H  371  1  0.87238700  0.93181800  0.15641800  1
  H  372  1  0.86164500  0.98020400  0.12826000  1
  H  373  1  0.05386700  0.02728100  0.17423900  1
  H  374  1  0.06352100  0.98063200  0.20210100  1
  H  376  1  0.01868900  0.93646700  0.22690500  1
  H  378  1  0.97249200  0.04025400  0.11956900  1
  H  389  1  0.87225400  0.06806900  0.70619900  1
  H  390  1  0.86162900  0.01968900  0.73439000  1
  H  391  1  0.05397000  0.97282000  0.68840900  1
  H  392  1  0.06351100  0.01947400  0.66052400  1
  H  394  1  0.01852700  0.06358100  0.63571400  1
  H  396  1  0.97262400  0.95977900  0.74310500  1
  H  407  1  0.87252900  0.77477600  0.86314700  1
  H  408  1  0.86181600  0.80294800  0.91152900  1
  H  409  1  0.05403100  0.75691800  0.95857300  1
  H  410  1  0.06366700  0.72905400  0.91191800  1
  H  412  1  0.01889800  0.70430700  0.86772700  1
  H  414  1  0.97269900  0.81164100  0.97153200  1
  H  425  1  0.87247100  0.22538300  0.99953100  1
  H  426  1  0.86172900  0.19719500  0.95116200  1
  H  427  1  0.05407900  0.24298700  0.90413100  1
  H  428  1  0.06373700  0.27087300  0.95076700  1
  H  430  1  0.01893100  0.29572200  0.99492700  1
  H  432  1  0.97260100  0.18838000  0.89115600  1
  H  443  1  0.38013000  0.42713100  0.65783600  1
  H  444  1  0.36501800  0.47492300  0.62968100  1
  H  445  1  0.55490300  0.52921100  0.67246200  1
  H  446  1  0.56890200  0.48310000  0.70021200  1
  H  448  1  0.52931800  0.43732300  0.72564100  1
  H  450  1  0.47152700  0.53898000  0.61896500  1
  H  461  1  0.38029800  0.57296900  0.20475900  1
  H  462  1  0.36512100  0.52518400  0.23291100  1
  H  463  1  0.55500300  0.47082000  0.19017600  1
  H  464  1  0.56905100  0.51692600  0.16242000  1
  H  466  1  0.52953500  0.56271500  0.13699400  1
  H  468  1  0.47151400  0.46107900  0.24364200  1
  H  479  1  0.38029800  0.27320300  0.35834400  1
  H  480  1  0.36508600  0.30137100  0.40611700  1
  H  481  1  0.55501300  0.25879300  0.46049900  1
  H  482  1  0.56910600  0.23103000  0.41440100  1
  H  484  1  0.52967400  0.20558400  0.36859700  1
  H  486  1  0.47150400  0.31223200  0.47019400  1
  H  497  1  0.38032700  0.72667800  0.50438700  1
  H  498  1  0.36515700  0.69846700  0.45663700  1
  H  499  1  0.55497100  0.74121700  0.40216300  1
  H  500  1  0.56902500  0.76902100  0.44823600  1
  H  502  1  0.52958300  0.79445800  0.49404400  1
  H  504  1  0.47157600  0.68770400  0.39250200  1
  H  515  1  0.63797500  0.19195400  0.22669800  1
  H  516  1  0.69348600  0.15375600  0.21329100  1
  H  517  1  0.80923900  0.26296300  0.14783200  1
  H  518  1  0.75565300  0.30004400  0.16061400  1
  H  520  1  0.67296300  0.30137300  0.16913700  1
  H  522  1  0.81785000  0.19179200  0.18046000  1
  H  533  1  0.63867400  0.80817600  0.63566400  1
  H  534  1  0.69448500  0.84619100  0.64895400  1
  H  535  1  0.80871800  0.73687000  0.71556100  1
  H  536  1  0.75482200  0.69998300  0.70288900  1
  H  538  1  0.67222900  0.69897100  0.69404100  1
  H  540  1  0.81812800  0.80799000  0.68242700  1
  H  551  1  0.63845700  0.70421500  0.12306700  1
  H  552  1  0.69389000  0.71771700  0.08484300  1
  H  553  1  0.80890900  0.78414000  0.19385700  1
  H  554  1  0.75538100  0.77126600  0.23094900  1
  H  556  1  0.67299500  0.76229600  0.23249700  1
  H  558  1  0.81770100  0.75133500  0.12262000  1
  H  569  1  0.63900700  0.29647600  0.73958900  1
  H  570  1  0.69495100  0.28336100  0.77756400  1
  H  571  1  0.80882500  0.21622700  0.66835300  1
  H  572  1  0.75479900  0.22873400  0.63149500  1
  H  574  1  0.67236400  0.23766600  0.63035700  1
  H  576  1  0.81851600  0.24971900  0.73911400  1
  H  587  1  0.32332100  0.79442900  0.25986300  1
  H  588  1  0.25891000  0.82619300  0.25040800  1
  H  589  1  0.19491700  0.72792000  0.14438300  1
  H  590  1  0.25742900  0.69705000  0.15317200  1
  H  592  1  0.33635700  0.70607600  0.17099000  1
  H  594  1  0.15565700  0.78125100  0.19308100  1
  H  605  1  0.32380400  0.20538200  0.60301200  1
  H  606  1  0.25992000  0.17316200  0.61275200  1
  H  607  1  0.19451900  0.27167200  0.71813400  1
  H  608  1  0.25654000  0.30294000  0.70910100  1
  H  610  1  0.33559700  0.29420100  0.69147700  1
  H  612  1  0.15611400  0.21740400  0.66996100  1
  H  623  1  0.32360300  0.32802000  0.13628000  1
  H  624  1  0.25926600  0.31847700  0.10447000  1
  H  625  1  0.19471400  0.21304200  0.20320800  1
  H  626  1  0.25715500  0.22193200  0.23412400  1
  H  628  1  0.33610500  0.23964400  0.22521200  1
  H  630  1  0.15579200  0.26143600  0.14944800  1
  H  641  1  0.32376200  0.67171600  0.72600100  1
  H  642  1  0.25965700  0.68132200  0.75804000  1
  H  643  1  0.19458200  0.78676900  0.65949900  1
  H  644  1  0.25679000  0.77782600  0.62835900  1
  H  646  1  0.33565500  0.76013400  0.63685300  1
  H  648  1  0.15577200  0.73840400  0.71306100  1
  C  1  1  0.95951800  0.19618200  0.13171700  1
  C  2  1  0.97192200  0.21158100  0.15858000  1
  C  3  1  0.01642500  0.21319900  0.15981500  1
  C  4  1  0.03364900  0.19821400  0.13411600  1
  C  5  1  0.07894500  0.19808800  0.12960700  1
  C  6  1  0.10601900  0.21408900  0.15051800  1
  C  7  1  0.08746600  0.22855600  0.17661800  1
  C  8  1  0.04267900  0.22819600  0.18144700  1
  C  9  1  0.94164100  0.22369500  0.17929200  1
  C  10  1  0.89762200  0.22017100  0.17266400  1
  C  11  1  0.88360700  0.20469100  0.14567600  1
  C  12  1  0.91504700  0.19293800  0.12494500  1
  C  13  1  0.00137200  0.19623600  0.08197200  1
  C  14  1  0.00805600  0.17133600  0.06220600  1
  C  15  1  0.00683900  0.14433800  0.07926000  1
  C  16  1  0.00083100  0.15176300  0.11026800  1
  C  17  1  0.01107000  0.11363400  0.06969900  1
  C  18  1  0.00871200  0.09009900  0.09184200  1
  C  19  1  0.00199100  0.09669400  0.12350400  1
  C  20  1  0.99878800  0.12807700  0.13247800  1
  C  21  1  0.00205200  0.22645500  0.07011400  1
  C  22  1  0.01074700  0.23210900  0.03840300  1
  C  23  1  0.01972100  0.20617300  0.01954800  1
  C  24  1  0.01737800  0.17592900  0.03093900  1
  C  37  1  0.99837100  0.18565200  0.11444100  1
  C  38  1  0.00095100  0.07243000  0.14575100  1
  C  39  1  0.01363800  0.26315200  0.02721200  1
  C  40  1  0.15139500  0.21542700  0.14662300  1
  C  41  1  0.83877000  0.20405600  0.13873500  1
  C  46  1  0.95981900  0.80388900  0.73090900  1
  C  47  1  0.97223300  0.78859300  0.70398400  1
  C  48  1  0.01673000  0.78690900  0.70278800  1
  C  49  1  0.03395100  0.80184700  0.72851400  1
  C  50  1  0.07924100  0.80191300  0.73304800  1
  C  51  1  0.10629900  0.78591100  0.71212400  1
  C  52  1  0.08775800  0.77153800  0.68597100  1
  C  53  1  0.04298100  0.77195400  0.68112400  1
  C  54  1  0.94196400  0.77645300  0.68328600  1
  C  55  1  0.89794200  0.77988700  0.68996200  1
  C  56  1  0.88392100  0.79526600  0.71700800  1
  C  57  1  0.91534700  0.80702000  0.73774100  1
  C  58  1  0.00167200  0.80380200  0.78066300  1
  C  59  1  0.00846100  0.82869400  0.80041900  1
  C  60  1  0.00715400  0.85570200  0.78338600  1
  C  61  1  0.00111800  0.84828400  0.75238100  1
  C  62  1  0.01135500  0.88640600  0.79295200  1
  C  63  1  0.00892000  0.90994800  0.77081800  1
  C  64  1  0.00219000  0.90335600  0.73915700  1
  C  65  1  0.99903400  0.87197300  0.73017600  1
  C  66  1  0.00223300  0.77358500  0.79252700  1
  C  67  1  0.01082800  0.76792200  0.82425000  1
  C  68  1  0.01980000  0.79385100  0.84311500  1
  C  69  1  0.01764900  0.82409300  0.83170200  1
  C  82  1  0.99866500  0.81439400  0.74819800  1
  C  83  1  0.00112600  0.92762300  0.71691500  1
  C  84  1  0.01352300  0.73687200  0.83544500  1
  C  85  1  0.15164300  0.78443000  0.71605100  1
  C  86  1  0.83911300  0.79562500  0.72404100  1
  C  91  1  0.95950200  0.79970300  0.12738300  1
  C  92  1  0.97170600  0.77283500  0.14285800  1
  C  93  1  0.01618800  0.77150500  0.14460000  1
  C  94  1  0.03361300  0.79711100  0.12956900  1
  C  95  1  0.07893700  0.80148100  0.12951200  1
  C  96  1  0.10581600  0.78056100  0.14567000  1
  C  97  1  0.08705600  0.75458100  0.16021100  1
  C  98  1  0.04225000  0.74987000  0.15975700  1
  C  99  1  0.94127200  0.75225800  0.15500600  1
  C  100  1  0.89730200  0.75897400  0.15134700  1
  C  101  1  0.88348700  0.78594600  0.13574700  1
  C  102  1  0.91507600  0.80657600  0.12402000  1
  C  103  1  0.00162500  0.84932600  0.12746700  1
  C  104  1  0.00832500  0.86907500  0.10255600  1
  C  105  1  0.00713700  0.85199600  0.07557300  1
  C  106  1  0.00107900  0.82099700  0.08301800  1
  C  107  1  0.01141100  0.86153000  0.04486300  1
  C  108  1  0.00902300  0.83937300  0.02134400  1
  C  109  1  0.00221900  0.80772300  0.02795800  1
  C  110  1  0.99898200  0.79877600  0.05934700  1
  C  111  1  0.00207200  0.86122500  0.15767200  1
  C  112  1  0.01068900  0.89294800  0.16331300  1
  C  113  1  0.01975000  0.91178400  0.13737700  1
  C  114  1  0.01762800  0.90034300  0.10714300  1
  C  127  1  0.99848400  0.81685700  0.11690700  1
  C  128  1  0.00117300  0.78546500  0.00370700  1
  C  129  1  0.01340100  0.90415900  0.19435700  1
  C  130  1  0.15118500  0.78428700  0.14713600  1
  C  131  1  0.83868000  0.79297500  0.13494600  1
  C  136  1  0.95989300  0.20056700  0.73521700  1
  C  137  1  0.97247200  0.22742500  0.71987400  1
  C  138  1  0.01697800  0.22851700  0.71825000  1
  C  139  1  0.03403800  0.20276300  0.73323200  1
  C  140  1  0.07930400  0.19811000  0.73334500  1
  C  141  1  0.10650500  0.21896300  0.71737800  1
  C  142  1  0.08812800  0.24515800  0.70297100  1
  C  143  1  0.04337400  0.25012600  0.70334300  1
  C  144  1  0.94233300  0.24821000  0.70771500  1
  C  145  1  0.89827200  0.24167300  0.71115100  1
  C  146  1  0.88407900  0.21471000  0.72659500  1
  C  147  1  0.91537700  0.19389100  0.73837400  1
  C  148  1  0.00149600  0.15070500  0.73519200  1
  C  149  1  0.00816700  0.13094200  0.76009500  1
  C  150  1  0.00690400  0.14799300  0.78709400  1
  C  151  1  0.00102400  0.17901000  0.77965800  1
  C  152  1  0.01108800  0.13843500  0.81780300  1
  C  153  1  0.00876800  0.16058700  0.84132900  1
  C  154  1  0.00215500  0.19225700  0.83472600  1
  C  155  1  0.99903400  0.20122900  0.80333700  1
  C  156  1  0.00211200  0.13882500  0.70497900  1
  C  157  1  0.01062200  0.10708700  0.69933600  1
  C  158  1  0.01944500  0.08821300  0.72528400  1
  C  159  1  0.01721500  0.09963300  0.75552100  1
  C  172  1  0.99863300  0.18318100  0.74576700  1
  C  173  1  0.00115900  0.21451300  0.85898300  1
  C  174  1  0.01339000  0.09587000  0.66829400  1
  C  175  1  0.15183700  0.21487100  0.71593800  1
  C  176  1  0.83922000  0.20785300  0.72705900  1
  C  181  1  0.46290100  0.69813100  0.62933300  1
  C  182  1  0.47551800  0.71310700  0.65638800  1
  C  183  1  0.51980200  0.71117300  0.65952400  1
  C  184  1  0.53681200  0.69545800  0.63422800  1
  C  185  1  0.58218300  0.69263400  0.63123900  1
  C  186  1  0.60992200  0.70517600  0.65407400  1
  C  187  1  0.59115200  0.72061000  0.67961400  1
  C  188  1  0.54626400  0.72371300  0.68250700  1
  C  189  1  0.44588100  0.72848800  0.67531600  1
  C  190  1  0.40236700  0.72896900  0.66651300  1
  C  191  1  0.38822200  0.71424100  0.63914200  1
  C  192  1  0.41876300  0.69811900  0.62083500  1
  C  193  1  0.50713600  0.69571400  0.58107900  1
  C  194  1  0.51194200  0.67063500  0.56126000  1
  C  195  1  0.50739500  0.64369600  0.57813700  1
  C  196  1  0.50058300  0.65130000  0.60901900  1
  C  197  1  0.51000200  0.61288100  0.56864600  1
  C  198  1  0.50590000  0.58945400  0.59078300  1
  C  199  1  0.49900400  0.59625800  0.62239200  1
  C  200  1  0.49669200  0.62772800  0.63120900  1
  C  201  1  0.51041900  0.72589800  0.56938500  1
  C  202  1  0.51965000  0.73125100  0.53772900  1
  C  203  1  0.52696700  0.70510500  0.51881000  1
  C  204  1  0.52222500  0.67495700  0.53009700  1
  C  217  1  0.50141100  0.68519500  0.61335500  1
  C  218  1  0.49814400  0.57219800  0.64488100  1
  C  219  1  0.52409800  0.76215300  0.52654100  1
  C  220  1  0.65558700  0.70600700  0.65006400  1
  C  221  1  0.34351200  0.71477200  0.63181500  1
  C  226  1  0.46313400  0.30190000  0.23321400  1
  C  227  1  0.47591300  0.28702300  0.20613900  1
  C  228  1  0.52020000  0.28905600  0.20308000  1
  C  229  1  0.53706500  0.30461600  0.22852000  1
  C  230  1  0.58241300  0.30748500  0.23162300  1
  C  231  1  0.61030100  0.29498100  0.20885200  1
  C  232  1  0.59168600  0.27961900  0.18321700  1
  C  233  1  0.54681400  0.27655900  0.18015800  1
  C  234  1  0.44638200  0.27172900  0.18705800  1
  C  235  1  0.40283600  0.27114000  0.19578100  1
  C  236  1  0.38854200  0.28574600  0.22317400  1
  C  237  1  0.41894700  0.30185400  0.24160100  1
  C  238  1  0.50709100  0.30434000  0.28158900  1
  C  239  1  0.51166100  0.32941900  0.30143600  1
  C  240  1  0.50723600  0.35635800  0.28454000  1
  C  241  1  0.50068300  0.34875200  0.25363300  1
  C  242  1  0.50971400  0.38717500  0.29404200  1
  C  243  1  0.50574800  0.41059800  0.27188900  1
  C  244  1  0.49901400  0.40379400  0.24026500  1
  C  245  1  0.49681100  0.37232100  0.23143700  1
  C  246  1  0.51046400  0.27415800  0.29327800  1
  C  247  1  0.51963700  0.26881000  0.32494500  1
  C  248  1  0.52683700  0.29496500  0.34386800  1
  C  249  1  0.52196300  0.32510600  0.33259300  1
  C  262  1  0.50153400  0.31485700  0.24929800  1
  C  263  1  0.49818900  0.42785300  0.21776600  1
  C  264  1  0.52426900  0.23791700  0.33612400  1
  C  265  1  0.65594300  0.29417400  0.21299200  1
  C  266  1  0.34384500  0.28497100  0.23044300  1
  C  271  1  0.46273900  0.30197100  0.62934600  1
  C  272  1  0.47541200  0.27491000  0.64429200  1
  C  273  1  0.51969900  0.27182600  0.64237000  1
  C  274  1  0.53666700  0.29717100  0.62671300  1
  C  275  1  0.58203100  0.30021400  0.62390800  1
  C  276  1  0.60981500  0.27741300  0.63646400  1
  C  277  1  0.59109400  0.25183300  0.65185600  1
  C  278  1  0.54620600  0.24886600  0.65490300  1
  C  279  1  0.44581600  0.25595700  0.65968700  1
  C  280  1  0.40229900  0.26474100  0.66021300  1
  C  281  1  0.38809900  0.29208500  0.64547400  1
  C  282  1  0.41857200  0.31040400  0.62930200  1
  C  283  1  0.50685100  0.35027400  0.62690900  1
  C  284  1  0.51162900  0.37008500  0.60182100  1
  C  285  1  0.50714600  0.35318400  0.57489100  1
  C  286  1  0.50041500  0.32229800  0.58251200  1
  C  287  1  0.50974600  0.36265800  0.54406900  1
  C  288  1  0.50575500  0.34049400  0.52065600  1
  C  289  1  0.49894300  0.30888300  0.52748200  1
  C  290  1  0.49661400  0.30008300  0.55895500  1
  C  291  1  0.51013400  0.36198700  0.65708700  1
  C  292  1  0.51938200  0.39364300  0.66242500  1
  C  293  1  0.52666300  0.41254800  0.63626400  1
  C  294  1  0.52183700  0.40126100  0.60612400  1
  C  307  1  0.50121700  0.31798500  0.61640900  1
  C  308  1  0.49815700  0.28637200  0.50343800  1
  C  309  1  0.52393300  0.40484000  0.69331500  1
  C  310  1  0.65544800  0.28152500  0.63742900  1
  C  311  1  0.34340800  0.29935800  0.64612200  1
  C  316  1  0.46314600  0.69810100  0.23333600  1
  C  317  1  0.47581600  0.72525200  0.21855400  1
  C  318  1  0.52009700  0.72835900  0.22054800  1
  C  319  1  0.53706500  0.70291500  0.23604800  1
  C  320  1  0.58243200  0.69981200  0.23875800  1
  C  321  1  0.61021700  0.72264800  0.22626400  1
  C  322  1  0.59150500  0.74832500  0.21102900  1
  C  323  1  0.54661600  0.75133800  0.20805100  1
  C  324  1  0.44623300  0.74427400  0.20323800  1
  C  325  1  0.40273200  0.73545500  0.20260100  1
  C  326  1  0.38854200  0.70799400  0.21712900  1
  C  327  1  0.41899900  0.68961400  0.23324000  1
  C  328  1  0.50725200  0.64978000  0.23574200  1
  C  329  1  0.51195200  0.62995000  0.26082300  1
  C  330  1  0.50741700  0.64682600  0.28776500  1
  C  331  1  0.50076700  0.67772200  0.28015600  1
  C  332  1  0.50990500  0.63732900  0.31858400  1
  C  333  1  0.50585200  0.65947900  0.34200400  1
  C  334  1  0.49901100  0.69109300  0.33519900  1
  C  335  1  0.49679500  0.69990900  0.30372600  1
  C  336  1  0.51054200  0.63807700  0.20556100  1
  C  337  1  0.51967900  0.60640400  0.20021400  1
  C  338  1  0.52689200  0.58747800  0.22636600  1
  C  339  1  0.52213800  0.59877200  0.25650900  1
  C  352  1  0.50160500  0.68206200  0.24626400  1
  C  353  1  0.49815400  0.71359700  0.35924900  1
  C  354  1  0.52414900  0.59520400  0.16931600  1
  C  355  1  0.65583300  0.71855600  0.22523600  1
  C  356  1  0.34386400  0.70064700  0.21636700  1
  C  361  1  0.99077900  0.01751500  0.15753300  1
  C  362  1  0.95875500  0.99409700  0.15706300  1
  C  363  1  0.96489000  0.96595200  0.17327600  1
  C  364  1  0.00363100  0.96051200  0.18969500  1
  C  365  1  0.03499200  0.98409600  0.19066700  1
  C  366  1  0.02900900  0.01177900  0.17450100  1
  C  368  1  0.89548100  0.94860900  0.15652700  1
  C  369  1  0.88935800  0.97625200  0.14040700  1
  C  379  1  0.99086700  0.98252500  0.70512600  1
  C  380  1  0.95877100  0.00589500  0.70558200  1
  C  381  1  0.96483500  0.03403400  0.68934700  1
  C  382  1  0.00357400  0.03951800  0.67293100  1
  C  383  1  0.03499400  0.01597400  0.67196700  1
  C  384  1  0.02906400  0.98828200  0.68812600  1
  C  386  1  0.89538700  0.05130600  0.70609600  1
  C  387  1  0.88933200  0.02366400  0.72223600  1
  C  397  1  0.99096700  0.77366300  0.94880100  1
  C  398  1  0.95892300  0.77413000  0.92539900  1
  C  399  1  0.96504200  0.75790700  0.89725900  1
  C  400  1  0.00378200  0.74148600  0.89180800  1
  C  401  1  0.03515700  0.74051800  0.91537800  1
  C  402  1  0.02918000  0.75667200  0.94306700  1
  C  404  1  0.89563000  0.77466800  0.87993100  1
  C  405  1  0.88952600  0.79079900  0.90757200  1
  C  415  1  0.99096700  0.22632500  0.91389600  1
  C  416  1  0.95889700  0.22591400  0.93728400  1
  C  417  1  0.96503300  0.24214700  0.96541700  1
  C  418  1  0.00380100  0.25853300  0.97086400  1
  C  419  1  0.03517500  0.25948300  0.94728500  1
  C  420  1  0.02920000  0.24329500  0.91961500  1
  C  422  1  0.89557800  0.22546400  0.98274700  1
  C  423  1  0.88945800  0.20932500  0.95511400  1
  C  433  1  0.49204700  0.51709600  0.65687400  1
  C  434  1  0.46179400  0.49252400  0.65696000  1
  C  435  1  0.47050800  0.46470800  0.67315200  1
  C  436  1  0.51014100  0.46075400  0.68892500  1
  C  437  1  0.53974900  0.48546900  0.68930500  1
  C  438  1  0.53120400  0.51283200  0.67319700  1
  C  440  1  0.40195600  0.44475500  0.65753700  1
  C  441  1  0.39333900  0.47206200  0.64141400  1
  C  451  1  0.49215400  0.48296200  0.20575800  1
  C  452  1  0.46191100  0.50754200  0.20565800  1
  C  453  1  0.47065700  0.53535300  0.18946800  1
  C  454  1  0.51030600  0.53929300  0.17370300  1
  C  455  1  0.53989500  0.51456400  0.17332800  1
  C  456  1  0.53130400  0.48719700  0.18941600  1
  C  458  1  0.40210800  0.55533600  0.20506500  1
  C  459  1  0.39345600  0.52803300  0.22118400  1
  C  469  1  0.49216000  0.27434000  0.44833700  1
  C  470  1  0.46191400  0.27420600  0.42376000  1
  C  471  1  0.47068300  0.25800600  0.39595700  1
  C  472  1  0.51035100  0.24226900  0.39202300  1
  C  473  1  0.53995000  0.24194000  0.41674500  1
  C  474  1  0.53134000  0.25803900  0.44410300  1
  C  476  1  0.40211100  0.27353700  0.37597500  1
  C  477  1  0.39344000  0.28966800  0.40326700  1
  C  487  1  0.49215000  0.72562000  0.41435400  1
  C  488  1  0.46190800  0.72574400  0.43893400  1
  C  489  1  0.47065700  0.74196700  0.46672300  1
  C  490  1  0.51028900  0.75775500  0.47063300  1
  C  491  1  0.53985300  0.75813500  0.44588500  1
  C  492  1  0.53128500  0.74198300  0.41855300  1
  C  494  1  0.40212700  0.72636500  0.48674500  1
  C  495  1  0.39348200  0.71020900  0.45946400  1
  C  505  1  0.77676800  0.22418700  0.16673300  1
  C  506  1  0.73970000  0.21578600  0.18390900  1
  C  507  1  0.70808600  0.23809600  0.19220100  1
  C  508  1  0.71390800  0.26954600  0.18432300  1
  C  509  1  0.75087900  0.27765900  0.16709400  1
  C  510  1  0.78200100  0.25559400  0.15893900  1
  C  512  1  0.66549100  0.19819400  0.21529900  1
  C  513  1  0.69721800  0.17641200  0.20770000  1
  C  523  1  0.77677400  0.77566600  0.69626300  1
  C  524  1  0.73989800  0.78414200  0.67892300  1
  C  525  1  0.70811500  0.76193500  0.67069800  1
  C  526  1  0.71357900  0.73050500  0.67878300  1
  C  527  1  0.75031900  0.72234500  0.69623800  1
  C  528  1  0.78160400  0.74430600  0.70435200  1
  C  530  1  0.66605700  0.80188100  0.64718800  1
  C  531  1  0.69795600  0.82355800  0.65472000  1
  C  541  1  0.77667700  0.76492000  0.15514000  1
  C  542  1  0.73978100  0.74753800  0.14678200  1
  C  543  1  0.70821900  0.73918600  0.16911000  1
  C  544  1  0.71390200  0.74724800  0.20052400  1
  C  545  1  0.75071400  0.76466000  0.20859100  1
  C  546  1  0.78179100  0.77287200  0.18651500  1
  C  548  1  0.66587300  0.71574500  0.12927700  1
  C  549  1  0.69756800  0.72338400  0.10748400  1
  C  559  1  0.77701700  0.23574100  0.70710800  1
  C  560  1  0.74016000  0.25310900  0.71557600  1
  C  561  1  0.70830300  0.26123600  0.69338500  1
  C  562  1  0.71365900  0.25296900  0.66199600  1
  C  563  1  0.75037800  0.23549500  0.65383500  1
  C  564  1  0.78174600  0.22749400  0.67577500  1
  C  566  1  0.66637100  0.28492500  0.73329800  1
  C  567  1  0.69835400  0.27750000  0.75494900  1
  C  577  1  0.20998200  0.76252300  0.17717800  1
  C  578  1  0.23991000  0.77042900  0.20046300  1
  C  579  1  0.27673000  0.75166000  0.20622300  1
  C  580  1  0.28319400  0.72401000  0.18940300  1
  C  581  1  0.25312500  0.71645200  0.16616200  1
  C  582  1  0.21683600  0.73502300  0.16050500  1
  C  584  1  0.30065300  0.78807600  0.24400800  1
  C  585  1  0.26384100  0.80617100  0.23864300  1
  C  595  1  0.21008100  0.23694200  0.68558300  1
  C  596  1  0.24009600  0.22912000  0.66232200  1
  C  597  1  0.27661100  0.24814800  0.65640000  1
  C  598  1  0.28269400  0.27596800  0.67301800  1
  C  599  1  0.25250900  0.28343200  0.69622200  1
  C  600  1  0.21652400  0.26461700  0.70204700  1
  C  602  1  0.30105600  0.21166100  0.61884200  1
  C  603  1  0.26454700  0.19330700  0.62437000  1
  C  613  1  0.20994800  0.24564600  0.16846200  1
  C  614  1  0.23995000  0.26886300  0.16047600  1
  C  615  1  0.27672500  0.27468200  0.17927400  1
  C  616  1  0.28310100  0.25797200  0.20699900  1
  C  617  1  0.25292900  0.23482800  0.21464900  1
  C  618  1  0.21668000  0.22911200  0.19605900  1
  C  620  1  0.30086400  0.31223900  0.14269000  1
  C  621  1  0.26408100  0.30683600  0.12457900  1
  C  631  1  0.21001800  0.75416200  0.69420200  1
  C  632  1  0.24005500  0.73094500  0.70209800  1
  C  633  1  0.27668800  0.72509100  0.68316700  1
  C  634  1  0.28287100  0.74176700  0.65539700  1
  C  635  1  0.25269600  0.76494800  0.64786000  1
  C  636  1  0.21658400  0.77069300  0.66657900  1
  C  638  1  0.30101100  0.68752300  0.71967300  1
  C  639  1  0.26436800  0.69296500  0.73792100  1
  N  367  1  0.93286600  0.94449900  0.17229600  1
  N  370  1  0.92102100  0.99783000  0.14133100  1
  N  375  1  0.01184700  0.93370400  0.20514100  1
  N  377  1  0.98701100  0.04330600  0.13921300  1
  N  385  1  0.93276200  0.05545300  0.69032000  1
  N  388  1  0.92104700  0.00212700  0.72132300  1
  N  393  1  0.01173200  0.06633600  0.65748800  1
  N  395  1  0.98713100  0.95673300  0.72345400  1
  N  403  1  0.93301100  0.75889100  0.87581300  1
  N  406  1  0.92119500  0.78987200  0.92913800  1
  N  411  1  0.01201500  0.72606600  0.86498300  1
  N  413  1  0.98718900  0.79198800  0.97459000  1
  N  421  1  0.93298800  0.24120600  0.98686100  1
  N  424  1  0.92114400  0.21020500  0.93355200  1
  N  429  1  0.01203500  0.27396300  0.99767900  1
  N  431  1  0.98717000  0.20800500  0.88810500  1
  N  439  1  0.44005900  0.44210500  0.67273800  1
  N  442  1  0.42338500  0.49479200  0.64179100  1
  N  447  1  0.52105700  0.43429600  0.70416500  1
  N  449  1  0.48594000  0.54264400  0.63853800  1
  N  457  1  0.44023000  0.55797000  0.18987400  1
  N  460  1  0.42348500  0.50529000  0.22081800  1
  N  465  1  0.52125100  0.56574900  0.15846700  1
  N  467  1  0.48597200  0.45741000  0.22408500  1
  N  475  1  0.44024900  0.25837200  0.37334500  1
  N  478  1  0.42346900  0.28933700  0.42600800  1
  N  483  1  0.52132600  0.22704400  0.36556800  1
  N  485  1  0.48595300  0.29267600  0.47387800  1
  N  493  1  0.44023600  0.74157400  0.48935000  1
  N  496  1  0.42349800  0.71056300  0.43671100  1
  N  501  1  0.52126400  0.77299100  0.49707900  1
  N  503  1  0.48598500  0.70727400  0.38881600  1
  N  511  1  0.67217400  0.22792700  0.20723100  1
  N  514  1  0.73278200  0.18595900  0.19216400  1
  N  519  1  0.68261500  0.29162500  0.18818000  1
  N  521  1  0.80927200  0.20310200  0.16202000  1
  N  529  1  0.67239700  0.77217500  0.65548600  1
  N  532  1  0.73333200  0.81394300  0.67042700  1
  N  537  1  0.68207800  0.70857600  0.67497700  1
  N  539  1  0.80951100  0.79658400  0.70080100  1
  N  547  1  0.67244500  0.72396800  0.15898000  1
  N  550  1  0.73296900  0.73913100  0.11698500  1
  N  555  1  0.68256300  0.74332200  0.22253900  1
  N  557  1  0.80913900  0.76972000  0.13404200  1
  N  565  1  0.67261000  0.27648800  0.70361600  1
  N  568  1  0.73369400  0.26174200  0.74534700  1
  N  573  1  0.68206500  0.25668900  0.64013900  1
  N  575  1  0.80978300  0.23118700  0.72801900  1
  N  583  1  0.30554900  0.76177100  0.22764400  1
  N  586  1  0.23512600  0.79681400  0.21701800  1
  N  591  1  0.32072900  0.70723000  0.19050500  1
  N  593  1  0.17220700  0.77863800  0.17410000  1
  N  601  1  0.30555300  0.23811500  0.63502300  1
  N  604  1  0.23571900  0.20258300  0.64595600  1
  N  609  1  0.32007000  0.29292900  0.67193200  1
  N  611  1  0.17266900  0.22042400  0.68887300  1
  N  619  1  0.30564200  0.29600200  0.16908500  1
  N  622  1  0.23529400  0.28528400  0.13399900  1
  N  627  1  0.32058500  0.25920300  0.22380300  1
  N  629  1  0.17229400  0.24245500  0.15221300  1
  N  637  1  0.30562900  0.70374100  0.69325300  1
  N  640  1  0.23554400  0.71453300  0.72859400  1
  N  645  1  0.32023300  0.74055000  0.63843700  1
  N  647  1  0.17245300  0.75733200  0.71058200  1
  O  42  1  0.02135000  0.28525900  0.04852600  1
  O  43  1  0.01286100  0.07926800  0.17495100  1
  O  44  1  0.17275100  0.18829900  0.14821900  1
  O  45  1  0.82734600  0.21629700  0.11127000  1
  O  87  1  0.02142000  0.71478200  0.81414500  1
  O  88  1  0.01302200  0.92079100  0.68770900  1
  O  89  1  0.17335300  0.81143800  0.71488300  1
  O  90  1  0.82751400  0.78379000  0.75164400  1
  O  132  1  0.02115500  0.88287100  0.21647900  1
  O  133  1  0.01300200  0.75625300  0.01056700  1
  O  134  1  0.17277900  0.78320800  0.12006700  1
  O  135  1  0.82731000  0.82043900  0.14721600  1
  O  177  1  0.02103700  0.11716800  0.64615600  1
  O  178  1  0.01312400  0.24370000  0.85213700  1
  O  179  1  0.17315300  0.21687200  0.74305800  1
  O  180  1  0.82734900  0.18020600  0.71547000  1
  O  222  1  0.53494300  0.78381600  0.54761400  1
  O  223  1  0.50976900  0.57942300  0.67405000  1
  O  224  1  0.67024600  0.71493100  0.62210000  1
  O  225  1  0.32355800  0.68710200  0.63036800  1
  O  267  1  0.53499800  0.21624700  0.31502600  1
  O  268  1  0.50989500  0.42062200  0.18861300  1
  O  269  1  0.67024900  0.28491300  0.24094300  1
  O  270  1  0.32371600  0.31258400  0.23200400  1
  O  312  1  0.53455500  0.38374600  0.71501400  1
  O  313  1  0.50985300  0.25722200  0.51069200  1
  O  314  1  0.67010000  0.30953400  0.64621400  1
  O  315  1  0.32310800  0.30132300  0.61860500  1
  O  357  1  0.53489100  0.61628100  0.14762800  1
  O  358  1  0.50977800  0.74276300  0.35200300  1
  O  359  1  0.67034900  0.69061400  0.21610200  1
  O  360  1  0.32350600  0.69857500  0.24385200  1
