# generated using pymatgen
data_H10C11O
_symmetry_space_group_name_H-M   'P 1'
_cell_length_a   22.26603275
_cell_length_b   22.26603275
_cell_length_c   22.26603275
_cell_angle_alpha   109.47122063
_cell_angle_beta   109.47122063
_cell_angle_gamma   109.47122063
_symmetry_Int_Tables_number   1
_chemical_formula_structural   H10C11O
_chemical_formula_sum   'H120 C132 O12'
_cell_volume   8497.80262307
_cell_formula_units_Z   12
loop_
 _symmetry_equiv_pos_site_id
 _symmetry_equiv_pos_as_xyz
  1  'x, y, z'
loop_
 _atom_site_type_symbol
 _atom_site_label
 _atom_site_symmetry_multiplicity
 _atom_site_fract_x
 _atom_site_fract_y
 _atom_site_fract_z
 _atom_site_occupancy
  C  1  1  0.14991450  0.70732050  0.43547200  1
  C  2  1  0.16714250  0.67631500  0.48893850  1
  C  3  1  0.19047800  0.69676900  0.39060100  1
  C  4  1  0.27590200  0.73239000  0.44045400  1
  C  7  1  0.28720500  0.69871600  0.49213300  1
  C  8  1  0.25161100  0.71254300  0.54241000  1
  C  13  1  0.28594450  0.79797850  0.58728600  1
  C  14  1  0.27172450  0.83355650  0.53743400  1
  C  17  1  0.30769650  0.81685450  0.48894700  1
  C  20  1  0.18637650  0.79318950  0.48575500  1
  C  23  1  0.83165000  0.28746700  0.53720100  1
  C  24  1  0.81440750  0.32368850  0.48895400  1
  C  25  1  0.79110650  0.20203050  0.48609800  1
  C  26  1  0.70567800  0.16643900  0.43627800  1
  C  29  1  0.69436800  0.20680600  0.39129500  1
  C  30  1  0.72993850  0.29267250  0.44070300  1
  C  35  1  0.69559100  0.30320550  0.49179550  1
  C  36  1  0.70982100  0.26758500  0.54160300  1
  C  39  1  0.67386750  0.18312250  0.48893300  1
  C  42  1  0.79517400  0.30127500  0.58659500  1
  C  45  1  0.70339300  0.55348450  0.24974950  1
  C  46  1  0.66715500  0.50001500  0.16527900  1
  C  47  1  0.78882850  0.59835650  0.28407100  1
  C  48  1  0.82439850  0.54849700  0.26984150  1
  C  51  1  0.78402100  0.49681900  0.18448900  1
  C  52  1  0.69815250  0.44654250  0.14803700  1
  C  57  1  0.68760450  0.40166550  0.18859700  1
  C  58  1  0.72323800  0.45152050  0.27402750  1
  C  61  1  0.80769950  0.50000900  0.30581550  1
  C  64  1  0.68957050  0.50320300  0.28533750  1
  C  67  1  0.28340350  0.45175250  0.72817100  1
  C  68  1  0.31440550  0.49999950  0.81263700  1
  C  69  1  0.29396200  0.50285450  0.69383650  1
  C  70  1  0.25835050  0.55267200  0.70805750  1
  C  73  1  0.29202300  0.59765500  0.79340800  1
  C  74  1  0.27818850  0.54825450  0.82987300  1
  C  79  1  0.19275000  0.49715900  0.78931400  1
  C  80  1  0.15717150  0.44734700  0.70388550  1
  C  83  1  0.17388500  0.50001400  0.67208900  1
  C  86  1  0.19753050  0.40235350  0.69258400  1
  C  89  1  0.44259350  0.73919700  0.28163150  1
  C  90  1  0.49082250  0.82366800  0.31263650  1
  C  91  1  0.49371150  0.70488050  0.29218300  1
  C  92  1  0.54351550  0.71911650  0.25656200  1
  C  95  1  0.58848650  0.80446850  0.29023600  1
  C  96  1  0.53906650  0.84091850  0.27641200  1
  C  101  1  0.48796000  0.80035700  0.19097300  1
  C  102  1  0.43816700  0.71492750  0.15539450  1
  C  105  1  0.49084600  0.68314450  0.17209750  1
  C  108  1  0.39318700  0.70360950  0.19576250  1
  C  111  1  0.54418500  0.26077850  0.70148950  1
  C  112  1  0.49071950  0.17631400  0.66526850  1
  C  113  1  0.58908200  0.29511250  0.78692750  1
  C  114  1  0.53924900  0.28088850  0.82252350  1
  C  117  1  0.48756950  0.19553650  0.78215400  1
  C  118  1  0.43726800  0.15907750  0.69628750  1
  C  123  1  0.39239150  0.19963900  0.68575750  1
  C  124  1  0.44224050  0.28506550  0.72137800  1
  C  127  1  0.49075350  0.31686050  0.80584000  1
  C  130  1  0.49390250  0.29636950  0.68768600  1
  C  265  1  0.30400450  0.91631250  0.58010900  1
  C  266  1  0.34692200  0.95893500  0.65767200  1
  C  267  1  0.38613750  0.03592050  0.69431000  1
  C  268  1  0.38593500  0.07602600  0.65630800  1
  C  269  1  0.33817650  0.03336900  0.57844750  1
  C  272  1  0.29746800  0.95599300  0.54243800  1
  C  276  1  0.67754300  0.27798000  0.59207800  1
  C  277  1  0.63456300  0.31256350  0.59173350  1
  C  278  1  0.59531350  0.30994350  0.62946700  1
  C  279  1  0.59550350  0.27212100  0.66975250  1
  C  280  1  0.64328700  0.24204900  0.67487400  1
  C  283  1  0.68407950  0.24684550  0.63829900  1
  C  287  1  0.66562250  0.08368550  0.38578900  1
  C  288  1  0.70056900  0.04107000  0.38615400  1
  C  289  1  0.66023150  0.96408550  0.34842500  1
  C  290  1  0.58212550  0.92396800  0.30811750  1
  C  291  1  0.54691850  0.96662050  0.30300400  1
  C  294  1  0.58827000  0.04398900  0.33954600  1
  C  298  1  0.31599350  0.72199500  0.39779150  1
  C  299  1  0.28105350  0.68736550  0.32022400  1
  C  300  1  0.32140750  0.68998200  0.28359450  1
  C  301  1  0.39951750  0.72781900  0.32160550  1
  C  302  1  0.43471300  0.75790800  0.39946500  1
  C  305  1  0.39334550  0.75311450  0.43546400  1
  C  309  1  0.71282900  0.40885050  0.31410950  1
  C  310  1  0.67820450  0.33128700  0.27917550  1
  C  311  1  0.68078600  0.29464900  0.31952200  1
  C  312  1  0.71859450  0.33265300  0.39763050  1
  C  313  1  0.74868600  0.41051400  0.43283200  1
  C  316  1  0.74397900  0.44652000  0.39146600  1
  C  320  1  0.07441900  0.39687000  0.66380800  1
  C  321  1  0.03178450  0.39721850  0.69873700  1
  C  322  1  0.95480050  0.35948650  0.65838400  1
  C  323  1  0.91470650  0.31920050  0.58027800  1
  C  324  1  0.95736650  0.31407400  0.54508150  1
  C  327  1  0.03473550  0.35065050  0.58645400  1
  C  331  1  0.26877100  0.60314900  0.67578300  1
  C  332  1  0.30334133  0.60279950  0.63279083  1
  C  333  1  0.30076950  0.64053200  0.59356950  1
  C  334  1  0.26296750  0.68083700  0.59375750  1
  C  335  1  0.23287000  0.68595050  0.64152150  1
  C  338  1  0.23766750  0.64939700  0.68233650  1
  C  342  1  0.90715100  0.59116300  0.30210100  1
  C  343  1  0.94978450  0.66872750  0.34505700  1
  C  344  1  0.02676550  0.70535550  0.38430100  1
  C  345  1  0.06686050  0.66734550  0.38412700  1
  C  346  1  0.02420200  0.58948850  0.33635450  1
  C  349  1  0.94683300  0.55349000  0.29556000  1
  C  353  1  0.38768750  0.67484150  0.07264000  1
  C  354  1  0.38798500  0.70978200  0.03001600  1
  C  355  1  0.35021600  0.66943350  0.95302950  1
  C  356  1  0.30990700  0.59132450  0.91292550  1
  C  357  1  0.30480850  0.55612450  0.95558600  1
  C  360  1  0.34147450  0.59748850  0.03295800  1
  C  364  1  0.39956800  0.32514750  0.71098850  1
  C  365  1  0.32200300  0.29021450  0.67640050  1
  C  366  1  0.28537450  0.33056850  0.67901800  1
  C  367  1  0.32338150  0.40867550  0.71682400  1
  C  368  1  0.40123950  0.44387000  0.74690550  1
  C  371  1  0.43723800  0.40250150  0.74211650  1
  C  375  1  0.58194400  0.31315450  0.90527550  1
  C  376  1  0.65950800  0.35612550  0.94788750  1
  C  377  1  0.69615400  0.39537750  0.02487150  1
  C  378  1  0.65816300  0.39519100  0.06498500  1
  C  379  1  0.58030150  0.34742400  0.02233550  1
  C  382  1  0.54428800  0.30658000  0.94496800  1
  C  386  1  0.59400850  0.68685700  0.26696650  1
  C  387  1  0.59369450  0.64391250  0.30158800  1
  C  388  1  0.63142750  0.60466500  0.29896850  1
  C  389  1  0.67168150  0.60482300  0.26111250  1
  C  390  1  0.67680250  0.65260500  0.23103750  1
  C  393  1  0.64023150  0.69340100  0.23583650  1
  H  5  1  0.17932800  0.72028350  0.35490150  1
  H  6  1  0.16856800  0.63848500  0.35494600  1
  H  9  1  0.26418100  0.63955550  0.45769750  1
  H  10  1  0.34603650  0.72237000  0.52798150  1
  H  11  1  0.14525350  0.61715900  0.45879950  1
  H  12  1  0.13812050  0.68456350  0.51907000  1
  H  15  1  0.34515350  0.82252100  0.62298650  1
  H  16  1  0.26331250  0.81172750  0.62293700  1
  H  18  1  0.36713350  0.84515850  0.52576400  1
  H  19  1  0.29919100  0.83947700  0.45213300  1
  H  21  1  0.16164900  0.80460700  0.52018800  1
  H  22  1  0.17419000  0.81617800  0.44990800  1
  H  27  1  0.80226000  0.17749200  0.52077100  1
  H  28  1  0.81302300  0.18828750  0.44972950  1
  H  31  1  0.71740350  0.19540000  0.35516550  1
  H  32  1  0.63553400  0.18380700  0.35610800  1
  H  33  1  0.83630500  0.31544700  0.45169500  1
  H  34  1  0.84341550  0.38284550  0.52622300  1
  H  37  1  0.63637750  0.27967950  0.45711500  1
  H  38  1  0.71820700  0.36148750  0.52816950  1
  H  40  1  0.61443100  0.16049000  0.45779300  1
  H  41  1  0.68237800  0.15481950  0.52006750  1
  H  43  1  0.81988600  0.36043600  0.62273200  1
  H  44  1  0.80736750  0.27762450  0.62177800  1
  H  49  1  0.81337800  0.63405600  0.34328500  1
  H  50  1  0.80257500  0.63400550  0.26143750  1
  H  53  1  0.79543700  0.53125300  0.15976200  1
  H  54  1  0.80700450  0.46097000  0.17229650  1
  H  55  1  0.67540600  0.53015150  0.13625850  1
  H  56  1  0.60800250  0.46988300  0.14339450  1
  H  59  1  0.71111550  0.36596550  0.17744400  1
  H  60  1  0.62932200  0.36601600  0.16669900  1
  H  62  1  0.83031850  0.46319000  0.29730350  1
  H  63  1  0.83600800  0.53682500  0.36525200  1
  H  65  1  0.63040950  0.46877150  0.26232300  1
  H  66  1  0.71323600  0.53905000  0.34417300  1
  H  71  1  0.27044600  0.46817950  0.63462550  1
  H  72  1  0.35224800  0.53922300  0.71646400  1
  H  75  1  0.35118650  0.63378850  0.81813400  1
  H  76  1  0.26837450  0.63284300  0.80559650  1
  H  77  1  0.37356350  0.53726050  0.84165600  1
  H  78  1  0.30615050  0.46273650  0.83452900  1
  H  81  1  0.16821550  0.53183700  0.80046550  1
  H  82  1  0.17899100  0.46078450  0.81122150  1
  H  84  1  0.14558600  0.53115350  0.68059450  1
  H  85  1  0.15126150  0.46887500  0.61265150  1
  H  87  1  0.18611200  0.36622200  0.71561200  1
  H  88  1  0.17454650  0.36717300  0.63375450  1
  H  93  1  0.45905050  0.64566600  0.26866750  1
  H  94  1  0.53008900  0.72751250  0.35046950  1
  H  97  1  0.62462400  0.82919250  0.34939750  1
  H  98  1  0.62366400  0.81666400  0.26658200  1
  H  99  1  0.52808950  0.85268750  0.37179400  1
  H  100  1  0.45355050  0.84555000  0.30438650  1
  H  103  1  0.52263100  0.81151650  0.16643150  1
  H  104  1  0.45157600  0.82225600  0.17722400  1
  H  106  1  0.52198000  0.69166050  0.14379750  1
  H  107  1  0.45971750  0.62370350  0.14947500  1
  H  109  1  0.35704000  0.72662450  0.18434650  1
  H  110  1  0.35801600  0.64477500  0.17277500  1
  H  115  1  0.62477350  0.35432300  0.81146350  1
  H  116  1  0.62473950  0.27248550  0.80066700  1
  H  119  1  0.52200750  0.17081000  0.79355750  1
  H  120  1  0.45173650  0.18334900  0.80515450  1
  H  121  1  0.52085850  0.14729250  0.67350700  1
  H  122  1  0.46056950  0.15442600  0.60611450  1
  H  125  1  0.35670800  0.18848850  0.70928750  1
  H  126  1  0.35672350  0.17773050  0.62747700  1
  H  128  1  0.45395150  0.30835550  0.82847700  1
  H  129  1  0.52757100  0.37629700  0.83414300  1
  H  131  1  0.45945300  0.27334550  0.62852650  1
  H  132  1  0.52974750  0.35520300  0.71133650  1
  H  270  1  0.41766350  0.06129250  0.74994700  1
  H  271  1  0.35381200  0.93520000  0.68956100  1
  H  273  1  0.26613600  0.92851700  0.48642800  1
  H  275  1  0.34757950  0.04819600  0.50136150  1
  H  281  1  0.56377200  0.33403950  0.62330550  1
  H  282  1  0.62767100  0.33756000  0.56110700  1
  H  284  1  0.71537600  0.22213050  0.64211750  1
  H  286  1  0.63382400  0.15551100  0.68020200  1
  H  292  1  0.69050450  0.93872200  0.35459850  1
  H  293  1  0.75619300  0.06482050  0.41679550  1
  H  295  1  0.55972050  0.07145050  0.33575700  1
  H  297  1  0.45504500  0.95180650  0.29767350  1
  H  303  1  0.29114650  0.66588200  0.22796050  1
  H  304  1  0.22543000  0.66236250  0.28833750  1
  H  306  1  0.42187900  0.77784250  0.49147650  1
  H  308  1  0.52658050  0.84444950  0.47653800  1
  H  314  1  0.65667800  0.23901250  0.28925650  1
  H  315  1  0.65320500  0.29939900  0.22355100  1
  H  317  1  0.76865550  0.50252800  0.41999750  1
  H  319  1  0.83518000  0.48759700  0.52473900  1
  H  325  1  0.92942200  0.36565000  0.68864200  1
  H  326  1  0.05552100  0.42784550  0.75436150  1
  H  328  1  0.06221000  0.34682900  0.55791900  1
  H  330  1  0.94257550  0.30874650  0.45321500  1
  H  336  1  0.32487150  0.63436450  0.56203700  1
  H  337  1  0.32836250  0.57216300  0.62593550  1
  H  339  1  0.21291450  0.65319200  0.71359550  1
  H  341  1  0.14633000  0.69128550  0.63204050  1
  H  347  1  0.05213950  0.76099250  0.41584100  1
  H  348  1  0.92604550  0.70061300  0.35193950  1
  H  350  1  0.91935400  0.49747800  0.26427500  1
  H  352  1  0.03899000  0.51241200  0.34581800  1
  H  358  1  0.35636950  0.69969750  0.92765600  1
  H  359  1  0.41861100  0.76540600  0.05375200  1
  H  361  1  0.33762050  0.56895700  0.06043550  1
  H  363  1  0.29938900  0.46421300  0.94075800  1
  H  369  1  0.22973700  0.30031300  0.65492000  1
  H  370  1  0.29011600  0.23459450  0.65140750  1
  H  372  1  0.49325150  0.43103500  0.76683450  1
  H  374  1  0.47831450  0.53574150  0.83344100  1
  H  380  1  0.75179050  0.42691550  0.05023800  1
  H  381  1  0.69138050  0.36301650  0.92413700  1
  H  383  1  0.48827300  0.27535500  0.91750500  1
  H  385  1  0.50324400  0.35691550  0.03713950  1
  H  391  1  0.62526400  0.57312950  0.32306850  1
  H  392  1  0.56308000  0.63703450  0.32659850  1
  H  394  1  0.64403850  0.72468650  0.21111100  1
  H  396  1  0.68212000  0.64313100  0.14449300  1
  O  274  1  0.32880300  0.06382100  0.53446700  1
  O  285  1  0.65262000  0.20738600  0.71464500  1
  O  296  1  0.47247950  0.93616100  0.26323550  1
  O  307  1  0.50914950  0.79257900  0.44345550  1
  O  318  1  0.78329850  0.45449550  0.50726500  1
  O  329  1  0.92692550  0.27430450  0.47064700  1
  O  340  1  0.19820400  0.72572350  0.65083450  1
  O  351  1  0.05464300  0.54549500  0.32703000  1
  O  362  1  0.26498700  0.48169450  0.92513650  1
  O  373  1  0.44523250  0.51830400  0.78156650  1
  O  384  1  0.53632300  0.33812200  0.05279500  1
  O  395  1  0.71656600  0.66192400  0.19636500  1
