# generated using pymatgen
data_H9C11N4
_symmetry_space_group_name_H-M   'P 1'
_cell_length_a   9.95900000
_cell_length_b   22.90502500
_cell_length_c   22.90500000
_cell_angle_alpha   119.99989168
_cell_angle_beta   90.00000000
_cell_angle_gamma   90.00000000
_symmetry_Int_Tables_number   1
_chemical_formula_structural   H9C11N4
_chemical_formula_sum   'H54 C66 N24'
_cell_volume   4524.88873250
_cell_formula_units_Z   6
loop_
 _symmetry_equiv_pos_site_id
 _symmetry_equiv_pos_as_xyz
  1  'x, y, z'
loop_
 _atom_site_type_symbol
 _atom_site_label
 _atom_site_symmetry_multiplicity
 _atom_site_fract_x
 _atom_site_fract_y
 _atom_site_fract_z
 _atom_site_occupancy
  C  1  1  0.04495700  0.95920500  0.48050500  1
  C  2  1  0.06095400  0.91864800  0.51204300  1
  C  3  1  0.00552250  0.92334350  0.41145550  1
  C  49  1  0.99591700  0.85441150  0.48445050  1
  C  50  1  0.94079150  0.82497300  0.41817900  1
  C  51  1  0.96344150  0.85568500  0.37849800  1
  C  52  1  0.98912050  0.81400500  0.30836300  1
  C  53  1  0.76321200  0.83468200  0.26811100  1
  C  55  1  0.01583600  0.81044250  0.51053050  1
  C  91  1  0.05936100  0.03179150  0.51521450  1
  C  92  1  0.03190400  0.06927050  0.58565950  1
  C  93  1  0.02989400  0.14020700  0.62326700  1
  C  94  1  0.03113200  0.17687650  0.58814350  1
  C  95  1  0.05858250  0.14184150  0.51736150  1
  C  96  1  0.08634500  0.07100000  0.48315900  1
  C  108  1  0.02720300  0.47552800  0.96152800  1
  C  109  1  0.99101600  0.50634050  0.92310950  1
  C  110  1  0.94528000  0.46907800  0.85624500  1
  C  111  1  0.91554700  0.39963550  0.82960650  1
  C  112  1  0.97440200  0.36480750  0.86056150  1
  C  113  1  0.04463700  0.40359600  0.92307400  1
  C  116  1  0.02981300  0.51480700  0.03424900  1
  C  117  1  0.04388800  0.58704100  0.07287500  1
  C  118  1  0.98564300  0.62419800  0.13874300  1
  C  119  1  0.93760250  0.58797300  0.17021200  1
  C  120  1  0.96576400  0.51822150  0.14071450  1
  C  121  1  0.00297500  0.48254600  0.07247500  1
  C  134  1  0.03446400  0.47389750  0.51525450  1
  C  135  1  0.00523300  0.40352300  0.47974000  1
  C  136  1  0.96030900  0.36779200  0.51124800  1
  C  137  1  0.93431300  0.40479000  0.58158900  1
  C  138  1  0.98621500  0.47162550  0.62058650  1
  C  139  1  0.04645300  0.50374750  0.58716250  1
  C  142  1  0.03816000  0.51096650  0.47944850  1
  C  143  1  0.05816000  0.48018850  0.40779050  1
  C  144  1  0.99896750  0.50971150  0.37172750  1
  C  145  1  0.94592100  0.57628550  0.40884250  1
  C  146  1  0.97142150  0.61544400  0.47894200  1
  C  147  1  0.00809600  0.58134600  0.51338300  1
  C  160  1  0.88982000  0.79695700  0.25765400  1
  C  161  1  0.09926000  0.76905200  0.29016100  1
  C  163  1  0.00676600  0.69424800  0.18197200  1
  C  167  1  0.90317500  0.45370100  0.19865400  1
  C  168  1  0.99592700  0.49125950  0.18317850  1
  C  169  1  0.10360800  0.52172350  0.22902550  1
  C  171  1  0.02045700  0.48404650  0.30199650  1
  C  174  1  0.77942800  0.42233000  0.15983900  1
  C  178  1  0.90008100  0.73667800  0.54051800  1
  C  179  1  0.99872800  0.68546650  0.50735350  1
  C  180  1  0.10737400  0.70250650  0.47861450  1
  C  184  1  0.77440850  0.72745250  0.56935150  1
  C  188  1  0.90446500  0.19047700  0.73097700  1
  C  189  1  0.02794800  0.17376050  0.69490350  1
  C  190  1  0.13721400  0.21775150  0.72819850  1
  C  192  1  0.99778300  0.29480500  0.81832600  1
  C  195  1  0.77625500  0.15398550  0.70443850  1
  C  199  1  0.88808400  0.53090250  0.79468450  1
  C  200  1  0.97698900  0.49255150  0.81101450  1
  C  201  1  0.08225500  0.45876600  0.76451500  1
  C  203  1  0.00494400  0.49609250  0.69029450  1
  C  206  1  0.76740800  0.56604350  0.83435650  1
  C  210  1  0.89921400  0.24601300  0.46129700  1
  C  211  1  0.99558300  0.29845100  0.48127500  1
  C  212  1  0.12582800  0.28420500  0.49593600  1
  C  214  1  0.05549600  0.17856800  0.48260400  1
  C  217  1  0.75906200  0.25066100  0.44256400  1
  H  4  1  0.99755200  0.94704650  0.38397150  1
  H  31  1  0.20759500  0.97637100  0.57819400  1
  H  37  1  0.16175600  0.91234500  0.58712300  1
  H  38  1  0.76073000  0.88164700  0.31631300  1
  H  54  1  0.75152500  0.84707100  0.22816600  1
  H  97  1  0.00998800  0.04486600  0.61154500  1
  H  101  1  0.20200200  0.00096450  0.40707650  1
  H  102  1  0.18323300  0.07036750  0.40374917  1
  H  104  1  0.83210700  0.74997200  0.41835300  1
  H  105  1  0.81404350  0.75397800  0.34991900  1
  H  106  1  0.99922100  0.27164450  0.60161150  1
  H  107  1  0.97338250  0.26760100  0.66912900  1
  H  114  1  0.98687800  0.55742800  0.94430200  1
  H  123  1  0.99986933  0.43135400  0.05040600  1
  H  126  1  0.19407100  0.39957350  0.98207150  1
  H  127  1  0.14669400  0.32467350  0.92149650  1
  H  128  1  0.13662300  0.66803250  0.07468350  1
  H  129  1  0.18012000  0.59454550  0.01042150  1
  H  130  1  0.82554600  0.66198900  0.24411900  1
  H  131  1  0.81638600  0.59022850  0.24243550  1
  H  132  1  0.79860150  0.32569500  0.75648200  1
  H  133  1  0.78948900  0.39745800  0.75838000  1
  H  140  1  0.00167000  0.37707100  0.42839800  1
  H  149  1  0.00185550  0.60894500  0.56459000  1
  H  152  1  0.18799300  0.57325750  0.59926950  1
  H  153  1  0.14134200  0.57900150  0.67078450  1
  H  154  1  0.16260000  0.40615600  0.32747900  1
  H  155  1  0.20092600  0.41316350  0.40063550  1
  H  156  1  0.83658250  0.57667250  0.33402350  1
  H  157  1  0.82090800  0.64527200  0.40658800  1
  H  158  1  0.83120900  0.40114500  0.65700700  1
  H  159  1  0.81556600  0.33304300  0.58393900  1
  H  165  1  0.17069200  0.77520700  0.32491400  1
  H  166  1  0.67846400  0.80357650  0.26623450  1
  H  173  1  0.16969800  0.55306150  0.22386450  1
  H  175  1  0.77384300  0.42428900  0.11331400  1
  H  176  1  0.69172700  0.44813600  0.19055100  1
  H  177  1  0.77607200  0.36948850  0.14658150  1
  H  183  1  0.17778200  0.66718500  0.44982100  1
  H  185  1  0.77197800  0.67980000  0.56923700  1
  H  186  1  0.68870800  0.72894150  0.54042350  1
  H  187  1  0.76434100  0.76818400  0.62144100  1
  H  194  1  0.22675300  0.21158300  0.70384500  1
  H  196  1  0.78882500  0.10634650  0.65763450  1
  H  197  1  0.70654900  0.18531050  0.69526550  1
  H  198  1  0.73204800  0.14305100  0.74152800  1
  H  205  1  0.14560900  0.42684150  0.77030050  1
  H  207  1  0.76051000  0.56521650  0.88144250  1
  H  208  1  0.67746800  0.54227500  0.80465200  1
  H  209  1  0.77001400  0.61861800  0.84666700  1
  H  216  1  0.19816600  0.32083100  0.51501900  1
  H  218  1  0.74036300  0.29696600  0.44133000  1
  H  219  1  0.68982100  0.24871500  0.47847900  1
  H  220  1  0.73813800  0.20813100  0.39248700  1
  N  5  1  0.14567100  0.93915500  0.56574600  1
  N  98  1  0.00242300  0.24449100  0.62273400  1
  N  99  1  0.86519150  0.76756250  0.39066550  1
  N  100  1  0.15431800  0.04330800  0.42332000  1
  N  115  1  0.83614000  0.36998300  0.77330700  1
  N  122  1  0.86378350  0.61794750  0.22823050  1
  N  124  1  0.13196400  0.37304350  0.94541950  1
  N  125  1  0.12132000  0.61969650  0.04896250  1
  N  141  1  0.86131200  0.37556350  0.61074550  1
  N  148  1  0.87073850  0.60410050  0.37916450  1
  N  150  1  0.12613900  0.55909150  0.62267450  1
  N  151  1  0.14201400  0.42607800  0.37512100  1
  N  162  1  0.10159900  0.71081550  0.23029650  1
  N  164  1  0.90071150  0.73726400  0.19829300  1
  N  170  1  0.10889600  0.51961250  0.28689850  1
  N  172  1  0.91686000  0.45397100  0.25817900  1
  N  181  1  0.10965400  0.76164400  0.47870400  1
  N  182  1  0.91076800  0.79531950  0.53876450  1
  N  191  1  0.11769400  0.27709950  0.78593250  1
  N  193  1  0.89445800  0.25070450  0.78938950  1
  N  202  1  0.08933900  0.45940200  0.70593100  1
  N  204  1  0.90326000  0.52902450  0.73444350  1
  N  213  1  0.14895250  0.22767900  0.49949000  1
  N  215  1  0.93167100  0.19029250  0.46540550  1
