# generated using pymatgen
data_H13(C8N)2
_symmetry_space_group_name_H-M   'P 1'
_cell_length_a   20.01762729
_cell_length_b   20.01762729
_cell_length_c   23.56340909
_cell_angle_alpha   115.13552686
_cell_angle_beta   115.13552686
_cell_angle_gamma   90.00000000
_symmetry_Int_Tables_number   1
_chemical_formula_structural   H13(C8N)2
_chemical_formula_sum   'H104 C128 N16'
_cell_volume   7548.60858052
_cell_formula_units_Z   8
loop_
 _symmetry_equiv_pos_site_id
 _symmetry_equiv_pos_as_xyz
  1  'x, y, z'
loop_
 _atom_site_type_symbol
 _atom_site_label
 _atom_site_symmetry_multiplicity
 _atom_site_fract_x
 _atom_site_fract_y
 _atom_site_fract_z
 _atom_site_occupancy
  C  1  1  0.65139175  0.97137225  0.75093550  1
  C  2  1  0.65026575  0.92016525  0.68603250  1
  C  3  1  0.70726150  0.87759200  0.68816800  1
  C  4  1  0.75000375  0.87231825  0.75086950  1
  C  5  1  0.74470475  0.91505975  0.81355350  1
  C  6  1  0.70249025  0.97235475  0.81580100  1
  C  7  1  0.59093000  0.91268050  0.62210850  1
  C  8  1  0.71016875  0.03179275  0.87976600  1
  C  10  1  0.60117525  0.02192125  0.75097150  1
  C  11  1  0.53744525  0.00836875  0.68609150  1
  C  12  1  0.48266450  0.05317700  0.68825850  1
  C  13  1  0.50271475  0.12111625  0.75102250  1
  C  14  1  0.57066150  0.14092050  0.81369950  1
  C  15  1  0.61500175  0.08577175  0.81587650  1
  C  16  1  0.53279775  0.95196825  0.62212150  1
  C  18  1  0.67123350  0.09016650  0.87980050  1
  C  121  1  0.40140175  0.27175775  0.25069350  1
  C  122  1  0.45718850  0.33181200  0.31608000  1
  C  123  1  0.50347550  0.38490700  0.31534300  1
  C  124  1  0.50100300  0.37128850  0.25072300  1
  C  125  1  0.45000075  0.30915725  0.18609250  1
  C  126  1  0.39611275  0.26216275  0.18532250  1
  C  127  1  0.46425850  0.33725300  0.38017400  1
  C  128  1  0.33745675  0.20516875  0.12121400  1
  C  130  1  0.35091750  0.22132150  0.25067800  1
  C  131  1  0.36048700  0.22662900  0.31604600  1
  C  132  1  0.31343950  0.17278850  0.31527800  1
  C  133  1  0.25129925  0.12180175  0.25064200  1
  C  134  1  0.23770350  0.11932400  0.18602800  1
  C  135  1  0.29084125  0.16556175  0.18529100  1
  C  136  1  0.41751600  0.28525250  0.38015700  1
  C  138  1  0.28542525  0.15846225  0.12119750  1
  C  241  1  0.99566625  0.02923875  0.98001100  1
  C  242  1  0.92277700  0.98244300  0.94096800  1
  C  243  1  0.88615300  0.96824150  0.97576250  1
  C  244  1  0.92552450  0.00091500  0.05068650  1
  C  245  1  0.99877900  0.04664300  0.08967750  1
  C  246  1  0.03457575  0.06184475  0.05483950  1
  C  251  1  0.81012975  0.91801325  0.93830350  1
  C  254  1  0.11133875  0.11141025  0.09705600  1
  C  257  1  0.48611925  0.19324575  0.98013450  1
  C  258  1  0.52001825  0.20097075  0.94111850  1
  C  259  1  0.59145625  0.24994525  0.97594150  1
  C  260  1  0.62699175  0.29217175  0.05086550  1
  C  261  1  0.59267800  0.28546250  0.08983100  1
  C  262  1  0.52201875  0.23545025  0.05496300  1
  C  267  1  0.63009775  0.26265175  0.93851350  1
  C  270  1  0.48742825  0.22810775  0.09715250  1
  C  273  1  0.59348525  0.62678425  0.52142900  1
  C  274  1  0.64028075  0.69968975  0.56063350  1
  C  275  1  0.65457875  0.73649175  0.52601100  1
  C  276  1  0.62199175  0.69728525  0.45109050  1
  C  277  1  0.57626325  0.62401275  0.41193650  1
  C  278  1  0.56095025  0.58804625  0.44660350  1
  C  283  1  0.70476950  0.81257550  0.56365900  1
  C  286  1  0.51133625  0.51129225  0.40422450  1
  C  289  1  0.42954075  0.13707575  0.52137100  1
  C  290  1  0.42199225  0.10343725  0.56063600  1
  C  291  1  0.37312700  0.03199350  0.52607400  1
  C  292  1  0.33080200  0.99619550  0.45115300  1
  C  293  1  0.33732850  0.03025200  0.41193550  1
  C  294  1  0.38725725  0.10090325  0.44654400  1
  C  299  1  0.36063575  0.99362825  0.56379600  1
  C  302  1  0.39444375  0.13522175  0.40410850  1
  C  497  1  0.19217675  0.43058725  0.75093550  1
  C  498  1  0.19105090  0.37938010  0.68603250  1
  C  499  1  0.24804665  0.33680685  0.68816800  1
  C  500  1  0.29078890  0.33153310  0.75086950  1
  C  501  1  0.28548990  0.37427460  0.81355350  1
  C  502  1  0.24327540  0.43156960  0.81580100  1
  C  503  1  0.13171500  0.37189550  0.62210850  1
  C  504  1  0.25095375  0.49100775  0.87976600  1
  C  506  1  0.14196025  0.48113625  0.75097150  1
  C  507  1  0.07823025  0.46758375  0.68609150  1
  C  508  1  0.02344950  0.51239200  0.68825850  1
  C  509  1  0.04349975  0.58033125  0.75102250  1
  C  510  1  0.11144650  0.60013550  0.81369950  1
  C  511  1  0.15578675  0.54498675  0.81587650  1
  C  512  1  0.07358275  0.41118325  0.62212150  1
  C  514  1  0.21201850  0.54938150  0.87980050  1
  C  617  1  0.94218675  0.73097275  0.25069350  1
  C  618  1  0.99797350  0.79102700  0.31608000  1
  C  619  1  0.04426050  0.84412200  0.31534300  1
  C  620  1  0.04178800  0.83050350  0.25072300  1
  C  621  1  0.99078575  0.76837225  0.18609250  1
  C  622  1  0.93689775  0.72137775  0.18532250  1
  C  623  1  0.00504350  0.79646800  0.38017400  1
  C  624  1  0.87824175  0.66438375  0.12121400  1
  C  626  1  0.89170250  0.68053650  0.25067800  1
  C  627  1  0.90127200  0.68584400  0.31604600  1
  C  628  1  0.85422450  0.63200350  0.31527800  1
  C  629  1  0.79208425  0.58101675  0.25064200  1
  C  630  1  0.77848850  0.57853900  0.18602800  1
  C  631  1  0.83162625  0.62477675  0.18529100  1
  C  632  1  0.95830100  0.74446750  0.38015700  1
  C  634  1  0.82621025  0.61767725  0.12119750  1
  C  737  1  0.53645125  0.48845375  0.98001100  1
  C  738  1  0.46356200  0.44165800  0.94096800  1
  C  739  1  0.42693816  0.42745634  0.97576250  1
  C  740  1  0.46630950  0.46013000  0.05068650  1
  C  741  1  0.53956400  0.50585800  0.08967750  1
  C  742  1  0.57536075  0.52105975  0.05483950  1
  C  747  1  0.35091490  0.37722810  0.93830350  1
  C  750  1  0.65212375  0.57062525  0.09705600  1
  C  753  1  0.02690425  0.65246075  0.98013450  1
  C  754  1  0.06080325  0.66018575  0.94111850  1
  C  755  1  0.13224125  0.70916025  0.97594150  1
  C  756  1  0.16777675  0.75138675  0.05086550  1
  C  757  1  0.13346300  0.74467750  0.08983100  1
  C  758  1  0.06280375  0.69466525  0.05496300  1
  C  763  1  0.17088275  0.72186675  0.93851350  1
  C  766  1  0.02821325  0.68732275  0.09715250  1
  C  769  1  0.13427025  0.08599925  0.52142900  1
  C  770  1  0.18106575  0.15890475  0.56063350  1
  C  771  1  0.19536391  0.19570659  0.52601100  1
  C  772  1  0.16277675  0.15650025  0.45109050  1
  C  773  1  0.11704825  0.08322775  0.41193650  1
  C  774  1  0.10173525  0.04726125  0.44660350  1
  C  779  1  0.24555465  0.27179035  0.56365900  1
  C  782  1  0.05212125  0.97050725  0.40422450  1
  C  785  1  0.97032575  0.59629075  0.52137100  1
  C  786  1  0.96277725  0.56265225  0.56063600  1
  C  787  1  0.91391200  0.49120850  0.52607400  1
  C  788  1  0.87158700  0.45541050  0.45115300  1
  C  789  1  0.87811350  0.48946700  0.41193550  1
  C  790  1  0.92804225  0.56011825  0.44654400  1
  C  795  1  0.90142075  0.45284325  0.56379600  1
  C  798  1  0.93522875  0.59443675  0.40410850  1
  H  9  1  0.78615625  0.83604275  0.75085500  1
  H  17  1  0.46662475  0.15745275  0.75106100  1
  H  19  1  0.49167450  0.94419950  0.57431800  1
  H  20  1  0.58447350  0.87297350  0.57427750  1
  H  21  1  0.67936025  0.13157775  0.92761100  1
  H  22  1  0.74992175  0.03820675  0.92755500  1
  H  24  1  0.71826600  0.84571000  0.84437000  1
  H  26  1  0.62811125  0.24102925  0.84461450  1
  H  28  1  0.38255550  0.99622650  0.65799400  1
  H  30  1  0.77692075  0.90435875  0.65776350  1
  H  129  1  0.53721300  0.40747700  0.25073450  1
  H  137  1  0.21508925  0.08560775  0.25062750  1
  H  139  1  0.42453925  0.29281975  0.42817550  1
  H  140  1  0.50519800  0.37774200  0.42820500  1
  H  141  1  0.24492275  0.11753775  0.07316850  1
  H  142  1  0.32991800  0.19811900  0.07319450  1
  H  144  1  0.41077250  0.29879950  0.08749600  1
  H  146  1  0.17837600  0.03109450  0.08741450  1
  H  148  1  0.32388800  0.21200000  0.41390050  1
  H  150  1  0.59165400  0.44427050  0.41397450  1
  H  247  1  0.90122350  0.99105250  0.07764400  1
  H  248  1  0.89761725  0.95831075  0.88698100  1
  H  249  1  0.02065350  0.03832850  0.95324400  1
  H  250  1  0.02562250  0.06931450  0.14380900  1
  H  252  1  0.77486550  0.94790400  0.96102300  1
  H  253  1  0.81897300  0.87138050  0.95143700  1
  H  255  1  0.11118875  0.16278875  0.13995150  1
  H  256  1  0.12485975  0.12912675  0.06454900  1
  H  263  1  0.67826625  0.32897175  0.07784350  1
  H  264  1  0.49121450  0.17111150  0.88713100  1
  H  265  1  0.43436275  0.15738675  0.95334750  1
  H  266  1  0.61995200  0.31690400  0.14396150  1
  H  268  1  0.68804575  0.25539075  0.96123750  1
  H  269  1  0.63449000  0.32243250  0.95168200  1
  H  271  1  0.53044350  0.21960500  0.14004700  1
  H  272  1  0.44138800  0.17789050  0.06462200  1
  H  279  1  0.63192775  0.72171525  0.42425500  1
  H  280  1  0.66434400  0.72472450  0.61461200  1
  H  281  1  0.58429950  0.60168150  0.54807450  1
  H  282  1  0.55364800  0.59729450  0.35781100  1
  H  284  1  0.67490450  0.84789200  0.54099900  1
  H  285  1  0.75148475  0.80386675  0.55063500  1
  H  287  1  0.46006175  0.51150825  0.36128250  1
  H  288  1  0.49343675  0.49771625  0.43660250  1
  H  295  1  0.29406950  0.94491150  0.42436050  1
  H  296  1  0.45190025  0.13243775  0.61461250  1
  H  297  1  0.46533025  0.18883875  0.54797350  1
  H  298  1  0.30582450  0.00278900  0.35781150  1
  H  300  1  0.36792150  0.93567200  0.54123050  1
  H  301  1  0.30088750  0.98925800  0.55075000  1
  H  303  1  0.40272775  0.09203175  0.36114850  1
  H  304  1  0.44473350  0.18115600  0.43644200  1
  H  505  1  0.32694125  0.29525775  0.75085500  1
  H  513  1  0.00740975  0.61666775  0.75106100  1
  H  515  1  0.03245950  0.40341450  0.57431800  1
  H  516  1  0.12525850  0.33218850  0.57427750  1
  H  517  1  0.22014525  0.59079275  0.92761100  1
  H  518  1  0.29070675  0.49742175  0.92755500  1
  H  520  1  0.25905115  0.30492485  0.84437000  1
  H  522  1  0.16889625  0.70024425  0.84461450  1
  H  524  1  0.92334050  0.45544150  0.65799400  1
  H  526  1  0.31770590  0.36357360  0.65776350  1
  H  625  1  0.07799800  0.86669200  0.25073450  1
  H  633  1  0.75587425  0.54482275  0.25062750  1
  H  635  1  0.96532425  0.75203475  0.42817550  1
  H  636  1  0.04598300  0.83695700  0.42820500  1
  H  637  1  0.78570775  0.57675275  0.07316850  1
  H  638  1  0.87070300  0.65733400  0.07319450  1
  H  640  1  0.95155750  0.75801450  0.08749600  1
  H  642  1  0.71916100  0.49030950  0.08741450  1
  H  644  1  0.86467300  0.67121500  0.41390050  1
  H  646  1  0.13243900  0.90348550  0.41397450  1
  H  743  1  0.44200866  0.45026733  0.07764400  1
  H  744  1  0.43840225  0.41752575  0.88698100  1
  H  745  1  0.56143850  0.49754350  0.95324400  1
  H  746  1  0.56640750  0.52852950  0.14380900  1
  H  748  1  0.31565065  0.40711885  0.96102300  1
  H  749  1  0.35975800  0.33059550  0.95143700  1
  H  751  1  0.65197375  0.62200375  0.13995150  1
  H  752  1  0.66564475  0.58834175  0.06454900  1
  H  759  1  0.21905125  0.78818675  0.07784350  1
  H  760  1  0.03199950  0.63032650  0.88713100  1
  H  761  1  0.97514775  0.61660175  0.95334750  1
  H  762  1  0.16073700  0.77611900  0.14396150  1
  H  764  1  0.22883075  0.71460575  0.96123750  1
  H  765  1  0.17527500  0.78164750  0.95168200  1
  H  767  1  0.07122850  0.67882000  0.14004700  1
  H  768  1  0.98217300  0.63710550  0.06462200  1
  H  775  1  0.17271291  0.18093008  0.42425500  1
  H  776  1  0.20512900  0.18393950  0.61461200  1
  H  777  1  0.12508450  0.06089650  0.54807450  1
  H  778  1  0.09443300  0.05650950  0.35781100  1
  H  780  1  0.21568965  0.30710685  0.54099900  1
  H  781  1  0.29226975  0.26308175  0.55063500  1
  H  783  1  0.00084675  0.97072325  0.36128250  1
  H  784  1  0.03422175  0.95693125  0.43660250  1
  H  791  1  0.83485450  0.40412650  0.42436050  1
  H  792  1  0.99268525  0.59165275  0.61461250  1
  H  793  1  0.00611525  0.64805375  0.54797350  1
  H  794  1  0.84660950  0.46200400  0.35781150  1
  H  796  1  0.90870650  0.39488700  0.54123050  1
  H  797  1  0.84167250  0.44847300  0.55075000  1
  H  799  1  0.94351275  0.55124675  0.36114850  1
  H  800  1  0.98551850  0.64037100  0.43644200  1
  N  23  1  0.76610300  0.88199200  0.85975000  1
  N  25  1  0.59558675  0.22016525  0.85996000  1
  N  27  1  0.40332875  0.02847775  0.64236350  1
  N  29  1  0.74063325  0.85643825  0.64221700  1
  N  143  1  0.45929300  0.29706300  0.12629800  1
  N  145  1  0.16863450  0.07161600  0.12621100  1
  N  147  1  0.32553300  0.16345800  0.37505400  1
  N  149  1  0.55116775  0.45399325  0.37514350  1
  N  519  1  0.30688815  0.34120685  0.85975000  1
  N  521  1  0.13637175  0.67938025  0.85996000  1
  N  523  1  0.94411375  0.48769275  0.64236350  1
  N  525  1  0.28141840  0.31565310  0.64221700  1
  N  639  1  0.00007800  0.75627800  0.12629800  1
  N  641  1  0.70941950  0.53083100  0.12621100  1
  N  643  1  0.86631800  0.62267300  0.37505400  1
  N  645  1  0.09195275  0.91320825  0.37514350  1
