# generated using pymatgen
data_H13C14N6O
_symmetry_space_group_name_H-M   'P 1'
_cell_length_a   26.21620000
_cell_length_b   27.66080000
_cell_length_c   45.40779038
_cell_angle_alpha   90.00000000
_cell_angle_beta   90.00000000
_cell_angle_gamma   90.00000000
_symmetry_Int_Tables_number   1
_chemical_formula_structural   H13C14N6O
_chemical_formula_sum   'H156 C168 N72 O12'
_cell_volume   32927.96163045
_cell_formula_units_Z   12
loop_
 _symmetry_equiv_pos_site_id
 _symmetry_equiv_pos_as_xyz
  1  'x, y, z'
loop_
 _atom_site_type_symbol
 _atom_site_label
 _atom_site_symmetry_multiplicity
 _atom_site_fract_x
 _atom_site_fract_y
 _atom_site_fract_z
 _atom_site_occupancy
  C  1  1  0.94458100  0.98966100  0.49873600  1
  C  2  1  0.92706400  0.95513100  0.51990000  1
  C  3  1  0.92625500  0.96447800  0.55064600  1
  C  4  1  0.94807800  0.00851600  0.56034200  1
  C  5  1  0.96799100  0.04366300  0.54091800  1
  C  6  1  0.96314100  0.03471200  0.51004300  1
  C  9  1  0.43306600  0.97976300  0.96804200  1
  C  10  1  0.45421600  0.93526400  0.95726400  1
  C  11  1  0.46251900  0.92647600  0.92657700  1
  C  12  1  0.44454900  0.96158000  0.90651900  1
  C  13  1  0.42033900  0.00480300  0.91554500  1
  C  14  1  0.41647100  0.01355600  0.94623300  1
  C  21  1  0.40033000  0.03558700  0.89334600  1
  C  22  1  0.99082600  0.08635900  0.55249600  1
  C  23  1  0.90401000  0.93392200  0.57234000  1
  C  24  1  0.48646100  0.88383600  0.91560600  1
  C  29  1  0.16456300  0.32422300  0.72687100  1
  C  30  1  0.14156100  0.28960000  0.70761700  1
  C  31  1  0.09570400  0.29879700  0.69197400  1
  C  32  1  0.07011800  0.34274000  0.69808500  1
  C  33  1  0.08932300  0.37793800  0.71771800  1
  C  34  1  0.13819800  0.36916800  0.73059900  1
  C  37  1  0.21122800  0.31365600  0.74237500  1
  C  38  1  0.21907800  0.26838900  0.75700400  1
  C  39  1  0.26256600  0.25977800  0.77520400  1
  C  40  1  0.30119300  0.29537000  0.77560700  1
  C  41  1  0.29772200  0.33932400  0.75978600  1
  C  42  1  0.25146700  0.34842700  0.74449300  1
  C  49  1  0.34129600  0.36998100  0.75981000  1
  C  50  1  0.06040300  0.42049700  0.72348800  1
  C  51  1  0.07432800  0.26803200  0.67011900  1
  C  52  1  0.26882600  0.21683300  0.79206600  1
  C  57  1  0.71102200  0.65800100  0.72453400  1
  C  58  1  0.75136000  0.62328200  0.72264000  1
  C  59  1  0.79770900  0.63222600  0.70740100  1
  C  60  1  0.80135900  0.67610000  0.69148500  1
  C  61  1  0.76245500  0.71143300  0.69128900  1
  C  62  1  0.71876200  0.70286500  0.70939800  1
  C  65  1  0.66433100  0.64759500  0.74012400  1
  C  66  1  0.63828400  0.60240400  0.73670200  1
  C  67  1  0.58914300  0.59381800  0.74927500  1
  C  68  1  0.56932400  0.62945300  0.76841000  1
  C  69  1  0.59491000  0.67336100  0.77470200  1
  C  70  1  0.64100700  0.68240500  0.75918300  1
  C  77  1  0.57317900  0.70390800  0.79663300  1
  C  78  1  0.76847200  0.75389600  0.67385800  1
  C  79  1  0.84118900  0.60142400  0.70749300  1
  C  80  1  0.56067400  0.55085100  0.74388800  1
  C  85  1  0.86231800  0.85732300  0.58876000  1
  C  86  1  0.87011500  0.80645600  0.58577200  1
  C  87  1  0.85296600  0.77413100  0.60854100  1
  C  88  1  0.82428100  0.79228700  0.63298200  1
  C  89  1  0.81641900  0.84307000  0.63573200  1
  C  90  1  0.83107400  0.87465400  0.61227200  1
  C  105  1  0.07096800  0.19105200  0.64144300  1
  C  106  1  0.07179100  0.14026600  0.64708500  1
  C  107  1  0.04637300  0.10759500  0.62727600  1
  C  108  1  0.02395900  0.12536700  0.60064800  1
  C  109  1  0.02356900  0.17607800  0.59508700  1
  C  110  1  0.05134000  0.20800400  0.61397600  1
  C  125  1  0.88643300  0.52460800  0.71982400  1
  C  126  1  0.87780100  0.47379200  0.71729100  1
  C  127  1  0.92034000  0.44132400  0.71421700  1
  C  128  1  0.97142900  0.45927000  0.71623000  1
  C  129  1  0.97977700  0.50999200  0.71890500  1
  C  130  1  0.93744600  0.54172300  0.72352800  1
  C  145  1  0.52382700  0.84550100  0.86806300  1
  C  146  1  0.51995400  0.79453000  0.87210600  1
  C  147  1  0.54816900  0.76261500  0.85338700  1
  C  148  1  0.56985500  0.78002400  0.82652300  1
  C  149  1  0.57201000  0.83103600  0.82167000  1
  C  150  1  0.55104000  0.86377500  0.84310600  1
  C  165  1  0.32259000  0.17901000  0.83361800  1
  C  166  1  0.31819600  0.12824900  0.82900600  1
  C  167  1  0.33060400  0.09573000  0.85237000  1
  C  168  1  0.35916100  0.11244300  0.87714300  1
  C  169  1  0.36646900  0.16320800  0.88112900  1
  C  170  1  0.34624600  0.19663800  0.85990200  1
  C  185  1  0.47121500  0.51268100  0.74978300  1
  C  186  1  0.47981800  0.46181500  0.74957000  1
  C  187  1  0.43809000  0.42959300  0.74443600  1
  C  188  1  0.38678300  0.44656200  0.74688100  1
  C  189  1  0.37775900  0.49743200  0.74851500  1
  C  190  1  0.42002500  0.53056200  0.74866900  1
  C  205  1  0.43075600  0.99113800  0.99907600  1
  C  206  1  0.41773800  0.95535500  0.02054600  1
  C  207  1  0.41779800  0.96448600  0.05129600  1
  C  208  1  0.43579100  0.01016800  0.06073700  1
  C  209  1  0.44959100  0.04741900  0.04102700  1
  C  210  1  0.44375100  0.03811400  0.01026500  1
  C  213  1  0.94471700  0.97907300  0.46763600  1
  C  214  1  0.96286400  0.93387600  0.45632900  1
  C  215  1  0.96860700  0.92532800  0.42546500  1
  C  216  1  0.94993100  0.96101500  0.40599000  1
  C  217  1  0.92774900  0.00489000  0.41568200  1
  C  218  1  0.92779600  0.01387400  0.44647000  1
  C  225  1  0.90581000  0.03558300  0.39395300  1
  C  226  1  0.46924300  0.09185400  0.05215500  1
  C  227  1  0.39951700  0.93210800  0.07319700  1
  C  228  1  0.99076200  0.88234700  0.41385900  1
  C  233  1  0.66426100  0.32050700  0.22597700  1
  C  234  1  0.64082500  0.28617300  0.20662800  1
  C  235  1  0.59507100  0.29599900  0.19091700  1
  C  236  1  0.57002800  0.34015200  0.19724600  1
  C  237  1  0.58950900  0.37495600  0.21700300  1
  C  238  1  0.63825900  0.36564300  0.22984400  1
  C  241  1  0.71089900  0.30990700  0.24157600  1
  C  242  1  0.71885400  0.26489700  0.25650900  1
  C  243  1  0.76202200  0.25680600  0.27512900  1
  C  244  1  0.80032500  0.29272400  0.27560500  1
  C  245  1  0.79689600  0.33638500  0.25947400  1
  C  246  1  0.75096700  0.34486600  0.24374100  1
  C  253  1  0.84017300  0.36743200  0.25963200  1
  C  254  1  0.56086600  0.41762300  0.22291200  1
  C  255  1  0.57261700  0.26603600  0.16894300  1
  C  256  1  0.76843200  0.21413600  0.29231400  1
  C  261  1  0.21093100  0.65421700  0.22460100  1
  C  262  1  0.25142500  0.61967100  0.22282100  1
  C  263  1  0.29804000  0.62911000  0.20796300  1
  C  264  1  0.30175900  0.67318500  0.19228700  1
  C  265  1  0.26258800  0.70821900  0.19193500  1
  C  266  1  0.21861900  0.69927600  0.20969400  1
  C  269  1  0.16410800  0.64371800  0.23996600  1
  C  270  1  0.13787600  0.59865500  0.23647500  1
  C  271  1  0.08848500  0.59042300  0.24883400  1
  C  272  1  0.06859400  0.62625800  0.26780900  1
  C  273  1  0.09443000  0.66999700  0.27409200  1
  C  274  1  0.14083200  0.67867000  0.25888800  1
  C  281  1  0.07284100  0.70102000  0.29574000  1
  C  282  1  0.26853200  0.75074300  0.17461600  1
  C  283  1  0.34170500  0.59859400  0.20811000  1
  C  284  1  0.05976800  0.54763300  0.24341200  1
  C  289  1  0.36054400  0.85455800  0.08958900  1
  C  290  1  0.36925000  0.80382100  0.08656700  1
  C  291  1  0.35269900  0.77124100  0.10934300  1
  C  292  1  0.32413200  0.78913200  0.13389200  1
  C  293  1  0.31568000  0.83977100  0.13677400  1
  C  294  1  0.32923600  0.87144400  0.11319000  1
  C  309  1  0.56491800  0.19046700  0.13930000  1
  C  310  1  0.56470700  0.13936600  0.14392700  1
  C  311  1  0.53704200  0.10836500  0.12407200  1
  C  312  1  0.51092100  0.12850200  0.09922100  1
  C  313  1  0.51150000  0.17947700  0.09474000  1
  C  314  1  0.54303800  0.20933800  0.11288200  1
  C  329  1  0.38703100  0.52174100  0.22003300  1
  C  330  1  0.37834600  0.47098000  0.21726500  1
  C  331  1  0.42084700  0.43858700  0.21385100  1
  C  332  1  0.47192600  0.45652600  0.21586200  1
  C  333  1  0.48034400  0.50719400  0.21873600  1
  C  334  1  0.43806800  0.53885600  0.22363800  1
  C  349  1  0.02569400  0.84410400  0.36596400  1
  C  350  1  0.02129300  0.79327200  0.37036000  1
  C  351  1  0.04926800  0.76085600  0.35190500  1
  C  352  1  0.07092900  0.77767100  0.32491600  1
  C  353  1  0.07345200  0.82853500  0.31960600  1
  C  354  1  0.05268800  0.86181700  0.34078100  1
  C  369  1  0.82295200  0.17700700  0.33416100  1
  C  370  1  0.81905900  0.12605800  0.33013300  1
  C  371  1  0.83301900  0.09420400  0.35359200  1
  C  372  1  0.86255900  0.11168400  0.37779700  1
  C  373  1  0.86884900  0.16268000  0.38131400  1
  C  374  1  0.84717200  0.19538700  0.36009900  1
  C  389  1  0.97011900  0.50993400  0.24936700  1
  C  390  1  0.97859400  0.45905700  0.24929900  1
  C  391  1  0.93682100  0.42690600  0.24417000  1
  C  392  1  0.88553900  0.44396000  0.24655100  1
  C  393  1  0.87662700  0.49486600  0.24811200  1
  C  394  1  0.91897100  0.52792300  0.24823500  1
  H  7  1  0.91052900  0.92383600  0.51264800  1
  H  8  1  0.94892800  0.01557300  0.58249300  1
  H  15  1  0.44836000  0.95500400  0.88441200  1
  H  16  1  0.39751800  0.04402800  0.95277000  1
  H  19  1  0.96129100  0.09422200  0.48932200  1
  H  20  1  0.45270900  0.87551400  0.97773100  1
  H  25  1  0.40203000  0.02332400  0.87208200  1
  H  26  1  0.00171800  0.11294200  0.53822700  1
  H  27  1  0.90286100  0.94706100  0.59342300  1
  H  28  1  0.49483100  0.85660100  0.92998700  1
  H  35  1  0.16086200  0.25843700  0.70286200  1
  H  36  1  0.03634400  0.34964200  0.68753400  1
  H  43  1  0.33376300  0.28847200  0.78737500  1
  H  44  1  0.24880100  0.37978900  0.73266700  1
  H  47  1  0.17013600  0.42871400  0.74000500  1
  H  48  1  0.18982900  0.20875600  0.74518900  1
  H  53  1  0.37313100  0.35719400  0.77031100  1
  H  54  1  0.07639500  0.44711900  0.73602400  1
  H  55  1  0.04321000  0.28097000  0.65898400  1
  H  56  1  0.24331900  0.18925600  0.78947900  1
  H  63  1  0.74875900  0.59209700  0.73464000  1
  H  64  1  0.83401800  0.68286200  0.67978900  1
  H  71  1  0.53532800  0.62257700  0.77875000  1
  H  72  1  0.66016000  0.71369700  0.76381800  1
  H  75  1  0.68908100  0.76254000  0.72072200  1
  H  76  1  0.67061900  0.54274600  0.72804000  1
  H  81  1  0.54160400  0.69091400  0.80729400  1
  H  82  1  0.74180100  0.78063600  0.67556500  1
  H  83  1  0.87331600  0.61437100  0.69735800  1
  H  84  1  0.57740500  0.52341900  0.73235500  1
  H  92  1  0.88849300  0.71221700  0.59383400  1
  H  93  1  0.85450300  0.70373400  0.62331200  1
  H  95  1  0.90384600  0.81129000  0.54496000  1
  H  96  1  0.89546600  0.75587100  0.55586500  1
  H  98  1  0.79989000  0.84278300  0.67964800  1
  H  99  1  0.80199300  0.89666200  0.66565200  1
  H  101  1  0.81113600  0.93785600  0.59205900  1
  H  102  1  0.78249300  0.92968700  0.62340600  1
  H  112  1  0.05111000  0.04594100  0.65261100  1
  H  113  1  0.02384400  0.03700400  0.62094000  1
  H  115  1  0.11599800  0.14575700  0.68441300  1
  H  116  1  0.10402600  0.09018800  0.67504300  1
  H  118  1  0.96590400  0.17523200  0.56490100  1
  H  119  1  0.98568500  0.22927600  0.57268400  1
  H  121  1  0.09160400  0.27102500  0.61382200  1
  H  122  1  0.05897800  0.26230100  0.58378300  1
  H  132  1  0.88014700  0.37966300  0.70372700  1
  H  133  1  0.94133800  0.37091700  0.70572900  1
  H  135  1  0.79978100  0.47888300  0.72113600  1
  H  136  1  0.82008900  0.42340000  0.71963400  1
  H  138  1  0.05378700  0.50945700  0.70498300  1
  H  139  1  0.03208700  0.56339200  0.71115100  1
  H  141  1  0.91760100  0.60490600  0.74379100  1
  H  142  1  0.97889100  0.59650100  0.74220300  1
  H  152  1  0.55123700  0.70667600  0.88273100  1
  H  153  1  0.58592100  0.69834100  0.85339700  1
  H  155  1  0.46032200  0.79606300  0.90100000  1
  H  156  1  0.47775700  0.74169500  0.89207900  1
  H  158  1  0.60628200  0.82620800  0.78091400  1
  H  159  1  0.58824300  0.88085800  0.78927300  1
  H  161  1  0.54532300  0.93542700  0.85512700  1
  H  162  1  0.58207100  0.92660500  0.82674500  1
  H  172  1  0.28497300  0.04065900  0.83801500  1
  H  173  1  0.30985400  0.03131400  0.87040000  1
  H  175  1  0.30788900  0.13120600  0.78460500  1
  H  176  1  0.31069700  0.07629800  0.79725700  1
  H  178  1  0.40902900  0.15676600  0.91910300  1
  H  179  1  0.40697300  0.21178200  0.90637700  1
  H  181  1  0.33373700  0.26875500  0.85093500  1
  H  182  1  0.35690200  0.25926800  0.88367400  1
  H  192  1  0.48143200  0.37429800  0.72816800  1
  H  193  1  0.42020600  0.36543700  0.72510000  1
  H  195  1  0.55252400  0.46391200  0.76557800  1
  H  196  1  0.53118700  0.40934700  0.76084300  1
  H  198  1  0.29948200  0.49173100  0.75127200  1
  H  199  1  0.32030700  0.54652400  0.75655500  1
  H  201  1  0.44018700  0.60249100  0.74630100  1
  H  202  1  0.37938400  0.59321400  0.74178200  1
  H  211  1  0.40406200  0.92268500  0.01360000  1
  H  212  1  0.43723400  0.01721800  0.08287400  1
  H  219  1  0.95141900  0.95422800  0.38381300  1
  H  220  1  0.91116500  0.04512400  0.45372200  1
  H  223  1  0.49281000  0.06944300  0.98617400  1
  H  224  1  0.95944100  0.87423800  0.47681700  1
  H  229  1  0.90562400  0.02283200  0.37277800  1
  H  230  1  0.47614600  0.11938100  0.03773600  1
  H  231  1  0.39885500  0.94476000  0.09439900  1
  H  232  1  0.99963400  0.85483200  0.42794700  1
  H  239  1  0.65967500  0.25476400  0.20188900  1
  H  240  1  0.53632800  0.34759200  0.18674400  1
  H  247  1  0.83265600  0.28630700  0.28768700  1
  H  248  1  0.74838500  0.37602600  0.23171200  1
  H  251  1  0.67032200  0.42504100  0.23953200  1
  H  252  1  0.69045800  0.20513400  0.24439000  1
  H  257  1  0.87192600  0.35499200  0.27037000  1
  H  258  1  0.57698500  0.44409300  0.23551100  1
  H  259  1  0.54129800  0.27982100  0.15839000  1
  H  260  1  0.74312000  0.18641100  0.28970400  1
  H  267  1  0.24872400  0.58830800  0.23464300  1
  H  268  1  0.33461700  0.68028900  0.18085100  1
  H  275  1  0.03439900  0.61973200  0.27801000  1
  H  276  1  0.16016800  0.70982500  0.26362900  1
  H  279  1  0.18830200  0.75884900  0.22074500  1
  H  280  1  0.17018900  0.53889500  0.22813500  1
  H  285  1  0.04103300  0.68861200  0.30643200  1
  H  286  1  0.24169700  0.77736600  0.17616900  1
  H  287  1  0.37386500  0.61177900  0.19812700  1
  H  288  1  0.07642400  0.52003800  0.23198500  1
  H  296  1  0.38815000  0.70947300  0.09430600  1
  H  297  1  0.35488000  0.70080000  0.12403400  1
  H  299  1  0.40289400  0.80927100  0.04576800  1
  H  300  1  0.39565900  0.75368900  0.05666100  1
  H  302  1  0.30034100  0.83935300  0.18082900  1
  H  303  1  0.30129900  0.89324800  0.16676500  1
  H  305  1  0.30701500  0.93390600  0.09291900  1
  H  306  1  0.27942900  0.92537000  0.12453900  1
  H  316  1  0.54938100  0.04316800  0.14520500  1
  H  317  1  0.51554800  0.03803100  0.11549000  1
  H  319  1  0.61102300  0.14224000  0.18052500  1
  H  320  1  0.59451400  0.08750500  0.17182800  1
  H  322  1  0.45058500  0.18217300  0.06685700  1
  H  323  1  0.47342800  0.23511900  0.07481600  1
  H  325  1  0.58628300  0.27052200  0.11204300  1
  H  326  1  0.54981600  0.26449200  0.08320400  1
  H  336  1  0.38055500  0.37719000  0.20296100  1
  H  337  1  0.44176400  0.36838300  0.20475400  1
  H  339  1  0.30037800  0.47596500  0.22149800  1
  H  340  1  0.32071900  0.42051800  0.21963000  1
  H  342  1  0.55423800  0.50674200  0.20459800  1
  H  343  1  0.53263200  0.56063700  0.21104600  1
  H  345  1  0.41842400  0.60177500  0.24425600  1
  H  346  1  0.47970800  0.59344200  0.24238200  1
  H  356  1  0.05208600  0.70555900  0.38169900  1
  H  357  1  0.08670700  0.69642200  0.35241300  1
  H  359  1  0.96129200  0.79576800  0.39895200  1
  H  360  1  0.97850600  0.74108900  0.39054100  1
  H  362  1  0.10791500  0.82251700  0.27896100  1
  H  363  1  0.09040500  0.87751500  0.28683900  1
  H  365  1  0.04676500  0.93377400  0.35208300  1
  H  366  1  0.08331500  0.92434100  0.32368900  1
  H  376  1  0.78729600  0.03837000  0.34049000  1
  H  377  1  0.81393300  0.03003400  0.37252000  1
  H  379  1  0.80650600  0.12773200  0.28589600  1
  H  380  1  0.81072300  0.07321000  0.29901100  1
  H  382  1  0.91266500  0.15771300  0.41889500  1
  H  383  1  0.90910500  0.21244000  0.40582700  1
  H  385  1  0.83277900  0.26709500  0.35089000  1
  H  386  1  0.85737500  0.25858100  0.38337100  1
  H  396  1  0.98013900  0.37153600  0.22798300  1
  H  397  1  0.91890900  0.36272900  0.22486900  1
  H  399  1  0.05117300  0.46106300  0.26550600  1
  H  400  1  0.02972200  0.40652700  0.26081300  1
  H  402  1  0.79836200  0.48928000  0.25088700  1
  H  403  1  0.81925000  0.54409100  0.25602900  1
  H  405  1  0.93934800  0.59979400  0.24585700  1
  H  406  1  0.87849900  0.59069400  0.24138400  1
  N  91  1  0.86451900  0.72577800  0.60772000  1
  N  94  1  0.89392900  0.78978100  0.56087800  1
  N  97  1  0.80037100  0.86215200  0.66191300  1
  N  100  1  0.80978900  0.91969300  0.61031800  1
  N  103  1  0.88769500  0.88746000  0.56949700  1
  N  104  1  0.80439900  0.75908800  0.65235100  1
  N  111  1  0.04210500  0.05928100  0.63365400  1
  N  114  1  0.09729500  0.12404100  0.67152600  1
  N  117  1  0.99221500  0.19479400  0.57390400  1
  N  120  1  0.06467300  0.25302100  0.60412100  1
  N  123  1  0.08698200  0.22154300  0.66361300  1
  N  124  1  0.00497900  0.09184700  0.58120200  1
  N  131  1  0.91306600  0.39304300  0.70871100  1
  N  134  1  0.82849100  0.45729200  0.71796300  1
  N  137  1  0.02712800  0.52888900  0.71374500  1
  N  140  1  0.94548800  0.58667100  0.73520400  1
  N  143  1  0.84494300  0.55492200  0.71701400  1
  N  144  1  0.01020800  0.42587300  0.71633100  1
  N  151  1  0.55887400  0.71670900  0.86274200  1
  N  154  1  0.48607100  0.77589600  0.89196100  1
  N  157  1  0.59196200  0.84769200  0.79567000  1
  N  160  1  0.55821700  0.91272900  0.84061700  1
  N  163  1  0.50396500  0.87865000  0.88748100  1
  N  164  1  0.58606200  0.74998700  0.80411000  1
  N  171  1  0.31054100  0.05007300  0.85235500  1
  N  174  1  0.30670800  0.11038200  0.80173400  1
  N  177  1  0.39502200  0.17884000  0.90457000  1
  N  180  1  0.34756700  0.24553800  0.86484500  1
  N  183  1  0.30309100  0.21255600  0.81445700  1
  N  184  1  0.38306300  0.08161600  0.89651500  1
  N  191  1  0.44741800  0.38392500  0.73420200  1
  N  194  1  0.52657800  0.44355800  0.75686800  1
  N  197  1  0.32853800  0.51351700  0.75138200  1
  N  200  1  0.41222200  0.57949100  0.74670000  1
  N  203  1  0.50991300  0.54614000  0.74973300  1
  N  204  1  0.34542700  0.41613700  0.74977700  1
  N  295  1  0.36453800  0.72295100  0.10841600  1
  N  298  1  0.39327400  0.78756600  0.06164200  1
  N  301  1  0.30004000  0.85870200  0.16307600  1
  N  304  1  0.30667700  0.91593300  0.11126100  1
  N  307  1  0.38448300  0.88530300  0.07010300  1
  N  308  1  0.30456700  0.75578700  0.15320300  1
  N  315  1  0.53459800  0.05930300  0.12838800  1
  N  318  1  0.59099300  0.12160000  0.16769900  1
  N  321  1  0.47860600  0.20036500  0.07516800  1
  N  324  1  0.55742700  0.25412400  0.10313900  1
  N  327  1  0.58361600  0.21951500  0.16155000  1
  N  328  1  0.48889600  0.09666600  0.07979800  1
  N  335  1  0.41351500  0.39042500  0.20801500  1
  N  338  1  0.32905300  0.45444400  0.21805600  1
  N  341  1  0.52766600  0.52610800  0.21351000  1
  N  344  1  0.44622600  0.58366600  0.23547800  1
  N  347  1  0.34549900  0.55199300  0.21738000  1
  N  348  1  0.51066900  0.42312900  0.21582700  1
  N  355  1  0.05976500  0.71511500  0.36162800  1
  N  358  1  0.98706200  0.77523800  0.39022000  1
  N  361  1  0.09363200  0.84444400  0.29349000  1
  N  364  1  0.05978300  0.91071000  0.33782800  1
  N  367  1  0.00695700  0.87761500  0.38547200  1
  N  368  1  0.08659900  0.74702700  0.30274800  1
  N  375  1  0.81348500  0.04835900  0.35430700  1
  N  378  1  0.80649400  0.10736000  0.30323000  1
  N  381  1  0.89781900  0.17925200  0.40433800  1
  N  384  1  0.84769000  0.24438100  0.36473300  1
  N  387  1  0.80276400  0.20994600  0.31475000  1
  N  388  1  0.88816600  0.08158000  0.39697600  1
  N  395  1  0.94611700  0.38121000  0.23397600  1
  N  398  1  0.02524800  0.44072800  0.25675200  1
  N  401  1  0.82743600  0.51103700  0.25094600  1
  N  404  1  0.91131300  0.57687000  0.24625600  1
  N  407  1  0.00896400  0.54323400  0.24924600  1
  N  408  1  0.84417700  0.41350800  0.24940300  1
  O  17  1  0.98500500  0.06678600  0.49098900  1
  O  18  1  0.47555800  0.90369800  0.97680400  1
  O  45  1  0.15593600  0.40122800  0.75104300  1
  O  46  1  0.17995200  0.23585200  0.75801500  1
  O  73  1  0.67942700  0.73513100  0.70809000  1
  O  74  1  0.65636900  0.56983500  0.71666100  1
  O  221  1  0.45679100  0.07443600  0.99136100  1
  O  222  1  0.98372400  0.90126000  0.47541000  1
  O  249  1  0.65607500  0.39742400  0.25043300  1
  O  250  1  0.68006000  0.23202700  0.25723400  1
  O  277  1  0.17906100  0.73129400  0.20812300  1
  O  278  1  0.15615200  0.56591900  0.21660900  1
