# generated using pymatgen
data_H7C12N4O
_symmetry_space_group_name_H-M   'P 1'
_cell_length_a   31.65800000
_cell_length_b   38.77300000
_cell_length_c   38.77300000
_cell_angle_alpha   90.00000000
_cell_angle_beta   90.00000000
_cell_angle_gamma   90.00000000
_symmetry_Int_Tables_number   1
_chemical_formula_structural   H7C12N4O
_chemical_formula_sum   'H224 C384 N128 O32'
_cell_volume   47592.91275708
_cell_formula_units_Z   32
loop_
 _symmetry_equiv_pos_site_id
 _symmetry_equiv_pos_as_xyz
  1  'x, y, z'
loop_
 _atom_site_type_symbol
 _atom_site_label
 _atom_site_symmetry_multiplicity
 _atom_site_fract_x
 _atom_site_fract_y
 _atom_site_fract_z
 _atom_site_occupancy
  H  7  1  0.06041000  0.97044500  0.98099900  1
  H  16  1  0.93721500  0.02499400  0.02085500  1
  H  17  1  0.14032200  0.06968800  0.03271400  1
  H  18  1  0.85927200  0.92876200  0.96322400  1
  H  19  1  0.99479300  0.04738800  0.03732500  1
  H  20  1  0.00379400  0.95652800  0.95516700  1
  H  31  1  0.56038400  0.52747800  0.01678900  1
  H  40  1  0.43725800  0.47277200  0.97702500  1
  H  41  1  0.64040500  0.42829000  0.96513200  1
  H  42  1  0.35917400  0.56889800  0.03466100  1
  H  43  1  0.49485500  0.45043200  0.96053600  1
  H  44  1  0.50376900  0.54140200  0.04259800  1
  H  55  1  0.31044400  0.26685600  0.72036200  1
  H  64  1  0.18729100  0.22659600  0.77452300  1
  H  65  1  0.39035100  0.21513700  0.81965500  1
  H  66  1  0.10962000  0.28497900  0.67867500  1
  H  67  1  0.24483200  0.21076400  0.79748000  1
  H  68  1  0.25393700  0.29346700  0.70726200  1
  H  79  1  0.81043500  0.23101500  0.27754900  1
  H  88  1  0.68733400  0.27123200  0.22327700  1
  H  89  1  0.89043000  0.28269400  0.17831000  1
  H  90  1  0.60953700  0.21283500  0.31902300  1
  H  91  1  0.74489700  0.28707600  0.20036500  1
  H  92  1  0.75392100  0.20444500  0.29066600  1
  H  103  1  0.94004800  0.53111400  0.98117200  1
  H  112  1  0.05915300  0.47054900  0.02013900  1
  H  113  1  0.84816900  0.44264000  0.02861300  1
  H  114  1  0.14463400  0.52993800  0.93674400  1
  H  115  1  0.00010300  0.45164600  0.03803400  1
  H  116  1  0.99666300  0.54017200  0.95300800  1
  H  127  1  0.44012300  0.96669000  0.01670900  1
  H  136  1  0.55907300  0.02739400  0.97767700  1
  H  137  1  0.34807700  0.05512300  0.96933400  1
  H  138  1  0.64473800  0.96808300  0.06097100  1
  H  139  1  0.49999100  0.04616000  0.95973900  1
  H  140  1  0.49682000  0.95759900  0.04475400  1
  H  151  1  0.69034800  0.23106300  0.71645200  1
  H  160  1  0.80923100  0.27045100  0.77687800  1
  H  161  1  0.59828900  0.27835300  0.80499500  1
  H  162  1  0.89501100  0.18684000  0.71824900  1
  H  163  1  0.75012700  0.28802000  0.79596800  1
  H  164  1  0.74700300  0.20260900  0.70785500  1
  H  175  1  0.19035800  0.26685000  0.28132200  1
  H  184  1  0.30923500  0.22731600  0.22100200  1
  H  185  1  0.09824100  0.21963100  0.19282700  1
  H  186  1  0.39509800  0.31078800  0.27967900  1
  H  187  1  0.25012800  0.20977800  0.20188500  1
  H  188  1  0.24703800  0.29529800  0.28990000  1
  H  199  1  0.68747700  0.73040500  0.27705900  1
  H  208  1  0.81082600  0.77058500  0.22276900  1
  H  209  1  0.60794500  0.78302100  0.17814300  1
  H  210  1  0.88874000  0.71320500  0.31918800  1
  H  211  1  0.75329600  0.78814800  0.20129100  1
  H  212  1  0.74423600  0.70524000  0.29156900  1
  H  223  1  0.18749800  0.76741000  0.72073600  1
  H  232  1  0.31079300  0.72726300  0.77512600  1
  H  233  1  0.10788300  0.71482400  0.81959800  1
  H  234  1  0.38883800  0.78465600  0.67881700  1
  H  235  1  0.25324900  0.70969400  0.79656700  1
  H  236  1  0.24426800  0.79252800  0.70620200  1
  H  247  1  0.30795300  0.76702000  0.28069500  1
  H  256  1  0.18898700  0.72772500  0.22013100  1
  H  257  1  0.40003200  0.71924200  0.19259200  1
  H  258  1  0.10322200  0.81083900  0.27964300  1
  H  259  1  0.24805800  0.70898800  0.20205600  1
  H  260  1  0.25115100  0.79468900  0.29007300  1
  H  271  1  0.80794600  0.73073700  0.71721800  1
  H  280  1  0.68899300  0.77018200  0.77768200  1
  H  281  1  0.90008300  0.77845400  0.80527900  1
  H  282  1  0.60313400  0.68721000  0.71813100  1
  H  283  1  0.74807100  0.78888600  0.79577500  1
  H  284  1  0.75111900  0.70308200  0.70785300  1
  H  295  1  0.56044700  0.47077800  0.48062000  1
  H  304  1  0.43713200  0.52467700  0.52120800  1
  H  305  1  0.64003200  0.56979300  0.53306100  1
  H  306  1  0.35957200  0.42867200  0.46292000  1
  H  307  1  0.49468100  0.54680000  0.53806700  1
  H  308  1  0.50384500  0.45723000  0.45455800  1
  H  319  1  0.06043500  0.02712200  0.51718200  1
  H  328  1  0.93717100  0.97308900  0.47668400  1
  H  329  1  0.14010000  0.92815300  0.46478400  1
  H  330  1  0.85949000  0.06900400  0.53497000  1
  H  331  1  0.99473000  0.95102500  0.45978400  1
  H  332  1  0.00383600  0.04070100  0.54320500  1
  H  343  1  0.44012600  0.03086000  0.48069000  1
  H  352  1  0.55903200  0.97067700  0.52047500  1
  H  353  1  0.34798500  0.94269700  0.52832900  1
  H  354  1  0.64499100  0.02954700  0.43718300  1
  H  355  1  0.49993400  0.95225000  0.53880800  1
  H  356  1  0.49691500  0.03971600  0.45260300  1
  H  367  1  0.94020900  0.46695600  0.51718200  1
  H  376  1  0.05896700  0.52725600  0.47733400  1
  H  377  1  0.84791000  0.55509200  0.46961000  1
  H  378  1  0.14508200  0.46845700  0.56053900  1
  H  379  1  0.99983800  0.54556000  0.45895800  1
  H  380  1  0.99706100  0.45806300  0.54516000  1
  H  391  1  0.75576900  0.95063300  0.02075200  1
  H  392  1  0.73848100  0.06711900  0.98052200  1
  H  394  1  0.83189200  0.95840900  0.01562600  1
  H  396  1  0.65825800  0.05358300  0.97467800  1
  H  403  1  0.25591100  0.54719000  0.97724600  1
  H  404  1  0.23820300  0.43068100  0.01730700  1
  H  406  1  0.33196700  0.53923600  0.98223400  1
  H  408  1  0.15798000  0.44440700  0.02309000  1
  H  415  1  0.00584500  0.22720400  0.70023900  1
  H  416  1  0.98866800  0.26717500  0.81682600  1
  H  418  1  0.08199400  0.23238000  0.70798700  1
  H  420  1  0.90847000  0.27326200  0.80327000  1
  H  427  1  0.50591100  0.27042500  0.29756000  1
  H  428  1  0.48850000  0.23067700  0.18091700  1
  H  430  1  0.58202100  0.26542900  0.28968800  1
  H  432  1  0.40835600  0.22452500  0.19458400  1
  H  439  1  0.24334200  0.04208200  0.97347300  1
  H  440  1  0.25924900  0.92582700  0.01462000  1
  H  442  1  0.16755200  0.03643500  0.98242000  1
  H  444  1  0.33955800  0.93784000  0.01788200  1
  H  451  1  0.74324500  0.45581700  0.02438400  1
  H  452  1  0.75937600  0.57203900  0.98319100  1
  H  454  1  0.66749400  0.46154000  0.01545900  1
  H  456  1  0.83972000  0.55990000  0.97997200  1
  H  463  1  0.99230700  0.77071600  0.29714500  1
  H  464  1  0.00941900  0.73045600  0.18065300  1
  H  466  1  0.91615800  0.76556100  0.28944100  1
  H  468  1  0.08962500  0.72460700  0.19408600  1
  H  475  1  0.49224900  0.72733000  0.70075300  1
  H  476  1  0.50959100  0.76737400  0.81730000  1
  H  478  1  0.41613900  0.73230500  0.70858000  1
  H  480  1  0.58974400  0.77329300  0.80375700  1
  H  487  1  0.25559200  0.45035900  0.52054000  1
  H  488  1  0.23869600  0.56698200  0.48060700  1
  H  490  1  0.33179300  0.45803700  0.51544300  1
  H  492  1  0.15857400  0.55356300  0.47437600  1
  H  499  1  0.75572200  0.04746100  0.47746600  1
  H  500  1  0.73842700  0.93081500  0.51722600  1
  H  502  1  0.83186100  0.03961600  0.48243300  1
  H  504  1  0.65830500  0.94440900  0.52339700  1
  H  511  1  0.50456500  0.72363700  0.20537800  1
  H  512  1  0.48884700  0.76444400  0.32177300  1
  H  514  1  0.58040700  0.73249600  0.21103000  1
  H  516  1  0.40856400  0.76803100  0.30974400  1
  H  523  1  0.00461000  0.77414600  0.79243700  1
  H  524  1  0.98878200  0.73338900  0.67603400  1
  H  526  1  0.08043500  0.76536700  0.78672500  1
  H  528  1  0.90852100  0.72972600  0.68814300  1
  H  535  1  0.74349100  0.54244900  0.47375700  1
  H  536  1  0.75901000  0.42602800  0.51452000  1
  H  538  1  0.66761100  0.53685000  0.48258500  1
  H  540  1  0.83919500  0.43793600  0.51822900  1
  H  547  1  0.24341400  0.95544800  0.52408600  1
  H  548  1  0.25911200  0.07185200  0.48331000  1
  H  550  1  0.16757500  0.96110100  0.51528100  1
  H  552  1  0.33936800  0.05982200  0.47964000  1
  H  559  1  0.49348700  0.27428900  0.79202700  1
  H  560  1  0.50928800  0.23316100  0.67575800  1
  H  562  1  0.41766800  0.26539300  0.78639200  1
  H  564  1  0.58955800  0.22984600  0.68770000  1
  H  571  1  0.99344400  0.22360100  0.20585400  1
  H  572  1  0.00937300  0.26469900  0.32212300  1
  H  574  1  0.91764300  0.23241600  0.21155500  1
  H  576  1  0.08962600  0.26808100  0.31009200  1
  H  583  1  0.11337000  0.07733200  0.15706000  1
  H  584  1  0.12969300  0.17857800  0.08693000  1
  H  586  1  0.08460200  0.04947400  0.10374400  1
  H  588  1  0.15613600  0.20681200  0.14133800  1
  H  595  1  0.61344500  0.42034900  0.84080100  1
  H  596  1  0.62978500  0.31911900  0.91096100  1
  H  598  1  0.58483300  0.44824200  0.89412700  1
  H  600  1  0.65636600  0.29088500  0.85653900  1
  H  607  1  0.36335600  0.09088600  0.82727900  1
  H  608  1  0.37954400  0.16105300  0.92852400  1
  H  610  1  0.33444700  0.14413900  0.79942700  1
  H  612  1  0.40608100  0.10667900  0.95675300  1
  H  619  1  0.86346700  0.40693800  0.17041200  1
  H  620  1  0.87970300  0.33669500  0.06921800  1
  H  622  1  0.83468800  0.35367900  0.19830900  1
  H  624  1  0.90638500  0.39107100  0.04098400  1
  H  631  1  0.88270400  0.92311100  0.83809000  1
  H  632  1  0.86984500  0.82267500  0.90986700  1
  H  634  1  0.90972100  0.95222900  0.89217200  1
  H  636  1  0.84323200  0.79313600  0.85630400  1
  H  643  1  0.38266200  0.57490000  0.15970200  1
  H  644  1  0.36979000  0.67534600  0.08793100  1
  H  646  1  0.40963800  0.54577600  0.10565600  1
  H  648  1  0.34301000  0.70485900  0.14150400  1
  H  655  1  0.63452000  0.90785300  0.17265500  1
  H  656  1  0.61589600  0.83764900  0.07172700  1
  H  658  1  0.66377000  0.85423000  0.19994000  1
  H  660  1  0.58698700  0.89075100  0.04406400  1
  H  667  1  0.13441900  0.59001100  0.82531300  1
  H  668  1  0.11574800  0.66024200  0.92622100  1
  H  670  1  0.16358700  0.64362500  0.79802100  1
  H  672  1  0.08661600  0.60723400  0.95378400  1
  H  679  1  0.61334000  0.57525300  0.65799100  1
  H  680  1  0.63211600  0.67618400  0.58782400  1
  H  682  1  0.58422000  0.54797400  0.60429400  1
  H  684  1  0.66095200  0.70384500  0.64094000  1
  H  691  1  0.11342100  0.92241400  0.33987000  1
  H  692  1  0.13215100  0.82148900  0.41006300  1
  H  694  1  0.08443700  0.94972700  0.39356500  1
  H  696  1  0.16107900  0.79388400  0.35698500  1
  H  703  1  0.86515400  0.58798300  0.32478500  1
  H  704  1  0.87811400  0.65967500  0.42527000  1
  H  706  1  0.83824800  0.64212700  0.29569300  1
  H  708  1  0.90464200  0.60607600  0.45479000  1
  H  715  1  0.36521900  0.90980500  0.67289800  1
  H  716  1  0.37822100  0.83808800  0.57242600  1
  H  718  1  0.33835400  0.85569300  0.70199800  1
  H  720  1  0.40490600  0.89169200  0.54292600  1
  H  727  1  0.38280700  0.42517400  0.33717300  1
  H  728  1  0.36736400  0.32507400  0.40907000  1
  H  730  1  0.41000800  0.45378500  0.39171000  1
  H  732  1  0.33851200  0.29604100  0.35674500  1
  H  739  1  0.88277000  0.07285500  0.66061400  1
  H  740  1  0.86737100  0.17297500  0.58872900  1
  H  742  1  0.90994500  0.04424400  0.60612800  1
  H  744  1  0.83840500  0.20192700  0.64102000  1
  H  751  1  0.13284100  0.41078600  0.67505700  1
  H  752  1  0.11732600  0.33893900  0.57493600  1
  H  754  1  0.15987300  0.35618300  0.70368200  1
  H  756  1  0.08866500  0.39134200  0.54587200  1
  H  763  1  0.63277300  0.08711600  0.32291500  1
  H  764  1  0.61721600  0.15894600  0.42304900  1
  H  766  1  0.65982800  0.14166800  0.29431800  1
  H  768  1  0.58829800  0.10663400  0.45198900  1
  C  1  1  0.01871400  0.00652900  0.00525300  1
  C  2  1  0.05857800  0.99169700  0.99630600  1
  C  3  1  0.09763100  0.00661700  0.00542200  1
  C  4  1  0.09792600  0.03509600  0.02808300  1
  C  5  1  0.05970300  0.04809100  0.04142900  1
  C  6  1  0.02110000  0.03513400  0.02862800  1
  C  9  1  0.97941600  0.99318500  0.99172300  1
  C  10  1  0.97731800  0.96641400  0.96624100  1
  C  11  1  0.93882900  0.95307800  0.95358800  1
  C  12  1  0.90063900  0.96402800  0.96869100  1
  C  13  1  0.90059500  0.99083600  0.99330900  1
  C  14  1  0.93934100  0.00601800  0.00284600  1
  C  25  1  0.51872900  0.49134900  0.99255600  1
  C  26  1  0.55857400  0.50622800  0.00148000  1
  C  27  1  0.59763800  0.49133600  0.99236300  1
  C  28  1  0.59796400  0.46285300  0.96970800  1
  C  29  1  0.55975800  0.44981300  0.95637400  1
  C  30  1  0.52114600  0.46273100  0.96919700  1
  C  33  1  0.47942500  0.50465000  0.00611600  1
  C  34  1  0.47730200  0.53144200  0.03157800  1
  C  35  1  0.43880300  0.54471600  0.04427700  1
  C  36  1  0.40062000  0.53368500  0.02921500  1
  C  37  1  0.40060100  0.50687800  0.00459700  1
  C  38  1  0.43936500  0.49175400  0.99503200  1
  C  49  1  0.26878600  0.24271500  0.75654400  1
  C  50  1  0.30864200  0.25161500  0.74167000  1
  C  51  1  0.34769500  0.24247000  0.75658000  1
  C  52  1  0.34796600  0.21980400  0.78505900  1
  C  53  1  0.30973000  0.20649600  0.79806300  1
  C  54  1  0.27114100  0.21934300  0.78514400  1
  C  57  1  0.22950200  0.25628300  0.74324300  1
  C  58  1  0.22744800  0.28210300  0.71680800  1
  C  59  1  0.18896500  0.29476900  0.70348100  1
  C  60  1  0.15078700  0.27937200  0.71406300  1
  C  61  1  0.15070800  0.25449300  0.74062600  1
  C  62  1  0.18941900  0.24488700  0.75581700  1
  C  73  1  0.76880800  0.25515700  0.24134300  1
  C  74  1  0.80865000  0.24626300  0.25624700  1
  C  75  1  0.84771400  0.25540500  0.24135900  1
  C  76  1  0.84801100  0.27807500  0.21288600  1
  C  77  1  0.80979000  0.29138800  0.19985300  1
  C  78  1  0.77119000  0.27852400  0.21273700  1
  C  81  1  0.72951700  0.24156900  0.25460800  1
  C  82  1  0.72743800  0.21576200  0.28105900  1
  C  83  1  0.68894500  0.20305800  0.29433100  1
  C  84  1  0.65077500  0.21842400  0.28368400  1
  C  85  1  0.65071800  0.24331100  0.25712800  1
  C  86  1  0.68944800  0.25294200  0.24198700  1
  C  97  1  0.97886900  0.49239100  0.00461800  1
  C  98  1  0.94038300  0.50933600  0.99581300  1
  C  99  1  0.90084800  0.49838300  0.00803200  1
  C  100  1  0.89786900  0.46962300  0.02983600  1
  C  101  1  0.93497800  0.45288400  0.04091600  1
  C  102  1  0.97455500  0.46444400  0.02861900  1
  C  105  1  0.01879400  0.50447200  0.99142100  1
  C  106  1  0.02245600  0.53074000  0.96551100  1
  C  107  1  0.06163300  0.54462300  0.95497100  1
  C  108  1  0.09919100  0.53081700  0.96870700  1
  C  109  1  0.09714500  0.50315900  0.99195800  1
  C  110  1  0.05790000  0.49038500  0.00301700  1
  C  121  1  0.47886200  0.00543100  0.99321600  1
  C  122  1  0.44040400  0.98847300  0.00207400  1
  C  123  1  0.40083100  0.99939300  0.98990200  1
  C  124  1  0.39778900  0.02816100  0.96811100  1
  C  125  1  0.43486400  0.04492700  0.95698500  1
  C  126  1  0.47447200  0.03337300  0.96922000  1
  C  129  1  0.51882400  0.99336300  0.00635700  1
  C  130  1  0.52257600  0.96707200  0.03223500  1
  C  131  1  0.56179600  0.95323200  0.04273300  1
  C  132  1  0.59931200  0.96712600  0.02899500  1
  C  133  1  0.59718000  0.99480800  0.00577900  1
  C  134  1  0.55788800  0.00751300  0.99474800  1
  C  145  1  0.72903000  0.25456500  0.75520800  1
  C  146  1  0.69058200  0.24568000  0.73825300  1
  C  147  1  0.65099000  0.25782500  0.74918600  1
  C  148  1  0.64793500  0.27962000  0.77795300  1
  C  149  1  0.68499700  0.29078700  0.79470500  1
  C  150  1  0.72461700  0.27857300  0.78314500  1
  C  153  1  0.76899500  0.24142300  0.74314000  1
  C  154  1  0.77277000  0.21531300  0.71707600  1
  C  155  1  0.81199200  0.20474100  0.70326200  1
  C  156  1  0.84949300  0.21872400  0.71695700  1
  C  157  1  0.84734800  0.24213600  0.74447900  1
  C  158  1  0.80805300  0.25321100  0.75714000  1
  C  169  1  0.22903700  0.24330200  0.24259100  1
  C  170  1  0.19058800  0.25223500  0.25951800  1
  C  171  1  0.15099200  0.24011500  0.24857500  1
  C  172  1  0.14792900  0.21831300  0.21981300  1
  C  173  1  0.18498900  0.20709800  0.20308300  1
  C  174  1  0.22461500  0.21927600  0.21467000  1
  C  177  1  0.26900600  0.25640200  0.25469400  1
  C  178  1  0.27279100  0.28252900  0.28074400  1
  C  179  1  0.31200800  0.29303900  0.29461700  1
  C  180  1  0.34949800  0.27897700  0.28097600  1
  C  181  1  0.34734700  0.25557200  0.25345100  1
  C  182  1  0.30805900  0.24455400  0.24074100  1
  C  193  1  0.72929900  0.75526500  0.24148300  1
  C  194  1  0.68938100  0.74602100  0.25604400  1
  C  195  1  0.65037100  0.75522100  0.24110100  1
  C  196  1  0.65013700  0.77817800  0.21286300  1
  C  197  1  0.68838300  0.79183400  0.20025100  1
  C  198  1  0.72697400  0.77903600  0.21320700  1
  C  201  1  0.76859400  0.74169100  0.25478800  1
  C  202  1  0.77070100  0.71623000  0.28157500  1
  C  203  1  0.80919000  0.70355400  0.29488300  1
  C  204  1  0.84738300  0.71864400  0.28391400  1
  C  205  1  0.84742400  0.74321500  0.25707000  1
  C  206  1  0.80867500  0.75272900  0.24188300  1
  C  217  1  0.22929000  0.74254500  0.75633200  1
  C  218  1  0.18938700  0.75178600  0.74174200  1
  C  219  1  0.15036300  0.74258600  0.75666500  1
  C  220  1  0.15010700  0.71962400  0.78489900  1
  C  221  1  0.18833900  0.70596500  0.79753900  1
  C  222  1  0.22693800  0.71878100  0.78461500  1
  C  225  1  0.26859200  0.75613900  0.74306000  1
  C  226  1  0.27072400  0.78158700  0.71625800  1
  C  227  1  0.30922300  0.79430200  0.70300900  1
  C  228  1  0.34740700  0.77924000  0.71403800  1
  C  229  1  0.34742300  0.75465900  0.74087600  1
  C  230  1  0.30865900  0.74512100  0.75601300  1
  C  241  1  0.26917900  0.74312700  0.24222600  1
  C  242  1  0.30765200  0.75221900  0.25903100  1
  C  243  1  0.34724000  0.74004800  0.24815100  1
  C  244  1  0.35031000  0.71807700  0.21952200  1
  C  245  1  0.31323400  0.70660500  0.20298200  1
  C  246  1  0.27360200  0.71882200  0.21454300  1
  C  249  1  0.22920700  0.75628600  0.25427400  1
  C  250  1  0.22541700  0.78218000  0.28055600  1
  C  251  1  0.18619000  0.79267000  0.29439000  1
  C  252  1  0.14868600  0.77890000  0.28051500  1
  C  253  1  0.15083900  0.75570100  0.25281500  1
  C  254  1  0.19014700  0.74470100  0.24009800  1
  C  265  1  0.76918100  0.75467700  0.75566200  1
  C  266  1  0.80765200  0.74553600  0.73888500  1
  C  267  1  0.84724400  0.75768100  0.74977400  1
  C  268  1  0.85032700  0.77966100  0.77839700  1
  C  269  1  0.81325200  0.79118100  0.79491300  1
  C  270  1  0.77361600  0.77900000  0.78332800  1
  C  273  1  0.72920400  0.74156200  0.74357900  1
  C  274  1  0.72539800  0.71565200  0.71731100  1
  C  275  1  0.68617200  0.70523000  0.70341900  1
  C  276  1  0.64868100  0.71907700  0.71724600  1
  C  277  1  0.65084100  0.74226900  0.74494800  1
  C  278  1  0.69014900  0.75320900  0.75771200  1
  C  289  1  0.51868500  0.50651200  0.50532000  1
  C  290  1  0.55858300  0.49188300  0.49612600  1
  C  291  1  0.59760300  0.50682100  0.50530700  1
  C  292  1  0.59784300  0.53507300  0.52824600  1
  C  293  1  0.55960300  0.54770300  0.54190200  1
  C  294  1  0.52100700  0.53479200  0.52907900  1
  C  297  1  0.47939900  0.49325500  0.49170800  1
  C  298  1  0.47736500  0.46683500  0.46587300  1
  C  299  1  0.43889800  0.45352700  0.45317800  1
  C  300  1  0.40070200  0.46408300  0.46855500  1
  C  301  1  0.40059100  0.49065800  0.49342000  1
  C  302  1  0.43929600  0.50585900  0.50303500  1
  C  313  1  0.01870200  0.99135900  0.49249400  1
  C  314  1  0.05858300  0.00602200  0.50167100  1
  C  315  1  0.09761500  0.99110900  0.49248400  1
  C  316  1  0.09787700  0.96285500  0.46954800  1
  C  317  1  0.05964900  0.95019400  0.45589400  1
  C  318  1  0.02104600  0.96307200  0.46874300  1
  C  321  1  0.97941300  0.00457900  0.50613500  1
  C  322  1  0.97735900  0.03102200  0.53195000  1
  C  323  1  0.93888600  0.04427300  0.54469100  1
  C  324  1  0.90069300  0.03364300  0.52935500  1
  C  325  1  0.90060200  0.00706600  0.50449200  1
  C  326  1  0.93932200  0.99191400  0.49484900  1
  C  337  1  0.47884700  0.99239900  0.50463200  1
  C  338  1  0.44037900  0.00917400  0.49547300  1
  C  339  1  0.40077500  0.99827400  0.50760300  1
  C  340  1  0.39768800  0.96965100  0.52958700  1
  C  341  1  0.43475300  0.95315000  0.54113600  1
  C  342  1  0.47439900  0.96474000  0.52896600  1
  C  345  1  0.51882400  0.00447700  0.49150400  1
  C  346  1  0.52264600  0.03051400  0.46536000  1
  C  347  1  0.56187100  0.04438700  0.45485700  1
  C  348  1  0.59934700  0.03076300  0.46895500  1
  C  349  1  0.59718000  0.00322300  0.49234200  1
  C  350  1  0.55787600  0.99050000  0.50332900  1
  C  361  1  0.97884700  0.50543400  0.49319900  1
  C  362  1  0.94040800  0.48864900  0.50240900  1
  C  363  1  0.90076300  0.49952300  0.49033300  1
  C  364  1  0.89761300  0.52815100  0.46835900  1
  C  365  1  0.93465000  0.54467200  0.45675800  1
  C  366  1  0.97432700  0.53308700  0.46886700  1
  C  369  1  0.01886000  0.49335800  0.50626900  1
  C  370  1  0.02276200  0.46729900  0.53238300  1
  C  371  1  0.06202400  0.45346200  0.54284600  1
  C  372  1  0.09946400  0.46716500  0.52875200  1
  C  373  1  0.09721900  0.49472800  0.50539300  1
  C  374  1  0.05787500  0.50739100  0.49442900  1
  C  385  1  0.75274900  0.97568600  0.01288400  1
  C  387  1  0.70665300  0.02037300  0.99315400  1
  C  388  1  0.74181000  0.04239300  0.98922900  1
  C  390  1  0.78789100  0.99772700  0.00913600  1
  C  393  1  0.82877100  0.98458700  0.01293700  1
  C  395  1  0.66511300  0.03019500  0.98545600  1
  C  397  1  0.25280000  0.52211600  0.98502800  1
  C  399  1  0.20655100  0.47752800  0.00476200  1
  C  400  1  0.24162000  0.45540400  0.00861800  1
  C  402  1  0.28785700  0.49998200  0.98874400  1
  C  405  1  0.32876400  0.51307100  0.98504800  1
  C  407  1  0.16496200  0.46784600  0.01248100  1
  C  409  1  0.00284700  0.23501100  0.72531400  1
  C  411  1  0.95680500  0.25470100  0.77005300  1
  C  412  1  0.99197200  0.25851700  0.79207900  1
  C  414  1  0.03800600  0.23866400  0.74735200  1
  C  417  1  0.07887700  0.23488800  0.73418000  1
  C  419  1  0.91528700  0.26247600  0.77987700  1
  C  421  1  0.50285600  0.26271900  0.27245700  1
  C  423  1  0.45673800  0.24300600  0.22777500  1
  C  424  1  0.49185100  0.23931000  0.20566700  1
  C  426  1  0.53796300  0.25913600  0.25035100  1
  C  429  1  0.57885000  0.26281400  0.26350000  1
  C  431  1  0.41521000  0.23514600  0.21804200  1
  C  433  1  0.24601600  0.01705500  0.98151000  1
  C  435  1  0.29182300  0.97150500  0.99954200  1
  C  436  1  0.25621800  0.95039800  0.00541600  1
  C  438  1  0.21039000  0.99610500  0.98771800  1
  C  441  1  0.16984800  0.01032400  0.98611900  1
  C  443  1  0.33333333  0.96105000  0.00648100  1
  C  445  1  0.74596100  0.48085000  0.01637700  1
  C  447  1  0.79185500  0.52632700  0.99829700  1
  C  448  1  0.75629000  0.54747100  0.99239600  1
  C  450  1  0.71037800  0.50184100  0.01014000  1
  C  453  1  0.66982500  0.48764300  0.01170900  1
  C  455  1  0.83338900  0.53670600  0.99137000  1
  C  457  1  0.99529200  0.76284500  0.27208900  1
  C  459  1  0.04132200  0.74310900  0.22736100  1
  C  460  1  0.00613100  0.73917400  0.20537900  1
  C  462  1  0.96011300  0.75907700  0.25009000  1
  C  465  1  0.91924800  0.76285500  0.26326300  1
  C  467  1  0.08283800  0.73539800  0.21748100  1
  C  469  1  0.49529100  0.73510400  0.72583400  1
  C  471  1  0.54139300  0.75486500  0.77050700  1
  C  472  1  0.50625800  0.75867900  0.79256900  1
  C  474  1  0.46016600  0.73880000  0.74790100  1
  C  477  1  0.41928500  0.73511700  0.73474800  1
  C  479  1  0.58292100  0.76266200  0.78029800  1
  C  481  1  0.25264600  0.47544100  0.51274600  1
  C  483  1  0.20671900  0.52024100  0.49302100  1
  C  484  1  0.24193400  0.54222700  0.48926300  1
  C  486  1  0.28785500  0.49743900  0.50914000  1
  C  489  1  0.32871000  0.48423600  0.51294200  1
  C  491  1  0.16525300  0.53014700  0.48517000  1
  C  493  1  0.75268900  0.02235900  0.48517700  1
  C  495  1  0.70661600  0.97765100  0.50489700  1
  C  496  1  0.74175000  0.95556600  0.50859100  1
  C  498  1  0.78781800  0.00027200  0.48875200  1
  C  501  1  0.82869900  0.01343000  0.48505900  1
  C  503  1  0.66510300  0.96787400  0.51276900  1
  C  505  1  0.50192800  0.73159400  0.23043300  1
  C  507  1  0.45620800  0.74960900  0.27604800  1
  C  508  1  0.49183900  0.75531400  0.29717100  1
  C  510  1  0.53758100  0.73763100  0.25140100  1
  C  513  1  0.57811700  0.73599600  0.23716800  1
  C  515  1  0.41473600  0.75664500  0.28651600  1
  C  517  1  0.00195100  0.76624400  0.76736900  1
  C  519  1  0.95618900  0.74817500  0.72180100  1
  C  520  1  0.99179500  0.74250300  0.70064200  1
  C  522  1  0.03758300  0.76022700  0.74636700  1
  C  525  1  0.07812200  0.76183400  0.76059100  1
  C  527  1  0.91471500  0.74109000  0.71137600  1
  C  529  1  0.74609100  0.51738800  0.48170100  1
  C  531  1  0.79173800  0.47173500  0.49973700  1
  C  532  1  0.75606900  0.45063800  0.50539300  1
  C  534  1  0.71040000  0.49645100  0.48771000  1
  C  537  1  0.66987600  0.51071100  0.48608500  1
  C  539  1  0.83316200  0.46119200  0.50684700  1
  C  541  1  0.24604700  0.98051900  0.51617800  1
  C  543  1  0.29176100  0.02611500  0.49810400  1
  C  544  1  0.25612800  0.04724400  0.49243000  1
  C  546  1  0.21038900  0.00148600  0.51014800  1
  C  549  1  0.16986300  0.98723500  0.51173700  1
  C  551  1  0.33322100  0.03658400  0.49100900  1
  C  553  1  0.49614400  0.26625500  0.76699700  1
  C  555  1  0.54191100  0.24820900  0.72142400  1
  C  556  1  0.50628400  0.24235900  0.70033500  1
  C  558  1  0.46049400  0.26007500  0.74605700  1
  C  561  1  0.41995100  0.26169700  0.76028100  1
  C  563  1  0.58339500  0.24124700  0.71092200  1
  C  565  1  0.99612600  0.23158500  0.23089800  1
  C  567  1  0.04194000  0.24969400  0.27641600  1
  C  568  1  0.00633900  0.25551400  0.29754200  1
  C  570  1  0.96050100  0.23774900  0.25187100  1
  C  573  1  0.91995200  0.23614600  0.23766200  1
  C  575  1  0.08343100  0.25669900  0.28686700  1
  C  577  1  0.11610800  0.09879500  0.14190300  1
  C  579  1  0.14715000  0.15484600  0.13451200  1
  C  580  1  0.12710300  0.15705500  0.10201700  1
  C  582  1  0.09572400  0.10115300  0.10954600  1
  C  585  1  0.07672900  0.07260200  0.09449200  1
  C  587  1  0.16499600  0.18367300  0.14992300  1
  C  589  1  0.61613000  0.39886700  0.85593500  1
  C  591  1  0.64713300  0.34280800  0.86333700  1
  C  592  1  0.62712200  0.34061000  0.89583900  1
  C  594  1  0.59577100  0.39651800  0.88830800  1
  C  597  1  0.57701100  0.42511300  0.90343500  1
  C  599  1  0.66523600  0.31402500  0.84799700  1
  C  601  1  0.36606600  0.10604800  0.84874200  1
  C  603  1  0.39709800  0.11349600  0.90478600  1
  C  604  1  0.37698900  0.14596200  0.90700200  1
  C  606  1  0.34562200  0.13837700  0.85110200  1
  C  609  1  0.32661300  0.15341100  0.82255400  1
  C  611  1  0.41495400  0.09810800  0.93361000  1
  C  613  1  0.86612700  0.39178800  0.14893700  1
  C  615  1  0.89716500  0.38429300  0.09290400  1
  C  616  1  0.87706600  0.35183000  0.09070400  1
  C  618  1  0.84569600  0.35945100  0.14658800  1
  C  621  1  0.82690400  0.34435300  0.17517700  1
  C  623  1  0.91530600  0.39958700  0.06412300  1
  C  625  1  0.88073300  0.90181200  0.85355200  1
  C  627  1  0.85121700  0.84534500  0.86206100  1
  C  628  1  0.87173000  0.84397800  0.89440300  1
  C  630  1  0.90164400  0.90027000  0.88572700  1
  C  633  1  0.91993900  0.92933400  0.90038900  1
  C  635  1  0.83379400  0.81598000  0.84734700  1
  C  637  1  0.38074200  0.59622100  0.14426700  1
  C  639  1  0.35125100  0.65269300  0.13576300  1
  C  640  1  0.37174500  0.65406300  0.10342000  1
  C  642  1  0.40164600  0.59777400  0.11208500  1
  C  645  1  0.41974600  0.56868700  0.09734900  1
  C  647  1  0.33355900  0.68200800  0.15041000  1
  C  649  1  0.63133300  0.89272400  0.15121400  1
  C  651  1  0.59871800  0.88515400  0.09579500  1
  C  652  1  0.61897900  0.85277800  0.09317900  1
  C  654  1  0.65190900  0.86048000  0.14844000  1
  C  657  1  0.67151800  0.84532200  0.17665100  1
  C  659  1  0.57990800  0.90029100  0.06725000  1
  C  661  1  0.13129500  0.60510600  0.84678500  1
  C  663  1  0.09864800  0.61270900  0.90218400  1
  C  664  1  0.11892700  0.64507200  0.90480700  1
  C  666  1  0.15187900  0.63735000  0.84956700  1
  C  669  1  0.17126500  0.65258800  0.82131800  1
  C  671  1  0.07940900  0.59768100  0.93063900  1
  C  673  1  0.61655900  0.59669600  0.64287200  1
  C  675  1  0.64918900  0.65211600  0.63535400  1
  C  676  1  0.62899800  0.65473400  0.60295000  1
  C  678  1  0.59605200  0.59947100  0.61059700  1
  C  681  1  0.57647100  0.57126800  0.59540100  1
  C  683  1  0.66799600  0.68066100  0.65050400  1
  C  685  1  0.11656100  0.90094100  0.35496100  1
  C  687  1  0.14913100  0.84549800  0.36248900  1
  C  688  1  0.12895700  0.84290300  0.39489800  1
  C  690  1  0.09606700  0.89817600  0.38724300  1
  C  693  1  0.07674100  0.92643000  0.40251700  1
  C  695  1  0.16828900  0.81702400  0.34742700  1
  C  697  1  0.86714700  0.60342700  0.34609400  1
  C  699  1  0.89664000  0.61184800  0.40258400  1
  C  700  1  0.87620600  0.64422400  0.40395900  1
  C  702  1  0.84630900  0.63563300  0.34764900  1
  C  705  1  0.82804500  0.65034100  0.31859300  1
  C  707  1  0.91403900  0.59709800  0.43194500  1
  C  709  1  0.36716800  0.89438200  0.65156900  1
  C  711  1  0.39667100  0.88594100  0.59508900  1
  C  712  1  0.37623700  0.85357000  0.59371200  1
  C  714  1  0.34632700  0.86217400  0.65000900  1
  C  717  1  0.32825200  0.84739600  0.67908300  1
  C  719  1  0.41435100  0.90060500  0.56577500  1
  C  721  1  0.38033100  0.40389900  0.35261900  1
  C  723  1  0.34922300  0.34803100  0.36125400  1
  C  724  1  0.36981200  0.34629700  0.39354400  1
  C  726  1  0.40128900  0.40198000  0.38475500  1
  C  729  1  0.42013100  0.43073500  0.39956100  1
  C  731  1  0.33084900  0.31893000  0.34680300  1
  C  733  1  0.88036600  0.09416200  0.64520400  1
  C  735  1  0.84930600  0.15004900  0.63657400  1
  C  736  1  0.86988600  0.15177900  0.60428100  1
  C  738  1  0.90132800  0.09608900  0.61306500  1
  C  741  1  0.91995800  0.06730800  0.59818100  1
  C  743  1  0.83057800  0.17907700  0.65094200  1
  C  745  1  0.13034500  0.39534700  0.65377900  1
  C  747  1  0.09929900  0.38679500  0.59787200  1
  C  748  1  0.11979100  0.35445800  0.59616200  1
  C  750  1  0.15122600  0.36317300  0.65187600  1
  C  753  1  0.17003400  0.34834300  0.68064100  1
  C  755  1  0.08099100  0.40128900  0.56875600  1
  C  757  1  0.63033500  0.10251700  0.34422600  1
  C  759  1  0.59924900  0.11108000  0.40011600  1
  C  760  1  0.61976800  0.14340000  0.40185200  1
  C  762  1  0.65124200  0.13468300  0.34615800  1
  C  765  1  0.66986600  0.14959300  0.31738300  1
  C  767  1  0.58052100  0.09668600  0.42914100  1
  N  21  1  0.86403600  0.00332500  0.00678800  1
  N  22  1  0.93579000  0.92727300  0.93099000  1
  N  23  1  0.06310600  0.07457700  0.06317900  1
  N  24  1  0.13397900  0.99262800  0.99305100  1
  N  45  1  0.36405400  0.49434600  0.99113700  1
  N  46  1  0.43572900  0.57060300  0.06678500  1
  N  47  1  0.56319200  0.42326300  0.93469900  1
  N  48  1  0.63397000  0.50534400  0.00474900  1
  N  69  1  0.11414300  0.24089000  0.75296200  1
  N  70  1  0.18588300  0.31778000  0.67806200  1
  N  71  1  0.31309300  0.18474900  0.82454000  1
  N  72  1  0.38406500  0.25480600  0.74258800  1
  N  93  1  0.61415800  0.25689200  0.24475200  1
  N  94  1  0.68583400  0.18012800  0.31982500  1
  N  95  1  0.81318300  0.31306300  0.17331500  1
  N  96  1  0.88406900  0.24304800  0.25535800  1
  N  117  1  0.13367300  0.48792400  0.00062400  1
  N  118  1  0.06613600  0.56634000  0.92865100  1
  N  119  1  0.93045800  0.43032200  0.06651400  1
  N  120  1  0.86559900  0.51618100  0.00063200  1
  N  141  1  0.63360400  0.01022600  0.99712400  1
  N  142  1  0.56637000  0.93157300  0.06909900  1
  N  143  1  0.43030300  0.06742700  0.93133300  1
  N  144  1  0.36565500  0.98149900  0.99732000  1
  N  165  1  0.88373100  0.25082000  0.75994800  1
  N  166  1  0.81655000  0.17793100  0.68211100  1
  N  167  1  0.68039800  0.31639800  0.81725900  1
  N  168  1  0.61581400  0.25038100  0.73129400  1
  N  189  1  0.38375500  0.24687400  0.23803100  1
  N  190  1  0.31660900  0.31991800  0.31568600  1
  N  191  1  0.18038100  0.18142300  0.18059700  1
  N  192  1  0.11581700  0.24755300  0.26646900  1
  N  213  1  0.88397400  0.75667800  0.24454900  1
  N  214  1  0.81222600  0.68095000  0.32067900  1
  N  215  1  0.68499100  0.81400700  0.17415000  1
  N  216  1  0.61398800  0.74274100  0.25492900  1
  N  237  1  0.38396700  0.74121400  0.75343600  1
  N  238  1  0.31229200  0.81682600  0.67713800  1
  N  239  1  0.18491800  0.68386200  0.82369900  1
  N  240  1  0.11399300  0.75508400  0.74283100  1
  N  261  1  0.11442400  0.74703200  0.23738900  1
  N  262  1  0.18161600  0.81899500  0.31609900  1
  N  263  1  0.31777200  0.68047600  0.18099300  1
  N  264  1  0.38234900  0.74752200  0.26611300  1
  N  285  1  0.61440800  0.75095800  0.76033000  1
  N  286  1  0.68154800  0.67883800  0.68178600  1
  N  287  1  0.81779500  0.81737800  0.81682800  1
  N  288  1  0.88234400  0.75021700  0.73179700  1
  N  309  1  0.36400300  0.50299900  0.50697900  1
  N  310  1  0.43586800  0.42812800  0.43015700  1
  N  311  1  0.56299900  0.57379300  0.56408500  1
  N  312  1  0.63398300  0.49297400  0.49283200  1
  N  333  1  0.86401700  0.99468400  0.49096000  1
  N  334  1  0.93583100  0.06976100  0.56761600  1
  N  335  1  0.06307000  0.92403700  0.43378600  1
  N  336  1  0.13397600  0.00496900  0.50497500  1
  N  357  1  0.63358500  0.98780500  0.50106000  1
  N  358  1  0.56648600  0.06551500  0.42802200  1
  N  359  1  0.43017900  0.93117800  0.56728900  1
  N  360  1  0.36564600  0.01620800  0.50012100  1
  N  381  1  0.13352500  0.51032100  0.49669100  1
  N  382  1  0.06669400  0.43239100  0.56972900  1
  N  383  1  0.93003800  0.56657900  0.43055400  1
  N  384  1  0.86573500  0.48145600  0.49783600  1
  N  386  1  0.71399800  0.98788500  0.00494200  1
  N  389  1  0.78089100  0.03030000  0.99732500  1
  N  398  1  0.21402200  0.51001400  0.99301200  1
  N  401  1  0.28074300  0.46741300  0.00053000  1
  N  410  1  0.96411500  0.24297500  0.73753800  1
  N  413  1  0.03103400  0.25040000  0.77996000  1
  N  422  1  0.46412000  0.25468200  0.26029700  1
  N  425  1  0.53093100  0.24744300  0.21773800  1
  N  434  1  0.28483400  0.00398700  0.98768100  1
  N  437  1  0.21703500  0.96347900  0.99949400  1
  N  446  1  0.78479800  0.49385900  0.01018100  1
  N  449  1  0.71708400  0.53444400  0.99833100  1
  N  458  1  0.03403100  0.75490600  0.25985300  1
  N  461  1  0.96706800  0.74725700  0.21751200  1
  N  470  1  0.53403300  0.74311700  0.73800500  1
  N  473  1  0.46717800  0.75057800  0.78048600  1
  N  482  1  0.21394300  0.48771300  0.50474000  1
  N  485  1  0.28095800  0.53005900  0.49741500  1
  N  494  1  0.71396000  0.01017800  0.49321900  1
  N  497  1  0.78081500  0.96765700  0.50044800  1
  N  506  1  0.46314100  0.73783000  0.24352700  1
  N  509  1  0.53099100  0.74931500  0.28406600  1
  N  518  1  0.96315500  0.75995400  0.75431600  1
  N  521  1  0.03096200  0.74853300  0.71371000  1
  N  530  1  0.78486400  0.50426300  0.48796600  1
  N  533  1  0.71693800  0.46377600  0.49938100  1
  N  542  1  0.28483300  0.99359800  0.50988800  1
  N  545  1  0.21697700  0.03414700  0.49845500  1
  N  554  1  0.53495600  0.26006700  0.75391300  1
  N  557  1  0.46711500  0.24830200  0.71343200  1
  N  566  1  0.03494700  0.23783100  0.24393400  1
  N  569  1  0.96715700  0.24953400  0.28448900  1
  N  578  1  0.14000100  0.12561100  0.15316200  1
  N  581  1  0.10302700  0.13031600  0.09083600  1
  N  590  1  0.64002900  0.37205000  0.84468000  1
  N  593  1  0.60309300  0.36737400  0.90703300  1
  N  602  1  0.38998100  0.09482900  0.87555700  1
  N  605  1  0.35288800  0.15710300  0.88026400  1
  N  614  1  0.89008000  0.40298400  0.12213100  1
  N  617  1  0.85298600  0.34069800  0.11745500  1
  N  626  1  0.85737700  0.87441500  0.84290800  1
  N  629  1  0.89526600  0.87128100  0.90493800  1
  N  638  1  0.35736400  0.62360900  0.15490900  1
  N  641  1  0.39525600  0.62675000  0.09287200  1
  N  650  1  0.60655900  0.90386000  0.12487700  1
  N  653  1  0.64391100  0.84174200  0.11942100  1
  N  662  1  0.10645000  0.59399800  0.87309100  1
  N  665  1  0.14385700  0.65610000  0.87856700  1
  N  674  1  0.64131100  0.62303400  0.65404700  1
  N  677  1  0.60409200  0.62849100  0.59187500  1
  N  686  1  0.14132500  0.87460300  0.34379600  1
  N  689  1  0.10410200  0.86917100  0.40598100  1
  N  698  1  0.89046200  0.59272900  0.37349700  1
  N  701  1  0.85270800  0.65481600  0.37665100  1
  N  710  1  0.39052400  0.90506700  0.62418100  1
  N  713  1  0.35275200  0.84298000  0.62102200  1
  N  722  1  0.35614400  0.37694800  0.34203900  1
  N  725  1  0.39414100  0.37313800  0.40399200  1
  N  734  1  0.85615800  0.12110600  0.65577300  1
  N  737  1  0.89418600  0.12492400  0.59382500  1
  N  746  1  0.10623000  0.40598100  0.62680200  1
  N  749  1  0.14406000  0.34395300  0.62302600  1
  N  758  1  0.60614200  0.09190200  0.37116500  1
  N  761  1  0.64405300  0.15390300  0.37500000  1
  O  8  1  0.13534000  0.04633200  0.04178700  1
  O  15  1  0.86321100  0.95261300  0.95515900  1
  O  32  1  0.63539800  0.45163100  0.95603100  1
  O  39  1  0.36318200  0.54506400  0.04276000  1
  O  56  1  0.38536000  0.20606700  0.79629800  1
  O  63  1  0.11336600  0.29287600  0.70260400  1
  O  80  1  0.88542400  0.29178500  0.20165500  1
  O  87  1  0.61334400  0.20490800  0.29511000  1
  O  104  1  0.85968000  0.46081300  0.04359900  1
  O  111  1  0.13763300  0.54273300  0.95789800  1
  O  128  1  0.35957200  0.03692400  0.95437000  1
  O  135  1  0.63779200  0.95529800  0.03979800  1
  O  152  1  0.60970100  0.29330700  0.78675300  1
  O  159  1  0.88799500  0.20786000  0.70523800  1
  O  176  1  0.10968700  0.20463900  0.21102200  1
  O  183  1  0.38801300  0.28979900  0.29271600  1
  O  200  1  0.61274300  0.79189600  0.20160000  1
  O  207  1  0.88480500  0.70512200  0.29534200  1
  O  224  1  0.11269400  0.70592900  0.79615100  1
  O  231  1  0.38484200  0.79277300  0.70264600  1
  O  248  1  0.38856000  0.70434800  0.21085500  1
  O  255  1  0.11020500  0.78965200  0.29238600  1
  O  272  1  0.88858600  0.79337900  0.78705000  1
  O  279  1  0.61018500  0.70836900  0.70536100  1
  O  296  1  0.63524000  0.54634100  0.54195100  1
  O  303  1  0.36330800  0.45260300  0.45502300  1
  O  320  1  0.13529300  0.95159500  0.45587100  1
  O  327  1  0.86329000  0.04509100  0.54290100  1
  O  344  1  0.35941700  0.96095200  0.54325900  1
  O  351  1  0.63786500  0.04254600  0.45818500  1
  O  368  1  0.85932000  0.53680400  0.45471300  1
  O  375  1  0.13801300  0.45546400  0.53951900  1
