# generated using pymatgen
data_Zn5H16(C3O2)18
_symmetry_space_group_name_H-M   'P 1'
_cell_length_a   13.49032000
_cell_length_b   15.69213000
_cell_length_c   20.40512000
_cell_angle_alpha   90.00469000
_cell_angle_beta   90.07231000
_cell_angle_gamma   94.60033000
_symmetry_Int_Tables_number   1
_chemical_formula_structural   Zn5H16(C3O2)18
_chemical_formula_sum   'Zn10 H32 C108 O72'
_cell_volume   4305.67826182
_cell_formula_units_Z   2
loop_
 _symmetry_equiv_pos_site_id
 _symmetry_equiv_pos_as_xyz
  1  'x, y, z'
loop_
 _atom_site_type_symbol
 _atom_site_label
 _atom_site_symmetry_multiplicity
 _atom_site_fract_x
 _atom_site_fract_y
 _atom_site_fract_z
 _atom_site_occupancy
  Zn  Zn0  1  0.07393000  0.55604000  0.65397000  1
  Zn  Zn1  1  0.54714000  0.94072000  0.56591000  1
  Zn  Zn2  1  0.92349000  0.94565000  0.15431000  1
  Zn  Zn3  1  0.92607000  0.44396000  0.34602000  1
  Zn  Zn4  1  0.45286000  0.05929000  0.43409000  1
  Zn  Zn5  1  0.07653000  0.05431000  0.84567000  1
  Zn  Zn6  1  0.99999000  0.50000000  0.49999000  1
  Zn  Zn7  1  0.54693000  0.44001000  0.93437000  1
  Zn  Zn8  1  0.99944000  0.00081000  0.00016000  1
  Zn  Zn9  1  0.45308000  0.55999000  0.06563000  1
  H  H10  1  0.96021000  0.81465000  0.95174000  1
  H  H11  1  0.81525000  0.48085000  0.75517000  1
  H  H12  1  0.52773000  0.84306000  0.77125000  1
  H  H13  1  0.24706000  0.39142000  0.11807000  1
  H  H14  1  0.70137000  0.23398000  0.43569000  1
  H  H15  1  0.49353000  0.79754000  0.98876000  1
  H  H16  1  0.29863000  0.76602000  0.56431000  1
  H  H17  1  0.29937000  0.26516000  0.93563000  1
  H  H18  1  0.18524000  0.01904000  0.25420000  1
  H  H19  1  0.47069000  0.65921000  0.27016000  1
  H  H20  1  0.50589000  0.70433000  0.48802000  1
  H  H21  1  0.75218000  0.10740000  0.61831000  1
  H  H22  1  0.71686000  0.90096000  0.93863000  1
  H  H23  1  0.70064000  0.73485000  0.06437000  1
  H  H24  1  0.52931000  0.34079000  0.72984000  1
  H  H25  1  0.71802000  0.39861000  0.56251000  1
  H  H26  1  0.49411000  0.29568000  0.51198000  1
  H  H27  1  0.18475000  0.51916000  0.24483000  1
  H  H28  1  0.96064000  0.31274000  0.54955000  1
  H  H29  1  0.81476000  0.98096000  0.74579000  1
  H  H30  1  0.47227000  0.15694000  0.22875000  1
  H  H31  1  0.99458000  0.37597000  0.22963000  1
  H  H32  1  0.24782000  0.89261000  0.38169000  1
  H  H33  1  0.28198000  0.60140000  0.43748000  1
  H  H34  1  0.28314000  0.09905000  0.06137000  1
  H  H35  1  0.03978000  0.18541000  0.04827000  1
  H  H36  1  0.99459000  0.87837000  0.27031000  1
  H  H37  1  0.75294000  0.60859000  0.88193000  1
  H  H38  1  0.00541000  0.62404000  0.77037000  1
  H  H39  1  0.00541000  0.12164000  0.72969000  1
  H  H40  1  0.03936000  0.68727000  0.45044000  1
  H  H41  1  0.50648000  0.20247000  0.01124000  1
  C  C42  1  0.25418000  0.27103000  0.97930000  1
  C  C43  1  0.70487000  0.79492000  0.43838000  1
  C  C44  1  0.86274000  0.21049000  0.59163000  1
  C  C45  1  0.15405000  0.30753000  0.60429000  1
  C  C46  1  0.12517000  0.39658000  0.59579000  1
  C  C47  1  0.71649000  0.16620000  0.52683000  1
  C  C48  1  0.34945000  0.57641000  0.17873000  1
  C  C49  1  0.16675000  0.21775000  0.98754000  1
  C  C50  1  0.23449000  0.68138000  0.88744000  1
  C  C51  1  0.33075000  0.08677000  0.24889000  1
  C  C52  1  0.15329000  0.17095000  0.65601000  1
  C  C53  1  0.61430000  0.86768000  0.85923000  1
  C  C54  1  0.84492000  0.19251000  0.10308000  1
  C  C55  1  0.84855000  0.88843000  0.28824000  1
  C  C56  1  0.22562000  0.84296000  0.41723000  1
  C  C57  1  0.38437000  0.63499000  0.35817000  1
  C  C58  1  0.87434000  0.48080000  0.62887000  1
  C  C59  1  0.28351000  0.83381000  0.47317000  1
  C  C60  1  0.76516000  0.23378000  0.07894000  1
  C  C61  1  0.22516000  0.34173000  0.08243000  1
  C  C62  1  0.59869000  0.36950000  0.70946000  1
  C  C63  1  0.75889000  0.94904000  0.77765000  1
  C  C64  1  0.67024000  0.41235000  0.74996000  1
  C  C65  1  0.13727000  0.78951000  0.40837000  1
  C  C66  1  0.22356000  0.05548000  0.15488000  1
  C  C67  1  0.32977000  0.58765000  0.25004000  1
  C  C68  1  0.63589000  0.82424000  0.48974000  1
  C  C69  1  0.23278000  0.26588000  0.57885000  1
  C  C70  1  0.22266000  0.55704000  0.34406000  1
  C  C71  1  0.84866000  0.38679000  0.21207000  1
  C  C72  1  0.12566000  0.51921000  0.37113000  1
  C  C73  1  0.62476000  0.60810000  0.98425000  1
  C  C74  1  0.63293000  0.32322000  0.01164000  1
  C  C75  1  0.25365000  0.77214000  0.52050000  1
  C  C76  1  0.62461000  0.10718000  0.51582000  1
  C  C77  1  0.66926000  0.91323000  0.75110000  1
  C  C78  1  0.77645000  0.94451000  0.84511000  1
  C  C79  1  0.15134000  0.61324000  0.78793000  1
  C  C80  1  0.86587000  0.84538000  0.06415000  1
  C  C81  1  0.15145000  0.11157000  0.71176000  1
  C  C82  1  0.40275000  0.12839000  0.20837000  1
  C  C83  1  0.77734000  0.44297000  0.65594000  1
  C  C84  1  0.36708000  0.67679000  0.98836000  1
  C  C85  1  0.77438000  0.15705000  0.58276000  1
  C  C86  1  0.70183000  0.29428000  0.06312000  1
  C  C87  1  0.92705000  0.19405000  0.64718000  1
  C  C88  1  0.40131000  0.63051000  0.29053000  1
  C  C89  1  0.15368000  0.67212000  0.84392000  1
  C  C90  1  0.29514000  0.20508000  0.56162000  1
  C  C91  1  0.10786000  0.72770000  0.45575000  1
  C  C92  1  0.37539000  0.89282000  0.48418000  1
  C  C93  1  0.71663000  0.66715000  0.97331000  1
  C  C94  1  0.77484000  0.65828000  0.91757000  1
  C  C95  1  0.90040000  0.75442000  0.35524000  1
  C  C96  1  0.34913000  0.07860000  0.32055000  1
  C  C97  1  0.28338000  0.33286000  0.02669000  1
  C  C98  1  0.29819000  0.70575000  0.93689000  1
  C  C99  1  0.23295000  0.18047000  0.61176000  1
  C  C100  1  0.76722000  0.73413000  0.42115000  1
  C  C101  1  0.87450000  0.98057000  0.87183000  1
  C  C102  1  0.15500000  0.80754000  0.89700000  1
  C  C103  1  0.36411000  0.17576000  0.51026000  1
  C  C104  1  0.29631000  0.09597000  0.11383000  1
  C  C105  1  0.10814000  0.22606000  0.04340000  1
  C  C106  1  0.70482000  0.40174000  0.61495000  1
  C  C107  1  0.92724000  0.69599000  0.85337000  1
  C  C108  1  0.16593000  0.71931000  0.51194000  1
  C  C109  1  0.74635000  0.22787000  0.47950000  1
  C  C110  1  0.07275000  0.30401000  0.14664000  1
  C  C111  1  0.89990000  0.25355000  0.14400000  1
  C  C112  1  0.37525000  0.39191000  0.01575000  1
  C  C113  1  0.61563000  0.36502000  0.64182000  1
  C  C114  1  0.87322000  0.10380000  0.09346000  1
  C  C115  1  0.89214000  0.27231000  0.54425000  1
  C  C116  1  0.13194000  0.65625000  0.56326000  1
  C  C117  1  0.10006000  0.74648000  0.85603000  1
  C  C118  1  0.12549000  0.01948000  0.12816000  1
  C  C119  1  0.76705000  0.81953000  0.38824000  1
  C  C120  1  0.07295000  0.80596000  0.35282000  1
  C  C121  1  0.83326000  0.78226000  0.01246000  1
  C  C122  1  0.65086000  0.92141000  0.67945000  1
  C  C123  1  0.53444000  0.82376000  0.90051000  1
  C  C124  1  0.70370000  0.90403000  0.88617000  1
  C  C125  1  0.13694000  0.28793000  0.09097000  1
  C  C126  1  0.84595000  0.69247000  0.39571000  1
  C  C127  1  0.76553000  0.31871000  0.11255000  1
  C  C128  1  0.53553000  0.32137000  0.60017000  1
  C  C129  1  0.89187000  0.77396000  0.95659000  1
  C  C130  1  0.46556000  0.17625000  0.09949000  1
  C  C131  1  0.84671000  0.82905000  0.34399000  1
  C  C132  1  0.09961000  0.24558000  0.64475000  1
  C  C133  1  0.59725000  0.87161000  0.79163000  1
  C  C134  1  0.24111000  0.05096000  0.22234000  1
  C  C135  1  0.75977000  0.44807000  0.72337000  1
  C  C136  1  0.65055000  0.42359000  0.82127000  1
  C  C137  1  0.23481000  0.76623000  0.92109000  1
  C  C138  1  0.74584000  0.72898000  0.02070000  1
  C  C139  1  0.86806000  0.34375000  0.43674000  1
  C  C140  1  0.86306000  0.71207000  0.90903000  1
  C  C141  1  0.83407000  0.28069000  0.48806000  1
  C  C142  1  0.84632000  0.32795000  0.15606000  1
  C  C143  1  0.46448000  0.67864000  0.39982000  1
  C  C144  1  0.38571000  0.13232000  0.14077000  1
  C  C145  1  0.13417000  0.15467000  0.93582000  1
  C  C146  1  0.87484000  0.60342000  0.40421000  1
  C  C147  1  0.24023000  0.55193000  0.27663000  1
  C  C148  1  0.29519000  0.59827000  0.38505000  1
  C  C149  1  0.12670000  0.89628000  0.90662000  1
  O  O150  1  0.87984000  0.56094000  0.35113000  1
  O  O151  1  0.55040000  0.83143000  0.96486000  1
  O  O152  1  0.27739000  0.06002000  0.35852000  1
  O  O153  1  0.55128000  0.32933000  0.53576000  1
  O  O154  1  0.55996000  0.90953000  0.65903000  1
  O  O155  1  0.58991000  0.60582000  0.04234000  1
  O  O156  1  0.46144000  0.28162000  0.62397000  1
  O  O157  1  0.78033000  0.42883000  0.22709000  1
  O  O158  1  0.41550000  0.23019000  0.47729000  1
  O  O159  1  0.36487000  0.59562000  0.99358000  1
  O  O160  1  0.58450000  0.76982000  0.52271000  1
  O  O161  1  0.99680000  0.74053000  0.34000000  1
  O  O162  1  0.58973000  0.56580000  0.93511000  1
  O  O163  1  0.89506000  0.46255000  0.57001000  1
  O  O164  1  0.58443000  0.26842000  0.97722000  1
  O  O165  1  0.99614000  0.23875000  0.15922000  1
  O  O166  1  0.64003000  0.90529000  0.49623000  1
  O  O167  1  0.41032000  0.93470000  0.43483000  1
  O  O168  1  0.82004000  0.35048000  0.38360000  1
  O  O169  1  0.41010000  0.39419000  0.95766000  1
  O  O170  1  0.18449000  0.14755000  0.88384000  1
  O  O171  1  0.81555000  0.85247000  0.11615000  1
  O  O172  1  0.91845000  0.63243000  0.81828000  1
  O  O173  1  0.17996000  0.64953000  0.61640000  1
  O  O174  1  0.06953000  0.97454000  0.16782000  1
  O  O175  1  0.92984000  0.38559000  0.25344000  1
  O  O176  1  0.04938000  0.60986000  0.55502000  1
  O  O177  1  0.41028000  0.43421000  0.06489000  1
  O  O178  1  0.78030000  0.93068000  0.27331000  1
  O  O179  1  0.10526000  0.91864000  0.96392000  1
  O  O180  1  0.27954000  0.55425000  0.13998000  1
  O  O181  1  0.12016000  0.43907000  0.64887000  1
  O  O182  1  0.89454000  0.08159000  0.03607000  1
  O  O183  1  0.41558000  0.73159000  0.02279000  1
  O  O184  1  0.12487000  0.93970000  0.85382000  1
  O  O185  1  0.94920000  0.89164000  0.05753000  1
  O  O186  1  0.00321000  0.25948000  0.65999000  1
  O  O187  1  0.58968000  0.06531000  0.56517000  1
  O  O188  1  0.10486000  0.03857000  0.06931000  1
  O  O189  1  0.44873000  0.67067000  0.46424000  1
  O  O190  1  0.07048000  0.47278000  0.33171000  1
  O  O191  1  0.21967000  0.57119000  0.77292000  1
  O  O192  1  0.55941000  0.41118000  0.84093000  1
  O  O193  1  0.89426000  0.57965000  0.46157000  1
  O  O194  1  0.46071000  0.78384000  0.87623000  1
  O  O195  1  0.91860000  0.13014000  0.68188000  1
  O  O196  1  0.41012000  0.89593000  0.54230000  1
  O  O197  1  0.92952000  0.88766000  0.24662000  1
  O  O198  1  0.44004000  0.09048000  0.34096000  1
  O  O199  1  0.21970000  0.06932000  0.72668000  1
  O  O200  1  0.58988000  0.10407000  0.45770000  1
  O  O201  1  0.63513000  0.40439000  0.00642000  1
  O  O202  1  0.35997000  0.09471000  0.50377000  1
  O  O203  1  0.95062000  0.39014000  0.44498000  1
  O  O204  1  0.08140000  0.86987000  0.31812000  1
  O  O205  1  0.00385000  0.76126000  0.84078000  1
  O  O206  1  0.53857000  0.71838000  0.37603000  1
  O  O207  1  0.10574000  0.42035000  0.53843000  1
  O  O208  1  0.05075000  0.10847000  0.94236000  1
  O  O209  1  0.53928000  0.21617000  0.12377000  1
  O  O210  1  0.07048000  0.11234000  0.75338000  1
  O  O211  1  0.07016000  0.61441000  0.74656000  1
  O  O212  1  0.72260000  0.93999000  0.64147000  1
  O  O213  1  0.10495000  0.53746000  0.42999000  1
  O  O214  1  0.44961000  0.16858000  0.03513000  1
  O  O215  1  0.92952000  0.52722000  0.66829000  1
  O  O216  1  0.87516000  0.06031000  0.14617000  1
  O  O217  1  0.44059000  0.58882000  0.15907000  1
  O  O218  1  0.08155000  0.36758000  0.18171000  1
  O  O219  1  0.89511000  0.96156000  0.93070000  1
  O  O220  1  0.72047000  0.44576000  0.86001000  1
  O  O221  1  0.93046000  0.02549000  0.83216000  1
