# generated using pymatgen
data_H7C11N2O
_symmetry_space_group_name_H-M   'P 1'
_cell_length_a   26.82140000
_cell_length_b   26.82140000
_cell_length_c   26.82140000
_cell_angle_alpha   90.00000000
_cell_angle_beta   90.00000000
_cell_angle_gamma   90.00000000
_symmetry_Int_Tables_number   1
_chemical_formula_structural   H7C11N2O
_chemical_formula_sum   'H224 C352 N64 O32'
_cell_volume   19294.97983778
_cell_formula_units_Z   32
loop_
 _symmetry_equiv_pos_site_id
 _symmetry_equiv_pos_as_xyz
  1  'x, y, z'
loop_
 _atom_site_type_symbol
 _atom_site_label
 _atom_site_symmetry_multiplicity
 _atom_site_fract_x
 _atom_site_fract_y
 _atom_site_fract_z
 _atom_site_occupancy
  H  7  1  0.08526500  0.03009200  0.97505600  1
  H  16  1  0.92782900  0.98351600  0.03828300  1
  H  17  1  0.00782100  0.13185100  0.84596600  1
  H  18  1  0.00537900  0.83956400  0.10792900  1
  H  19  1  0.92832900  0.02864900  0.97289800  1
  H  20  1  0.08472700  0.98264400  0.03863100  1
  H  27  1  0.42670000  0.98180100  0.47510500  1
  H  36  1  0.58414500  0.02849500  0.53827900  1
  H  37  1  0.50419400  0.88028900  0.34585100  1
  H  38  1  0.50655000  0.17235700  0.60818200  1
  H  39  1  0.58365300  0.98338600  0.47287200  1
  H  40  1  0.42722600  0.02937900  0.53858400  1
  H  47  1  0.23179300  0.83387100  0.22455700  1
  H  56  1  0.27860200  0.67645900  0.28826300  1
  H  57  1  0.13595000  0.75373700  0.09184900  1
  H  58  1  0.41782300  0.75573200  0.36579300  1
  H  59  1  0.23150600  0.67649700  0.22539600  1
  H  60  1  0.27836200  0.83379200  0.28968500  1
  H  67  1  0.28010400  0.17801000  0.72452500  1
  H  76  1  0.23320600  0.33548200  0.78802700  1
  H  77  1  0.37604600  0.25805500  0.59178400  1
  H  78  1  0.09422800  0.25626500  0.86603900  1
  H  79  1  0.28033300  0.33538800  0.72520400  1
  H  80  1  0.23357100  0.17814200  0.78968200  1
  H  87  1  0.78025700  0.17716100  0.78837700  1
  H  96  1  0.73375700  0.33426600  0.72366400  1
  H  97  1  0.87580400  0.25828400  0.92109200  1
  H  98  1  0.59373400  0.25548600  0.64652000  1
  H  99  1  0.77886200  0.33454700  0.78811300  1
  H  100  1  0.73179200  0.17693100  0.72476000  1
  H  107  1  0.73167600  0.83486200  0.28830900  1
  H  116  1  0.77821700  0.67774600  0.22367600  1
  H  117  1  0.63597700  0.75377800  0.42097300  1
  H  118  1  0.91826600  0.75643300  0.14644700  1
  H  119  1  0.73320500  0.67748100  0.28818300  1
  H  120  1  0.78025300  0.83508200  0.22477700  1
  H  127  1  0.58515500  0.53016200  0.47415100  1
  H  136  1  0.42773600  0.48270400  0.53875200  1
  H  137  1  0.50542100  0.66357800  0.38955800  1
  H  138  1  0.50677000  0.34784500  0.62224900  1
  H  139  1  0.42730800  0.52886500  0.47429600  1
  H  140  1  0.58557700  0.48134700  0.53662000  1
  H  147  1  0.92674400  0.48185400  0.97419100  1
  H  156  1  0.08423300  0.52883800  0.03897100  1
  H  157  1  0.00632200  0.34835400  0.88973300  1
  H  158  1  0.00551300  0.66398400  0.12237500  1
  H  159  1  0.08459100  0.48309100  0.97419900  1
  H  160  1  0.92641200  0.53097500  0.03640500  1
  H  166  1  0.82148500  0.82960900  0.07864400  1
  H  169  1  0.85369100  0.85787000  0.00233700  1
  H  170  1  0.91787400  0.87140800  0.00613000  1
  H  171  1  0.87326100  0.92042500  0.00449600  1
  H  177  1  0.69024300  0.18253200  0.57868700  1
  H  180  1  0.65799600  0.15437500  0.50241600  1
  H  181  1  0.59381300  0.14088200  0.50632300  1
  H  182  1  0.63838100  0.09183500  0.50444000  1
  H  188  1  0.43020500  0.56958900  0.32684200  1
  H  191  1  0.40275300  0.60412900  0.25158600  1
  H  192  1  0.38822300  0.66797000  0.25659600  1
  H  193  1  0.33992900  0.62258400  0.25417300  1
  H  199  1  0.08141400  0.44209800  0.82683900  1
  H  202  1  0.10868900  0.40749900  0.75158600  1
  H  203  1  0.12340800  0.34370500  0.75666400  1
  H  204  1  0.17157300  0.38921500  0.75402000  1
  H  210  1  0.69091400  0.83131300  0.43425000  1
  H  213  1  0.65736600  0.85904800  0.50993200  1
  H  214  1  0.59323100  0.87257100  0.50576400  1
  H  215  1  0.63787400  0.92157700  0.50725100  1
  H  221  1  0.82088100  0.18050900  0.93444700  1
  H  224  1  0.85447000  0.15271300  0.01013700  1
  H  225  1  0.91860100  0.13913500  0.00604200  1
  H  226  1  0.87389800  0.09017300  0.00728600  1
  H  232  1  0.07854900  0.57161800  0.18679400  1
  H  235  1  0.10488800  0.60739100  0.26182900  1
  H  236  1  0.12015100  0.67096400  0.25563500  1
  H  237  1  0.16793300  0.62521300  0.26022600  1
  H  243  1  0.43355600  0.44008800  0.68647000  1
  H  246  1  0.40711500  0.40442700  0.76158900  1
  H  247  1  0.39169800  0.34088200  0.75547100  1
  H  248  1  0.34402400  0.38674700  0.75999700  1
  H  254  1  0.18891400  0.18567200  0.93594600  1
  H  257  1  0.15457300  0.15831800  0.01160900  1
  H  258  1  0.09086800  0.14328100  0.00588200  1
  H  259  1  0.13644700  0.09531700  0.01005300  1
  H  265  1  0.32326300  0.82614600  0.43582000  1
  H  268  1  0.35757700  0.85338900  0.51151300  1
  H  269  1  0.42128300  0.86840300  0.50573400  1
  H  270  1  0.37574100  0.91638300  0.51010300  1
  H  276  1  0.58279500  0.44194100  0.68447100  1
  H  279  1  0.61000100  0.40780500  0.75997800  1
  H  280  1  0.62390800  0.34378900  0.75546300  1
  H  281  1  0.67264100  0.38872300  0.75752900  1
  H  287  1  0.92924600  0.57010000  0.18434600  1
  H  290  1  0.90202100  0.60412900  0.25986400  1
  H  291  1  0.88803600  0.66813000  0.25543200  1
  H  292  1  0.83935500  0.62314000  0.25741100  1
  H  298  1  0.31934100  0.18047200  0.57933200  1
  H  301  1  0.35137700  0.15240300  0.50307900  1
  H  302  1  0.41566000  0.13923400  0.50588300  1
  H  303  1  0.37124400  0.08999700  0.50578200  1
  H  309  1  0.19268900  0.83153300  0.07926400  1
  H  312  1  0.16070400  0.85975300  0.00300800  1
  H  313  1  0.09644100  0.87304800  0.00571500  1
  H  314  1  0.14096100  0.92219600  0.00589700  1
  H  320  1  0.93228100  0.43969000  0.82568700  1
  H  323  1  0.90551100  0.40380800  0.75082500  1
  H  324  1  0.89042300  0.34021400  0.75725300  1
  H  325  1  0.84251300  0.38583700  0.75276800  1
  H  331  1  0.57964100  0.57235200  0.32571100  1
  H  334  1  0.60652600  0.60813300  0.25080400  1
  H  335  1  0.62167100  0.67172400  0.25717300  1
  H  336  1  0.66954300  0.62605500  0.25280000  1
  H  343  1  0.08526500  0.03009200  0.31060900  1
  H  352  1  0.92782900  0.98351600  0.37383600  1
  H  353  1  0.00782100  0.13185100  0.18151900  1
  H  354  1  0.00537900  0.83956400  0.44348200  1
  H  355  1  0.92832900  0.02864900  0.30845100  1
  H  356  1  0.08472700  0.98264400  0.37418400  1
  H  363  1  0.42670000  0.98180100  0.81065800  1
  H  372  1  0.58414500  0.02849500  0.87383200  1
  H  373  1  0.50419400  0.88028900  0.68140400  1
  H  374  1  0.50655000  0.17235700  0.94373500  1
  H  375  1  0.58365300  0.98338600  0.80842500  1
  H  376  1  0.42722600  0.02937900  0.87413700  1
  H  383  1  0.23179300  0.83387100  0.56011000  1
  H  392  1  0.27860200  0.67645900  0.62381600  1
  H  393  1  0.13595000  0.75373700  0.42740200  1
  H  394  1  0.41782300  0.75573200  0.70134600  1
  H  395  1  0.23150600  0.67649700  0.56094900  1
  H  396  1  0.27836200  0.83379200  0.62523800  1
  H  403  1  0.28010400  0.17801000  0.06007800  1
  H  412  1  0.23320600  0.33548200  0.12358000  1
  H  413  1  0.37604600  0.25805500  0.92733700  1
  H  414  1  0.09422800  0.25626500  0.20159200  1
  H  415  1  0.28033300  0.33538800  0.06075700  1
  H  416  1  0.23357100  0.17814200  0.12523500  1
  H  423  1  0.78025700  0.17716100  0.12393000  1
  H  432  1  0.73375700  0.33426600  0.05921700  1
  H  433  1  0.87580400  0.25828400  0.25664500  1
  H  434  1  0.59373400  0.25548600  0.98207300  1
  H  435  1  0.77886200  0.33454700  0.12366600  1
  H  436  1  0.73179200  0.17693100  0.06031300  1
  H  443  1  0.73167600  0.83486200  0.62386200  1
  H  452  1  0.77821700  0.67774600  0.55922900  1
  H  453  1  0.63597700  0.75377800  0.75652600  1
  H  454  1  0.91826600  0.75643300  0.48200000  1
  H  455  1  0.73320500  0.67748100  0.62373600  1
  H  456  1  0.78025300  0.83508200  0.56033000  1
  H  463  1  0.58515500  0.53016200  0.80970400  1
  H  472  1  0.42773600  0.48270400  0.87430500  1
  H  473  1  0.50542100  0.66357800  0.72511100  1
  H  474  1  0.50677000  0.34784500  0.95780200  1
  H  475  1  0.42730800  0.52886500  0.80984900  1
  H  476  1  0.58557700  0.48134700  0.87217300  1
  H  483  1  0.92674400  0.48185400  0.30974400  1
  H  492  1  0.08423300  0.52883800  0.37452400  1
  H  493  1  0.00632200  0.34835400  0.22528600  1
  H  494  1  0.00551300  0.66398400  0.45792800  1
  H  495  1  0.08459100  0.48309100  0.30975200  1
  H  496  1  0.92641200  0.53097500  0.37195800  1
  H  502  1  0.82148500  0.82960900  0.41419700  1
  H  505  1  0.85369100  0.85787000  0.33789000  1
  H  506  1  0.91787400  0.87140800  0.34168300  1
  H  507  1  0.87326100  0.92042500  0.34004900  1
  H  513  1  0.69024300  0.18253200  0.91424000  1
  H  516  1  0.65799600  0.15437500  0.83796900  1
  H  517  1  0.59381300  0.14088200  0.84187600  1
  H  518  1  0.63838100  0.09183500  0.83999300  1
  H  524  1  0.43020500  0.56958900  0.66239500  1
  H  527  1  0.40275300  0.60412900  0.58713900  1
  H  528  1  0.38822300  0.66797000  0.59214900  1
  H  529  1  0.33992900  0.62258400  0.58972600  1
  H  535  1  0.08141400  0.44209800  0.16239200  1
  H  538  1  0.10868900  0.40749900  0.08713900  1
  H  539  1  0.12340800  0.34370500  0.09221700  1
  H  540  1  0.17157300  0.38921500  0.08957300  1
  H  546  1  0.69091400  0.83131300  0.76980300  1
  H  549  1  0.65736600  0.85904800  0.84548500  1
  H  550  1  0.59323100  0.87257100  0.84131700  1
  H  551  1  0.63787400  0.92157700  0.84280400  1
  H  557  1  0.82088100  0.18050900  0.27000000  1
  H  560  1  0.85447000  0.15271300  0.34569000  1
  H  561  1  0.91860100  0.13913500  0.34159500  1
  H  562  1  0.87389800  0.09017300  0.34283900  1
  H  568  1  0.07854900  0.57161800  0.52234700  1
  H  571  1  0.10488800  0.60739100  0.59738200  1
  H  572  1  0.12015100  0.67096400  0.59118800  1
  H  573  1  0.16793300  0.62521300  0.59577900  1
  H  579  1  0.43355600  0.44008800  0.02202300  1
  H  582  1  0.40711500  0.40442700  0.09714200  1
  H  583  1  0.39169800  0.34088200  0.09102400  1
  H  584  1  0.34402400  0.38674700  0.09555000  1
  H  590  1  0.18891400  0.18567200  0.27149900  1
  H  593  1  0.15457300  0.15831800  0.34716200  1
  H  594  1  0.09086800  0.14328100  0.34143500  1
  H  595  1  0.13644700  0.09531700  0.34560600  1
  H  601  1  0.32326300  0.82614600  0.77137300  1
  H  604  1  0.35757700  0.85338900  0.84706600  1
  H  605  1  0.42128300  0.86840300  0.84128700  1
  H  606  1  0.37574100  0.91638300  0.84565600  1
  H  612  1  0.58279500  0.44194100  0.02002400  1
  H  615  1  0.61000100  0.40780500  0.09553100  1
  H  616  1  0.62390800  0.34378900  0.09101600  1
  H  617  1  0.67264100  0.38872300  0.09308200  1
  H  623  1  0.92924600  0.57010000  0.51989900  1
  H  626  1  0.90202100  0.60412900  0.59541700  1
  H  627  1  0.88803600  0.66813000  0.59098500  1
  H  628  1  0.83935500  0.62314000  0.59296400  1
  H  634  1  0.31934100  0.18047200  0.91488500  1
  H  637  1  0.35137700  0.15240300  0.83863200  1
  H  638  1  0.41566000  0.13923400  0.84143600  1
  H  639  1  0.37124400  0.08999700  0.84133500  1
  H  645  1  0.19268900  0.83153300  0.41481700  1
  H  648  1  0.16070400  0.85975300  0.33856100  1
  H  649  1  0.09644100  0.87304800  0.34126800  1
  H  650  1  0.14096100  0.92219600  0.34145000  1
  H  656  1  0.93228100  0.43969000  0.16124000  1
  H  659  1  0.90551100  0.40380800  0.08637800  1
  H  660  1  0.89042300  0.34021400  0.09280600  1
  H  661  1  0.84251300  0.38583700  0.08832100  1
  H  667  1  0.57964100  0.57235200  0.66126400  1
  H  670  1  0.60652600  0.60813300  0.58635700  1
  H  671  1  0.62167100  0.67172400  0.59272600  1
  H  672  1  0.66954300  0.62605500  0.58835300  1
  C  1  1  0.00665400  0.02439900  0.98543200  1
  C  2  1  0.05158700  0.04356600  0.96405800  1
  C  3  1  0.05296000  0.08132000  0.92711000  1
  C  4  1  0.00701000  0.10078700  0.90976500  1
  C  5  1  0.96087700  0.08101000  0.92631200  1
  C  6  1  0.96199200  0.04294700  0.96297600  1
  C  9  1  0.00635500  0.98759100  0.02646900  1
  C  10  1  0.05100300  0.96849400  0.04852400  1
  C  11  1  0.05195300  0.93019300  0.08493700  1
  C  12  1  0.00576300  0.90993700  0.10059500  1
  C  13  1  0.95991200  0.93080800  0.08479700  1
  C  14  1  0.96138400  0.96902800  0.04833300  1
  C  21  1  0.50531600  0.98759900  0.48541800  1
  C  22  1  0.46038900  0.96838300  0.46407300  1
  C  23  1  0.45903600  0.93064400  0.42710600  1
  C  24  1  0.50499600  0.91126800  0.40969100  1
  C  25  1  0.55111200  0.93104700  0.42626000  1
  C  26  1  0.54998900  0.96908700  0.46294300  1
  C  29  1  0.50560700  0.02439900  0.52646300  1
  C  30  1  0.46095200  0.04351100  0.54849400  1
  C  31  1  0.46000200  0.08179500  0.58492400  1
  C  32  1  0.50618500  0.10200000  0.60065000  1
  C  33  1  0.55203300  0.08118200  0.58479700  1
  C  34  1  0.55057900  0.04296300  0.54833000  1
  C  41  1  0.23734600  0.75516500  0.23581300  1
  C  42  1  0.21921000  0.79993100  0.21312700  1
  C  43  1  0.18408000  0.80040900  0.17369100  1
  C  44  1  0.16398000  0.75450100  0.15711400  1
  C  45  1  0.18166300  0.70860500  0.17625300  1
  C  46  1  0.21858700  0.71020100  0.21399600  1
  C  49  1  0.27324100  0.75513500  0.27767400  1
  C  50  1  0.29135900  0.79983400  0.30057700  1
  C  51  1  0.32678100  0.80015900  0.33977100  1
  C  52  1  0.34791900  0.75422500  0.35486700  1
  C  53  1  0.32931800  0.70835900  0.33663800  1
  C  54  1  0.29198800  0.71008900  0.29931900  1
  C  61  1  0.27449300  0.25672500  0.73566900  1
  C  62  1  0.29265900  0.21194400  0.71304200  1
  C  63  1  0.32779600  0.21143800  0.67361100  1
  C  64  1  0.34786700  0.25734600  0.65698600  1
  C  65  1  0.33013900  0.30325200  0.67605300  1
  C  66  1  0.29323400  0.30167500  0.71381400  1
  C  69  1  0.23863900  0.25678800  0.77756500  1
  C  70  1  0.22055500  0.21210800  0.80053200  1
  C  71  1  0.18516800  0.21181700  0.83976200  1
  C  72  1  0.16410100  0.25776400  0.85490600  1
  C  73  1  0.18264200  0.30360900  0.83656300  1
  C  74  1  0.21989000  0.30185500  0.79916700  1
  C  81  1  0.77385900  0.25585000  0.77741600  1
  C  82  1  0.79239600  0.21119200  0.80000200  1
  C  83  1  0.82741700  0.21091300  0.83954200  1
  C  84  1  0.84727400  0.25696500  0.85603600  1
  C  85  1  0.82924400  0.30274900  0.83695400  1
  C  86  1  0.79219900  0.30093000  0.79934200  1
  C  89  1  0.73801500  0.25570200  0.73551300  1
  C  90  1  0.71938000  0.21090200  0.71324700  1
  C  91  1  0.68411400  0.21045900  0.67393100  1
  C  92  1  0.66354800  0.25638300  0.65807500  1
  C  93  1  0.68253600  0.30229300  0.67581100  1
  C  94  1  0.71985000  0.30065300  0.71316900  1
  C  101  1  0.73816400  0.75617200  0.27743900  1
  C  102  1  0.71956700  0.80083000  0.29996700  1
  C  103  1  0.68450900  0.80111300  0.33947500  1
  C  104  1  0.66467800  0.75505700  0.35599100  1
  C  105  1  0.68277100  0.70926900  0.33697700  1
  C  106  1  0.71983900  0.71109600  0.29938500  1
  C  109  1  0.77401200  0.75631300  0.23553900  1
  C  110  1  0.79268000  0.80110600  0.21329100  1
  C  111  1  0.82797200  0.80152700  0.17399700  1
  C  112  1  0.84846700  0.75559700  0.15808500  1
  C  113  1  0.82945300  0.70970100  0.17582700  1
  C  114  1  0.79214700  0.71135300  0.21319100  1
  C  121  1  0.50629300  0.52323800  0.48461300  1
  C  122  1  0.55109700  0.54150700  0.46188400  1
  C  123  1  0.55167500  0.57539500  0.42139400  1
  C  124  1  0.50565200  0.59425600  0.40398300  1
  C  125  1  0.45997900  0.57501400  0.42184900  1
  C  126  1  0.46115700  0.54088900  0.46209700  1
  C  129  1  0.50656500  0.48827400  0.52726500  1
  C  130  1  0.55168200  0.46997900  0.54931100  1
  C  131  1  0.55278200  0.43595700  0.58965200  1
  C  132  1  0.50703900  0.41715900  0.60780500  1
  C  133  1  0.46110200  0.43654700  0.59076700  1
  C  134  1  0.46174700  0.47064200  0.55045500  1
  C  141  1  0.00562100  0.48875100  0.98457900  1
  C  142  1  0.96078800  0.47051900  0.96188000  1
  C  143  1  0.96016200  0.43663600  0.92139000  1
  C  144  1  0.00615600  0.41771100  0.90398300  1
  C  145  1  0.05186100  0.43695300  0.92177800  1
  C  146  1  0.05072800  0.47109000  0.96201800  1
  C  149  1  0.00540900  0.52366000  0.02727500  1
  C  150  1  0.96032200  0.54213800  0.04922500  1
  C  151  1  0.95927400  0.57606900  0.08964300  1
  C  152  1  0.00505800  0.59467800  0.10789500  1
  C  153  1  0.05095100  0.57514500  0.09090800  1
  C  154  1  0.05025200  0.54105600  0.05059400  1
  C  161  1  0.84600300  0.84627100  0.15142800  1
  C  162  1  0.84442200  0.85232200  0.09906100  1
  C  163  1  0.87911800  0.88351000  0.07420300  1
  C  164  1  0.91427700  0.91013100  0.10373700  1
  C  168  1  0.88102700  0.88317500  0.01877000  1
  C  172  1  0.66595600  0.16569300  0.65153100  1
  C  173  1  0.66751100  0.15964200  0.59913300  1
  C  174  1  0.63271400  0.12855200  0.57427600  1
  C  175  1  0.59760800  0.10188400  0.60384200  1
  C  179  1  0.63067900  0.12905000  0.51884300  1
  C  183  1  0.41485100  0.59313400  0.40015400  1
  C  184  1  0.40781600  0.59227700  0.34788600  1
  C  185  1  0.37681100  0.62778200  0.32399300  1
  C  186  1  0.35079200  0.66260100  0.35449300  1
  C  190  1  0.37703400  0.63072700  0.26858300  1
  C  194  1  0.09698600  0.41865400  0.90020900  1
  C  195  1  0.10380500  0.41942200  0.84790100  1
  C  196  1  0.13491700  0.38404000  0.82395700  1
  C  197  1  0.16121900  0.34937600  0.85440300  1
  C  201  1  0.13453000  0.38099800  0.76855400  1
  C  205  1  0.66590100  0.84604000  0.36123900  1
  C  206  1  0.66765300  0.85332200  0.41343800  1
  C  207  1  0.63225600  0.88418900  0.43774000  1
  C  208  1  0.59676900  0.90989900  0.40773000  1
  C  212  1  0.63012700  0.88424800  0.49318400  1
  C  216  1  0.84592500  0.16602600  0.86143500  1
  C  217  1  0.84433300  0.15871300  0.91362800  1
  C  218  1  0.87967700  0.12779200  0.93791800  1
  C  219  1  0.91519700  0.10221800  0.90785600  1
  C  223  1  0.88171700  0.12753800  0.99335900  1
  C  227  1  0.09581500  0.59318300  0.11326100  1
  C  228  1  0.10175000  0.59341000  0.16569300  1
  C  229  1  0.13267000  0.62907500  0.18948500  1
  C  230  1  0.15987800  0.66282500  0.15881200  1
  C  234  1  0.13123500  0.63334100  0.24479300  1
  C  238  1  0.41623100  0.41831900  0.61299100  1
  C  239  1  0.41036600  0.41820300  0.66543800  1
  C  240  1  0.37928600  0.38271300  0.68927400  1
  C  241  1  0.35190900  0.34905600  0.65866700  1
  C  245  1  0.38070700  0.37851800  0.74458000  1
  C  249  1  0.16731400  0.16715000  0.86269100  1
  C  250  1  0.16718300  0.16209700  0.91519400  1
  C  251  1  0.13222900  0.13071300  0.93943900  1
  C  252  1  0.09867500  0.10278800  0.90922800  1
  C  256  1  0.12837900  0.13209600  0.99476100  1
  C  260  1  0.34475000  0.84485100  0.36254800  1
  C  261  1  0.34481700  0.84989500  0.41508600  1
  C  262  1  0.37983400  0.88117200  0.43938800  1
  C  263  1  0.41332600  0.90916100  0.40919200  1
  C  267  1  0.38376400  0.87964000  0.49469800  1
  C  271  1  0.59782800  0.41762500  0.61134300  1
  C  272  1  0.60496800  0.41889300  0.66358900  1
  C  273  1  0.63569700  0.38332800  0.68774900  1
  C  274  1  0.66140800  0.34804300  0.65751900  1
  C  278  1  0.63545500  0.38082600  0.74318600  1
  C  282  1  0.91422100  0.59458100  0.11120100  1
  C  283  1  0.90716700  0.59323800  0.16345700  1
  C  284  1  0.87631800  0.62867300  0.18765800  1
  C  285  1  0.85049500  0.66394700  0.15749400  1
  C  289  1  0.87654200  0.63109600  0.24309600  1
  C  293  1  0.34610200  0.16641800  0.65184800  1
  C  294  1  0.34321600  0.15876300  0.59975200  1
  C  295  1  0.37824600  0.12794500  0.57485800  1
  C  296  1  0.41465000  0.10284600  0.60426300  1
  C  300  1  0.37912200  0.12746600  0.51938700  1
  C  304  1  0.16589500  0.84538400  0.15177000  1
  C  305  1  0.16865200  0.85306800  0.09968600  1
  C  306  1  0.13372800  0.88400200  0.07480900  1
  C  307  1  0.09734100  0.90914300  0.10418600  1
  C  311  1  0.13297400  0.88469200  0.01934300  1
  C  315  1  0.91529400  0.41813200  0.89933700  1
  C  316  1  0.90918400  0.41791600  0.84692400  1
  C  317  1  0.87811100  0.38223900  0.82334900  1
  C  318  1  0.85094300  0.34863400  0.85422000  1
  C  322  1  0.87930500  0.37784000  0.76804600  1
  C  326  1  0.59650100  0.59393600  0.39934100  1
  C  327  1  0.60267500  0.59422300  0.34692500  1
  C  328  1  0.63386600  0.62976900  0.32333100  1
  C  329  1  0.66109500  0.66334300  0.35415200  1
  C  333  1  0.63273700  0.63410100  0.26802400  1
  C  337  1  0.00665400  0.02439900  0.32098500  1
  C  338  1  0.05158700  0.04356600  0.29961100  1
  C  339  1  0.05296000  0.08132000  0.26266300  1
  C  340  1  0.00701000  0.10078700  0.24531800  1
  C  341  1  0.96087700  0.08101000  0.26186500  1
  C  342  1  0.96199200  0.04294700  0.29852900  1
  C  345  1  0.00635500  0.98759100  0.36202200  1
  C  346  1  0.05100300  0.96849400  0.38407700  1
  C  347  1  0.05195300  0.93019300  0.42049000  1
  C  348  1  0.00576300  0.90993700  0.43614800  1
  C  349  1  0.95991200  0.93080800  0.42035000  1
  C  350  1  0.96138400  0.96902800  0.38388600  1
  C  357  1  0.50531600  0.98759900  0.82097100  1
  C  358  1  0.46038900  0.96838300  0.79962600  1
  C  359  1  0.45903600  0.93064400  0.76265900  1
  C  360  1  0.50499600  0.91126800  0.74524400  1
  C  361  1  0.55111200  0.93104700  0.76181300  1
  C  362  1  0.54998900  0.96908700  0.79849600  1
  C  365  1  0.50560700  0.02439900  0.86201600  1
  C  366  1  0.46095200  0.04351100  0.88404700  1
  C  367  1  0.46000200  0.08179500  0.92047700  1
  C  368  1  0.50618500  0.10200000  0.93620300  1
  C  369  1  0.55203300  0.08118200  0.92035000  1
  C  370  1  0.55057900  0.04296300  0.88388300  1
  C  377  1  0.23734600  0.75516500  0.57136600  1
  C  378  1  0.21921000  0.79993100  0.54868000  1
  C  379  1  0.18408000  0.80040900  0.50924400  1
  C  380  1  0.16398000  0.75450100  0.49266700  1
  C  381  1  0.18166300  0.70860500  0.51180600  1
  C  382  1  0.21858700  0.71020100  0.54954900  1
  C  385  1  0.27324100  0.75513500  0.61322700  1
  C  386  1  0.29135900  0.79983400  0.63613000  1
  C  387  1  0.32678100  0.80015900  0.67532400  1
  C  388  1  0.34791900  0.75422500  0.69042000  1
  C  389  1  0.32931800  0.70835900  0.67219100  1
  C  390  1  0.29198800  0.71008900  0.63487200  1
  C  397  1  0.27449300  0.25672500  0.07122200  1
  C  398  1  0.29265900  0.21194400  0.04859500  1
  C  399  1  0.32779600  0.21143800  0.00916395  1
  C  400  1  0.34786700  0.25734600  0.99253900  1
  C  401  1  0.33013900  0.30325200  0.01160600  1
  C  402  1  0.29323400  0.30167500  0.04936700  1
  C  405  1  0.23863900  0.25678800  0.11311800  1
  C  406  1  0.22055500  0.21210800  0.13608500  1
  C  407  1  0.18516800  0.21181700  0.17531500  1
  C  408  1  0.16410100  0.25776400  0.19045900  1
  C  409  1  0.18264200  0.30360900  0.17211600  1
  C  410  1  0.21989000  0.30185500  0.13472000  1
  C  417  1  0.77385900  0.25585000  0.11296900  1
  C  418  1  0.79239600  0.21119200  0.13555500  1
  C  419  1  0.82741700  0.21091300  0.17509500  1
  C  420  1  0.84727400  0.25696500  0.19158900  1
  C  421  1  0.82924400  0.30274900  0.17250700  1
  C  422  1  0.79219900  0.30093000  0.13489500  1
  C  425  1  0.73801500  0.25570200  0.07106600  1
  C  426  1  0.71938000  0.21090200  0.04880000  1
  C  427  1  0.68411400  0.21045900  0.00948395  1
  C  428  1  0.66354800  0.25638300  0.99362800  1
  C  429  1  0.68253600  0.30229300  0.01136400  1
  C  430  1  0.71985000  0.30065300  0.04872200  1
  C  437  1  0.73816400  0.75617200  0.61299200  1
  C  438  1  0.71956700  0.80083000  0.63552000  1
  C  439  1  0.68450900  0.80111300  0.67502800  1
  C  440  1  0.66467800  0.75505700  0.69154400  1
  C  441  1  0.68277100  0.70926900  0.67253000  1
  C  442  1  0.71983900  0.71109600  0.63493800  1
  C  445  1  0.77401200  0.75631300  0.57109200  1
  C  446  1  0.79268000  0.80110600  0.54884400  1
  C  447  1  0.82797200  0.80152700  0.50955000  1
  C  448  1  0.84846700  0.75559700  0.49363800  1
  C  449  1  0.82945300  0.70970100  0.51138000  1
  C  450  1  0.79214700  0.71135300  0.54874400  1
  C  457  1  0.50629300  0.52323800  0.82016600  1
  C  458  1  0.55109700  0.54150700  0.79743700  1
  C  459  1  0.55167500  0.57539500  0.75694700  1
  C  460  1  0.50565200  0.59425600  0.73953600  1
  C  461  1  0.45997900  0.57501400  0.75740200  1
  C  462  1  0.46115700  0.54088900  0.79765000  1
  C  465  1  0.50656500  0.48827400  0.86281800  1
  C  466  1  0.55168200  0.46997900  0.88486400  1
  C  467  1  0.55278200  0.43595700  0.92520500  1
  C  468  1  0.50703900  0.41715900  0.94335800  1
  C  469  1  0.46110200  0.43654700  0.92632000  1
  C  470  1  0.46174700  0.47064200  0.88600800  1
  C  477  1  0.00562100  0.48875100  0.32013200  1
  C  478  1  0.96078800  0.47051900  0.29743300  1
  C  479  1  0.96016200  0.43663600  0.25694300  1
  C  480  1  0.00615600  0.41771100  0.23953600  1
  C  481  1  0.05186100  0.43695300  0.25733100  1
  C  482  1  0.05072800  0.47109000  0.29757100  1
  C  485  1  0.00540900  0.52366000  0.36282800  1
  C  486  1  0.96032200  0.54213800  0.38477800  1
  C  487  1  0.95927400  0.57606900  0.42519600  1
  C  488  1  0.00505800  0.59467800  0.44344800  1
  C  489  1  0.05095100  0.57514500  0.42646100  1
  C  490  1  0.05025200  0.54105600  0.38614700  1
  C  497  1  0.84600300  0.84627100  0.48698100  1
  C  498  1  0.84442200  0.85232200  0.43461400  1
  C  499  1  0.87911800  0.88351000  0.40975600  1
  C  500  1  0.91427700  0.91013100  0.43929000  1
  C  504  1  0.88102700  0.88317500  0.35432300  1
  C  508  1  0.66595600  0.16569300  0.98708400  1
  C  509  1  0.66751100  0.15964200  0.93468600  1
  C  510  1  0.63271400  0.12855200  0.90982900  1
  C  511  1  0.59760800  0.10188400  0.93939500  1
  C  515  1  0.63067900  0.12905000  0.85439600  1
  C  519  1  0.41485100  0.59313400  0.73570700  1
  C  520  1  0.40781600  0.59227700  0.68343900  1
  C  521  1  0.37681100  0.62778200  0.65954600  1
  C  522  1  0.35079200  0.66260100  0.69004600  1
  C  526  1  0.37703400  0.63072700  0.60413600  1
  C  530  1  0.09698600  0.41865400  0.23576200  1
  C  531  1  0.10380500  0.41942200  0.18345400  1
  C  532  1  0.13491700  0.38404000  0.15951000  1
  C  533  1  0.16121900  0.34937600  0.18995600  1
  C  537  1  0.13453000  0.38099800  0.10410700  1
  C  541  1  0.66590100  0.84604000  0.69679200  1
  C  542  1  0.66765300  0.85332200  0.74899100  1
  C  543  1  0.63225600  0.88418900  0.77329300  1
  C  544  1  0.59676900  0.90989900  0.74328300  1
  C  548  1  0.63012700  0.88424800  0.82873700  1
  C  552  1  0.84592500  0.16602600  0.19698800  1
  C  553  1  0.84433300  0.15871300  0.24918100  1
  C  554  1  0.87967700  0.12779200  0.27347100  1
  C  555  1  0.91519700  0.10221800  0.24340900  1
  C  559  1  0.88171700  0.12753800  0.32891200  1
  C  563  1  0.09581500  0.59318300  0.44881400  1
  C  564  1  0.10175000  0.59341000  0.50124600  1
  C  565  1  0.13267000  0.62907500  0.52503800  1
  C  566  1  0.15987800  0.66282500  0.49436500  1
  C  570  1  0.13123500  0.63334100  0.58034600  1
  C  574  1  0.41623100  0.41831900  0.94854400  1
  C  575  1  0.41036600  0.41820300  0.00099095  1
  C  576  1  0.37928600  0.38271300  0.02482700  1
  C  577  1  0.35190900  0.34905600  0.99422000  1
  C  581  1  0.38070700  0.37851800  0.08013300  1
  C  585  1  0.16731400  0.16715000  0.19824400  1
  C  586  1  0.16718300  0.16209700  0.25074700  1
  C  587  1  0.13222900  0.13071300  0.27499200  1
  C  588  1  0.09867500  0.10278800  0.24478100  1
  C  592  1  0.12837900  0.13209600  0.33031400  1
  C  596  1  0.34475000  0.84485100  0.69810100  1
  C  597  1  0.34481700  0.84989500  0.75063900  1
  C  598  1  0.37983400  0.88117200  0.77494100  1
  C  599  1  0.41332600  0.90916100  0.74474500  1
  C  603  1  0.38376400  0.87964000  0.83025100  1
  C  607  1  0.59782800  0.41762500  0.94689600  1
  C  608  1  0.60496800  0.41889300  0.99914200  1
  C  609  1  0.63569700  0.38332800  0.02330200  1
  C  610  1  0.66140800  0.34804300  0.99307200  1
  C  614  1  0.63545500  0.38082600  0.07873900  1
  C  618  1  0.91422100  0.59458100  0.44675400  1
  C  619  1  0.90716700  0.59323800  0.49901000  1
  C  620  1  0.87631800  0.62867300  0.52321100  1
  C  621  1  0.85049500  0.66394700  0.49304700  1
  C  625  1  0.87654200  0.63109600  0.57864900  1
  C  629  1  0.34610200  0.16641800  0.98740100  1
  C  630  1  0.34321600  0.15876300  0.93530500  1
  C  631  1  0.37824600  0.12794500  0.91041100  1
  C  632  1  0.41465000  0.10284600  0.93981600  1
  C  636  1  0.37912200  0.12746600  0.85494000  1
  C  640  1  0.16589500  0.84538400  0.48732300  1
  C  641  1  0.16865200  0.85306800  0.43523900  1
  C  642  1  0.13372800  0.88400200  0.41036200  1
  C  643  1  0.09734100  0.90914300  0.43973900  1
  C  647  1  0.13297400  0.88469200  0.35489600  1
  C  651  1  0.91529400  0.41813200  0.23489000  1
  C  652  1  0.90918400  0.41791600  0.18247700  1
  C  653  1  0.87811100  0.38223900  0.15890200  1
  C  654  1  0.85094300  0.34863400  0.18977300  1
  C  658  1  0.87930500  0.37784000  0.10359900  1
  C  662  1  0.59650100  0.59393600  0.73489400  1
  C  663  1  0.60267500  0.59422300  0.68247800  1
  C  664  1  0.63386600  0.62976900  0.65888400  1
  C  665  1  0.66109500  0.66334300  0.68970500  1
  C  669  1  0.63273700  0.63410100  0.60357700  1
  N  165  1  0.91160700  0.90350200  0.15413600  1
  N  167  1  0.88034800  0.87349900  0.17658500  1
  N  176  1  0.60046000  0.10828900  0.65423800  1
  N  178  1  0.63174500  0.13827900  0.67666100  1
  N  187  1  0.35778300  0.65877600  0.40475900  1
  N  189  1  0.38797300  0.62705500  0.42624900  1
  N  198  1  0.15436500  0.35331100  0.90468700  1
  N  200  1  0.12414100  0.38494600  0.92625200  1
  N  209  1  0.60006500  0.90284200  0.35744700  1
  N  211  1  0.63159200  0.87275000  0.33553400  1
  N  220  1  0.91197600  0.10936400  0.85758300  1
  N  222  1  0.88037800  0.13944000  0.83573900  1
  N  231  1  0.15422200  0.65766100  0.10852600  1
  N  233  1  0.12405200  0.62590300  0.08706600  1
  N  242  1  0.35762500  0.35408300  0.60836100  1
  N  244  1  0.38789100  0.38570300  0.58682200  1
  N  253  1  0.10333400  0.10818800  0.85885100  1
  N  255  1  0.13471800  0.13842100  0.83688700  1
  N  264  1  0.40865500  0.90396400  0.35880800  1
  N  266  1  0.37728400  0.87372300  0.33683200  1
  N  275  1  0.65434300  0.35147400  0.60723500  1
  N  277  1  0.62436700  0.38324200  0.58550600  1
  N  286  1  0.85757200  0.66053500  0.10719600  1
  N  288  1  0.88758200  0.62885900  0.08537800  1
  N  297  1  0.41273300  0.11044200  0.65454400  1
  N  299  1  0.38143400  0.14043100  0.67691400  1
  N  308  1  0.09915000  0.90130900  0.15444600  1
  N  310  1  0.13043100  0.87127700  0.17679000  1
  N  319  1  0.85676300  0.35392900  0.90448200  1
  N  321  1  0.88706700  0.38566200  0.92580500  1
  N  330  1  0.65511800  0.65817500  0.40441600  1
  N  332  1  0.62475100  0.62648800  0.42571200  1
  N  501  1  0.91160700  0.90350200  0.48968900  1
  N  503  1  0.88034800  0.87349900  0.51213800  1
  N  512  1  0.60046000  0.10828900  0.98979100  1
  N  514  1  0.63174500  0.13827900  0.01221400  1
  N  523  1  0.35778300  0.65877600  0.74031200  1
  N  525  1  0.38797300  0.62705500  0.76180200  1
  N  534  1  0.15436500  0.35331100  0.24024000  1
  N  536  1  0.12414100  0.38494600  0.26180500  1
  N  545  1  0.60006500  0.90284200  0.69300000  1
  N  547  1  0.63159200  0.87275000  0.67108700  1
  N  556  1  0.91197600  0.10936400  0.19313600  1
  N  558  1  0.88037800  0.13944000  0.17129200  1
  N  567  1  0.15422200  0.65766100  0.44407900  1
  N  569  1  0.12405200  0.62590300  0.42261900  1
  N  578  1  0.35762500  0.35408300  0.94391400  1
  N  580  1  0.38789100  0.38570300  0.92237500  1
  N  589  1  0.10333400  0.10818800  0.19440400  1
  N  591  1  0.13471800  0.13842100  0.17244000  1
  N  600  1  0.40865500  0.90396400  0.69436100  1
  N  602  1  0.37728400  0.87372300  0.67238500  1
  N  611  1  0.65434300  0.35147400  0.94278800  1
  N  613  1  0.62436700  0.38324200  0.92105900  1
  N  622  1  0.85757200  0.66053500  0.44274900  1
  N  624  1  0.88758200  0.62885900  0.42093100  1
  N  633  1  0.41273300  0.11044200  0.99009700  1
  N  635  1  0.38143400  0.14043100  0.01246700  1
  N  644  1  0.09915000  0.90130900  0.48999900  1
  N  646  1  0.13043100  0.87127700  0.51234300  1
  N  655  1  0.85676300  0.35392900  0.24003500  1
  N  657  1  0.88706700  0.38566200  0.26135800  1
  N  666  1  0.65511800  0.65817500  0.73996900  1
  N  668  1  0.62475100  0.62648800  0.76126500  1
  O  8  1  0.00719700  0.14292500  0.88091900  1
  O  15  1  0.00536000  0.86852600  0.13044700  1
  O  28  1  0.50480900  0.86916700  0.38078900  1
  O  35  1  0.50658400  0.14333200  0.63061900  1
  O  48  1  0.12328500  0.75492600  0.12622700  1
  O  55  1  0.38777200  0.75442700  0.38679500  1
  O  68  1  0.38863000  0.25689200  0.62619000  1
  O  75  1  0.12434100  0.25760100  0.88694800  1
  O  88  1  0.88819700  0.25680900  0.88662700  1
  O  95  1  0.62399000  0.25608200  0.62578300  1
  O  108  1  0.62367700  0.75523200  0.38647500  1
  O  115  1  0.88798400  0.75588100  0.12574500  1
  O  128  1  0.50524900  0.63248700  0.37008000  1
  O  135  1  0.50727700  0.37893600  0.64171800  1
  O  148  1  0.00648800  0.37939400  0.87017800  1
  O  155  1  0.00490200  0.63288600  0.14182800  1
  O  344  1  0.00719700  0.14292500  0.21647200  1
  O  351  1  0.00536000  0.86852600  0.46600000  1
  O  364  1  0.50480900  0.86916700  0.71634200  1
  O  371  1  0.50658400  0.14333200  0.96617200  1
  O  384  1  0.12328500  0.75492600  0.46178000  1
  O  391  1  0.38777200  0.75442700  0.72234800  1
  O  404  1  0.38863000  0.25689200  0.96174300  1
  O  411  1  0.12434100  0.25760100  0.22250100  1
  O  424  1  0.88819700  0.25680900  0.22218000  1
  O  431  1  0.62399000  0.25608200  0.96133600  1
  O  444  1  0.62367700  0.75523200  0.72202800  1
  O  451  1  0.88798400  0.75588100  0.46129800  1
  O  464  1  0.50524900  0.63248700  0.70563300  1
  O  471  1  0.50727700  0.37893600  0.97727100  1
  O  484  1  0.00648800  0.37939400  0.20573100  1
  O  491  1  0.00490200  0.63288600  0.47738100  1
