# generated using pymatgen
data_H24C41(NO)8
_symmetry_space_group_name_H-M   'P 1'
_cell_length_a   30.58541773
_cell_length_b   30.83840000
_cell_length_c   50.00210000
_cell_angle_alpha   89.94000000
_cell_angle_beta   90.00000000
_cell_angle_gamma   119.72900000
_symmetry_Int_Tables_number   1
_chemical_formula_structural   H24C41(NO)8
_chemical_formula_sum   'H192 C328 N64 O64'
_cell_volume   40954.75284088
_cell_formula_units_Z   8
loop_
 _symmetry_equiv_pos_site_id
 _symmetry_equiv_pos_as_xyz
  1  'x, y, z'
loop_
 _atom_site_type_symbol
 _atom_site_label
 _atom_site_symmetry_multiplicity
 _atom_site_fract_x
 _atom_site_fract_y
 _atom_site_fract_z
 _atom_site_occupancy
  H  26  1  0.60154300  0.20146600  0.99602400  1
  H  27  1  0.64833000  0.28375800  0.97904700  1
  H  28  1  0.49599300  0.16405800  0.93378800  1
  H  29  1  0.54304200  0.24677500  0.91662400  1
  H  30  1  0.55754600  0.34061400  0.90914500  1
  H  31  1  0.51316500  0.37935800  0.92657500  1
  H  32  1  0.58525500  0.39757600  0.00092300  1
  H  33  1  0.63005200  0.35954900  0.98347600  1
  H  34  1  0.69511400  0.42744800  0.94535100  1
  H  35  1  0.78108700  0.47173500  0.95767400  1
  H  36  1  0.79125200  0.34153800  0.94723300  1
  H  37  1  0.70460400  0.29669600  0.93488200  1
  H  38  1  0.63269800  0.25647100  0.89707200  1
  H  39  1  0.65480900  0.40276200  0.89718500  1
  H  40  1  0.66375400  0.40616900  0.84997100  1
  H  45  1  0.64087100  0.25968600  0.84983500  1
  H  71  1  0.38591800  0.79240700  0.49590300  1
  H  72  1  0.33920400  0.71019300  0.47894400  1
  H  73  1  0.49184900  0.82997000  0.43380300  1
  H  74  1  0.44485600  0.74731300  0.41665200  1
  H  75  1  0.43017000  0.65333900  0.40909400  1
  H  76  1  0.47454100  0.61456200  0.42654000  1
  H  77  1  0.40274600  0.59660100  0.50098500  1
  H  78  1  0.35794300  0.63464200  0.48351700  1
  H  79  1  0.29277100  0.56659000  0.44559900  1
  H  80  1  0.20677600  0.52225400  0.45791800  1
  H  81  1  0.19642000  0.65229100  0.44702700  1
  H  82  1  0.28309700  0.69718200  0.43468300  1
  H  83  1  0.35544800  0.73772300  0.39693700  1
  H  84  1  0.33277000  0.59122000  0.39730100  1
  H  85  1  0.32379100  0.58777100  0.35009900  1
  H  90  1  0.34726700  0.73447100  0.34970500  1
  H  116  1  0.41188500  0.79526500  0.00053100  1
  H  117  1  0.37217700  0.71103400  0.01508300  1
  H  118  1  0.32424900  0.82438000  0.05479300  1
  H  119  1  0.28538400  0.74033100  0.07009800  1
  H  120  1  0.21051000  0.64043900  0.08262000  1
  H  121  1  0.12768400  0.60137200  0.06515700  1
  H  122  1  0.18421200  0.60112200  0.98831900  1
  H  123  1  0.26723400  0.63925800  0.00586500  1
  H  124  1  0.26370500  0.56512900  0.03806600  1
  H  125  1  0.30605300  0.52169600  0.02569200  1
  H  126  1  0.44424700  0.64458800  0.04914100  1
  H  127  1  0.40192400  0.68908900  0.06110300  1
  H  128  1  0.36507200  0.73708200  0.09434300  1
  H  129  1  0.25429800  0.58467300  0.09204200  1
  H  130  1  0.25953900  0.58020100  0.13939000  1
  H  134  1  0.36960200  0.73262400  0.14126400  1
  H  160  1  0.57567000  0.19848900  0.50060100  1
  H  161  1  0.61538700  0.28266200  0.51513200  1
  H  162  1  0.66316900  0.16911100  0.55486200  1
  H  163  1  0.70204200  0.25311400  0.57015400  1
  H  164  1  0.77697700  0.35299400  0.58262300  1
  H  165  1  0.85983400  0.39211200  0.56515000  1
  H  166  1  0.80344800  0.39258700  0.48830300  1
  H  167  1  0.72038600  0.35439600  0.50586000  1
  H  168  1  0.72391400  0.42843100  0.53795100  1
  H  169  1  0.68162500  0.47194300  0.52556200  1
  H  170  1  0.54338600  0.34911100  0.54917700  1
  H  171  1  0.58564500  0.30452600  0.56116000  1
  H  172  1  0.62254200  0.25640700  0.59445500  1
  H  173  1  0.73322700  0.40886100  0.59194700  1
  H  174  1  0.72799800  0.41333000  0.63928900  1
  H  179  1  0.61804600  0.26087200  0.64137500  1
  H  185  1  0.61902100  0.38502600  0.75836400  1
  H  187  1  0.69496800  0.30701500  0.77807900  1
  H  195  1  0.65032200  0.38795800  0.80384300  1
  H  197  1  0.64314500  0.27439800  0.68695500  1
  H  203  1  0.36861200  0.60873100  0.25847900  1
  H  205  1  0.29272200  0.68683200  0.27801800  1
  H  213  1  0.33730700  0.60590700  0.30395500  1
  H  215  1  0.34432700  0.71915700  0.18683600  1
  H  221  1  0.52647000  0.04847900  0.03207200  1
  H  223  1  0.44493500  0.03450400  0.96176600  1
  H  231  1  0.56084600  0.11325100  0.99760900  1
  H  233  1  0.35108900  0.89245100  0.02112400  1
  H  239  1  0.46135400  0.42743300  0.03854800  1
  H  241  1  0.50142600  0.49041500  0.96160700  1
  H  249  1  0.52947800  0.42552900  0.01235100  1
  H  251  1  0.36897900  0.51464800  0.99742700  1
  H  254  1  0.92183600  0.53902500  0.01338500  1
  H  256  1  0.93443200  0.45156400  0.95267500  1
  H  258  1  0.84919800  0.48419800  0.98774200  1
  H  264  1  0.46095000  0.94512100  0.53201500  1
  H  266  1  0.54277400  0.95950900  0.46174600  1
  H  274  1  0.42668900  0.88059000  0.49750100  1
  H  276  1  0.63642700  0.10122000  0.52114800  1
  H  282  1  0.52641600  0.56633400  0.53853300  1
  H  284  1  0.48630900  0.50354500  0.46163200  1
  H  292  1  0.45826000  0.56828000  0.51237000  1
  H  294  1  0.61875600  0.47919700  0.49738500  1
  H  305  1  0.13854300  0.50980000  0.48789300  1
  H  307  1  0.88835400  0.41837400  0.47765800  1
  H  309  1  0.09935900  0.57539700  0.97766900  1
  H  313  1  0.06580400  0.45475100  0.51346200  1
  H  314  1  0.05333300  0.54235300  0.45267500  1
  H  350  1  0.60154300  0.65544550  0.79603200  1
  H  351  1  0.64833000  0.73773750  0.77905500  1
  H  352  1  0.49599300  0.61803700  0.73379600  1
  H  353  1  0.54304200  0.70075400  0.71663200  1
  H  354  1  0.55754600  0.79459300  0.70915300  1
  H  355  1  0.51316500  0.83333700  0.72658300  1
  H  356  1  0.58525500  0.85155500  0.80093100  1
  H  357  1  0.63005200  0.81352800  0.78348400  1
  H  358  1  0.69511400  0.88142700  0.74535900  1
  H  359  1  0.78108700  0.92571400  0.75768200  1
  H  360  1  0.79125200  0.79551745  0.74724100  1
  H  361  1  0.70460400  0.75067550  0.73489000  1
  H  362  1  0.63269800  0.71045050  0.69708000  1
  H  363  1  0.65480900  0.85674100  0.69719300  1
  H  364  1  0.66375400  0.86014800  0.64997900  1
  H  369  1  0.64087100  0.71366550  0.64984300  1
  H  395  1  0.38591800  0.24638600  0.29591100  1
  H  396  1  0.33920400  0.16417200  0.27895200  1
  H  397  1  0.49184900  0.28394900  0.23381100  1
  H  398  1  0.44485600  0.20129200  0.21666000  1
  H  399  1  0.43017000  0.10731800  0.20910200  1
  H  400  1  0.47454100  0.06854100  0.22654800  1
  H  401  1  0.40274600  0.05058000  0.30099300  1
  H  402  1  0.35794300  0.08862100  0.28352500  1
  H  403  1  0.29277100  0.02056900  0.24560700  1
  H  404  1  0.20677600  0.97623300  0.25792600  1
  H  405  1  0.19642000  0.10627000  0.24703500  1
  H  406  1  0.28309700  0.15116100  0.23469100  1
  H  407  1  0.35544800  0.19170200  0.19694500  1
  H  408  1  0.33277000  0.04519900  0.19730900  1
  H  409  1  0.32379100  0.04175000  0.15010700  1
  H  414  1  0.34726700  0.18845000  0.14971300  1
  H  440  1  0.41188500  0.24924400  0.80053900  1
  H  441  1  0.37217700  0.16501300  0.81509100  1
  H  442  1  0.32424900  0.27835900  0.85480100  1
  H  443  1  0.28538400  0.19431000  0.87010600  1
  H  444  1  0.21051000  0.09441800  0.88262800  1
  H  445  1  0.12768400  0.05535100  0.86516500  1
  H  446  1  0.18421200  0.05510100  0.78832700  1
  H  447  1  0.26723400  0.09323700  0.80587300  1
  H  448  1  0.26370500  0.01910800  0.83807400  1
  H  449  1  0.30605300  0.97567500  0.82570000  1
  H  450  1  0.44424700  0.09856700  0.84914900  1
  H  451  1  0.40192400  0.14306800  0.86111100  1
  H  452  1  0.36507200  0.19106100  0.89435100  1
  H  453  1  0.25429800  0.03865200  0.89205000  1
  H  454  1  0.25953900  0.03418000  0.93939840  1
  H  458  1  0.36960200  0.18660300  0.94127240  1
  H  484  1  0.57567000  0.65246850  0.30060900  1
  H  485  1  0.61538700  0.73664100  0.31514000  1
  H  486  1  0.66316900  0.62309000  0.35487000  1
  H  487  1  0.70204200  0.70709345  0.37016200  1
  H  488  1  0.77697700  0.80697350  0.38263100  1
  H  489  1  0.85983400  0.84609100  0.36515800  1
  H  490  1  0.80344800  0.84656650  0.28831100  1
  H  491  1  0.72038600  0.80837550  0.30586800  1
  H  492  1  0.72391400  0.88241000  0.33795900  1
  H  493  1  0.68162500  0.92592200  0.32557000  1
  H  494  1  0.54338600  0.80309000  0.34918500  1
  H  495  1  0.58564500  0.75850500  0.36116800  1
  H  496  1  0.62254200  0.71038650  0.39446300  1
  H  497  1  0.73322700  0.86284000  0.39195500  1
  H  498  1  0.72799800  0.86730900  0.43929700  1
  H  503  1  0.61804600  0.71485150  0.44138300  1
  H  509  1  0.61902100  0.83900500  0.55837200  1
  H  511  1  0.69496800  0.76099450  0.57808700  1
  H  519  1  0.65032200  0.84193700  0.60385100  1
  H  521  1  0.64314500  0.72837750  0.48696300  1
  H  527  1  0.36861200  0.06271000  0.05848700  1
  H  529  1  0.29272200  0.14081100  0.07802600  1
  H  537  1  0.33730700  0.05988600  0.10396300  1
  H  539  1  0.34432700  0.17313600  0.98684440  1
  H  545  1  0.52647000  0.50245800  0.83208000  1
  H  547  1  0.44493500  0.48848350  0.76177400  1
  H  555  1  0.56084600  0.56723045  0.79761700  1
  H  557  1  0.35108900  0.34643000  0.82113200  1
  H  563  1  0.46135400  0.88141200  0.83855600  1
  H  565  1  0.50142600  0.94439400  0.76161500  1
  H  573  1  0.52947800  0.87950800  0.81235900  1
  H  575  1  0.36897900  0.96862700  0.79743500  1
  H  578  1  0.92183600  0.99300450  0.81339300  1
  H  580  1  0.93443200  0.90554300  0.75268300  1
  H  582  1  0.84919800  0.93817750  0.78775000  1
  H  588  1  0.46095000  0.39910000  0.33202300  1
  H  590  1  0.54277400  0.41348800  0.26175400  1
  H  598  1  0.42668900  0.33456900  0.29750900  1
  H  600  1  0.63642700  0.55519900  0.32115600  1
  H  606  1  0.52641600  0.02031300  0.33854100  1
  H  608  1  0.48630900  0.95752400  0.26164000  1
  H  616  1  0.45826000  0.02225900  0.31237800  1
  H  618  1  0.61875600  0.93317600  0.29739300  1
  H  629  1  0.13854300  0.96377900  0.28790100  1
  H  631  1  0.88835400  0.87235300  0.27766600  1
  H  633  1  0.09935900  0.02937600  0.77767700  1
  H  637  1  0.06580400  0.90873000  0.31347000  1
  H  638  1  0.05333300  0.99633200  0.25268300  1
  C  1  1  0.65114600  0.33240600  0.84509400  1
  C  2  1  0.65596400  0.37386100  0.85958600  1
  C  3  1  0.65054100  0.37164100  0.88759000  1
  C  4  1  0.63816500  0.32759900  0.90238300  1
  C  5  1  0.63736600  0.28784000  0.88759000  1
  C  6  1  0.64298300  0.28984400  0.85960100  1
  C  7  1  0.63302400  0.32645200  0.93289900  1
  C  8  1  0.68858800  0.35565100  0.94113500  1
  C  9  1  0.71957600  0.33328100  0.94033000  1
  C  10  1  0.77086800  0.35968600  0.94746400  1
  C  11  1  0.79391800  0.41025300  0.95508700  1
  C  12  1  0.76495600  0.43435800  0.95380200  1
  C  13  1  0.71378100  0.40774700  0.94663600  1
  C  14  1  0.60193800  0.34920600  0.94369000  1
  C  15  1  0.60347600  0.27356600  0.94449400  1
  C  16  1  0.61742900  0.25883600  0.96849800  1
  C  17  1  0.58946600  0.21005200  0.97880500  1
  C  18  1  0.54523100  0.17383600  0.96587900  1
  C  19  1  0.52863100  0.18885400  0.94324600  1
  C  20  1  0.55671300  0.23775000  0.93309600  1
  C  21  1  0.56513000  0.35348900  0.92834400  1
  C  22  1  0.53817100  0.37578400  0.93871000  1
  C  23  1  0.54531500  0.39312400  0.96529600  1
  C  24  1  0.57910600  0.38597000  0.98147200  1
  C  25  1  0.60585500  0.36362300  0.97098800  1
  C  46  1  0.33667800  0.66162700  0.34509100  1
  C  47  1  0.33170100  0.62012600  0.35965600  1
  C  48  1  0.33712400  0.62236400  0.38765700  1
  C  49  1  0.34966300  0.66646600  0.40237700  1
  C  50  1  0.35065800  0.70629700  0.38751100  1
  C  51  1  0.34503100  0.70427000  0.35952400  1
  C  52  1  0.35477500  0.66758800  0.43289300  1
  C  53  1  0.29921300  0.63833000  0.44116100  1
  C  54  1  0.26815300  0.66061600  0.44021100  1
  C  55  1  0.21684500  0.63418700  0.44735100  1
  C  56  1  0.19384400  0.58365900  0.45510900  1
  C  57  1  0.22286900  0.55961100  0.45394700  1
  C  58  1  0.27406000  0.58625400  0.44678700  1
  C  59  1  0.38588900  0.64484000  0.44368500  1
  C  60  1  0.38426000  0.72045500  0.44445300  1
  C  61  1  0.37016000  0.73513300  0.46840800  1
  C  62  1  0.39807600  0.78388100  0.47870400  1
  C  63  1  0.44242300  0.82011700  0.46582200  1
  C  64  1  0.45913200  0.80516200  0.44322700  1
  C  65  1  0.43109400  0.75630100  0.43308900  1
  C  66  1  0.42263900  0.64050700  0.42831800  1
  C  67  1  0.44959200  0.61819000  0.43869100  1
  C  68  1  0.44250800  0.60088800  0.46530600  1
  C  69  1  0.40882200  0.60814200  0.48150500  1
  C  70  1  0.38207300  0.63050400  0.47101000  1
  C  91  1  0.31321100  0.65648300  0.14516300  1
  C  92  1  0.28111200  0.61384100  0.13007400  1
  C  93  1  0.27808200  0.61671400  0.10208500  1
  C  94  1  0.30592300  0.66238900  0.08780600  1
  C  95  1  0.34055900  0.70404800  0.10328100  1
  C  96  1  0.34381100  0.70148500  0.13125200  1
  C  97  1  0.30230900  0.66357000  0.05719900  1
  C  98  1  0.32843000  0.63411800  0.04879300  1
  C  99  1  0.38100900  0.65420600  0.05307900  1
  C  100  1  0.40620800  0.62804100  0.04611700  1
  C  101  1  0.37968800  0.57992300  0.03489000  1
  C  102  1  0.32694000  0.55769600  0.03227400  1
  C  103  1  0.30203600  0.58400200  0.03940400  1
  C  104  1  0.24824000  0.64091300  0.04663300  1
  C  105  1  0.32659200  0.71668700  0.04566100  1
  C  106  1  0.36206200  0.73421200  0.02433200  1
  C  107  1  0.38511900  0.78396400  0.01523300  1
  C  108  1  0.37184800  0.81796300  0.02610600  1
  C  109  1  0.33430600  0.80059800  0.04610100  1
  C  110  1  0.31175000  0.75092300  0.05525300  1
  C  111  1  0.20611500  0.63120600  0.06283100  1
  C  112  1  0.15687500  0.60869800  0.05248300  1
  C  113  1  0.14754500  0.59648100  0.02516400  1
  C  114  1  0.18920400  0.60896500  0.00830100  1
  C  115  1  0.23833200  0.63142800  0.01880700  1
  C  135  1  0.67435500  0.33704500  0.64516500  1
  C  136  1  0.70644200  0.37968800  0.63001900  1
  C  137  1  0.70947500  0.37681100  0.60203600  1
  C  138  1  0.68160700  0.33113900  0.58781500  1
  C  139  1  0.64703700  0.28945400  0.60334800  1
  C  140  1  0.64380200  0.29202300  0.63131700  1
  C  141  1  0.68523300  0.32997600  0.55721000  1
  C  142  1  0.65915300  0.35948200  0.54878900  1
  C  143  1  0.60657700  0.33941600  0.55310200  1
  C  144  1  0.58142000  0.36563100  0.54612700  1
  C  145  1  0.60797700  0.41376700  0.53486300  1
  C  146  1  0.66071800  0.43595300  0.53220500  1
  C  147  1  0.68558400  0.40959100  0.53932500  1
  C  148  1  0.73931200  0.35260200  0.54662900  1
  C  149  1  0.66091400  0.27687800  0.54570700  1
  C  150  1  0.62546300  0.25943700  0.52439200  1
  C  151  1  0.60240000  0.20972000  0.51530400  1
  C  152  1  0.61563100  0.17566400  0.52618000  1
  C  153  1  0.65311600  0.19293100  0.54618500  1
  C  154  1  0.67570400  0.24258300  0.55531000  1
  C  155  1  0.78140500  0.36227400  0.56282800  1
  C  156  1  0.83066400  0.38481300  0.55247700  1
  C  157  1  0.84003900  0.39711800  0.52515400  1
  C  158  1  0.79841200  0.38468600  0.50829000  1
  C  159  1  0.74925700  0.36213400  0.51879600  1
  C  180  1  0.65663300  0.34766600  0.77266700  1
  C  181  1  0.63583800  0.36476700  0.75285200  1
  C  182  1  0.63616900  0.35353900  0.72542100  1
  C  183  1  0.65860400  0.32483500  0.71731800  1
  C  184  1  0.68024900  0.30778600  0.73695100  1
  C  186  1  0.67909800  0.31951100  0.76423400  1
  C  194  1  0.65451700  0.35878800  0.79947000  1
  C  196  1  0.65661500  0.31044000  0.69079100  1
  C  198  1  0.33104800  0.64616400  0.27269600  1
  C  199  1  0.35181600  0.62900100  0.25292100  1
  C  200  1  0.35142900  0.64012400  0.22546600  1
  C  201  1  0.32898300  0.66880500  0.21729600  1
  C  202  1  0.30737600  0.68592600  0.23689200  1
  C  204  1  0.30856900  0.67429100  0.26420000  1
  C  212  1  0.33318500  0.63511100  0.29952300  1
  C  214  1  0.33094800  0.68313700  0.19073900  1
  C  216  1  0.49120500  0.04978000  0.99590200  1
  C  217  1  0.49692500  0.02775400  0.01947300  1
  C  218  1  0.46250400  0.97768500  0.02655400  1
  C  219  1  0.42116700  0.94820100  0.00944500  1
  C  220  1  0.41472800  0.96954900  0.98562100  1
  C  222  1  0.44980200  0.01985600  0.97915500  1
  C  230  1  0.52664600  0.09902700  0.98968000  1
  C  232  1  0.38581700  0.89981600  0.01674100  1
  C  234  1  0.48554300  0.45465900  0.99934500  1
  C  235  1  0.45976500  0.44941100  0.02362800  1
  C  236  1  0.43063500  0.47292400  0.02784400  1
  C  237  1  0.42772500  0.50334400  0.00734900  1
  C  238  1  0.45382500  0.50950000  0.98287700  1
  C  240  1  0.48243100  0.48524800  0.97924500  1
  C  248  1  0.51415000  0.43129300  0.99618000  1
  C  250  1  0.39701600  0.52430800  0.01036900  1
  C  252  1  0.91935100  0.49128800  0.98233500  1
  C  253  1  0.94297100  0.52840200  0.00216900  1
  C  255  1  0.95016700  0.47817900  0.96727600  1
  C  257  1  0.86770000  0.47028600  0.97782600  1
  C  259  1  0.49636100  0.94403700  0.49585700  1
  C  260  1  0.49055100  0.96591900  0.51943400  1
  C  261  1  0.52495400  0.01593900  0.52654800  1
  C  262  1  0.56637400  0.04551800  0.50946400  1
  C  263  1  0.57290100  0.02431600  0.48563500  1
  C  265  1  0.53783700  0.97405600  0.47913800  1
  C  273  1  0.46093000  0.89483300  0.48960500  1
  C  275  1  0.60169500  0.09386600  0.51678800  1
  C  277  1  0.50222000  0.53921600  0.49934900  1
  C  278  1  0.52801900  0.54441200  0.52361200  1
  C  279  1  0.55712800  0.52086700  0.52782200  1
  C  280  1  0.56002200  0.49049400  0.50733000  1
  C  281  1  0.53391700  0.48440500  0.48287500  1
  C  283  1  0.50532000  0.50867400  0.47925400  1
  C  291  1  0.47361000  0.56258400  0.49619500  1
  C  293  1  0.59071600  0.46950500  0.51034000  1
  C  295  1  0.99211500  0.44116000  0.50683000  1
  C  296  1  0.96160900  0.45450100  0.49127300  1
  C  297  1  0.98484900  0.49228900  0.47140800  1
  C  304  1  0.12003100  0.52363400  0.47790000  1
  C  306  1  0.90934200  0.42932800  0.49409300  1
  C  310  1  0.07832100  0.56440400  0.99410200  1
  C  311  1  0.06835400  0.50256200  0.48237300  1
  C  312  1  0.04468900  0.46538400  0.50222500  1
  C  315  1  0.99552700  0.55258300  0.00679300  1
  C  316  1  0.02606300  0.53926600  0.99126500  1
  C  317  1  0.00287000  0.50153600  0.97141600  1
  C  324  1  0.03756900  0.51569500  0.46728800  1
  C  325  1  0.65114600  0.78638500  0.64510200  1
  C  326  1  0.65596400  0.82784000  0.65959400  1
  C  327  1  0.65054100  0.82562000  0.68759800  1
  C  328  1  0.63816500  0.78157800  0.70239100  1
  C  329  1  0.63736600  0.74181900  0.68759800  1
  C  330  1  0.64298300  0.74382300  0.65960900  1
  C  331  1  0.63302400  0.78043100  0.73290700  1
  C  332  1  0.68858800  0.80963000  0.74114300  1
  C  333  1  0.71957600  0.78726050  0.74033800  1
  C  334  1  0.77086800  0.81366550  0.74747200  1
  C  335  1  0.79391800  0.86423250  0.75509500  1
  C  336  1  0.76495600  0.88833700  0.75381000  1
  C  337  1  0.71378100  0.86172600  0.74664400  1
  C  338  1  0.60193800  0.80318500  0.74369800  1
  C  339  1  0.60347600  0.72754500  0.74450200  1
  C  340  1  0.61742900  0.71281550  0.76850600  1
  C  341  1  0.58946600  0.66403150  0.77881300  1
  C  342  1  0.54523100  0.62781550  0.76588700  1
  C  343  1  0.52863100  0.64283300  0.74325400  1
  C  344  1  0.55671300  0.69172900  0.73310400  1
  C  345  1  0.56513000  0.80746800  0.72835200  1
  C  346  1  0.53817100  0.82976300  0.73871800  1
  C  347  1  0.54531500  0.84710300  0.76530400  1
  C  348  1  0.57910600  0.83994900  0.78148000  1
  C  349  1  0.60585500  0.81760200  0.77099600  1
  C  370  1  0.33667800  0.11560600  0.14509900  1
  C  371  1  0.33170100  0.07410500  0.15966400  1
  C  372  1  0.33712400  0.07634300  0.18766500  1
  C  373  1  0.34966300  0.12044500  0.20238500  1
  C  374  1  0.35065800  0.16027600  0.18751900  1
  C  375  1  0.34503100  0.15824900  0.15953200  1
  C  376  1  0.35477500  0.12156700  0.23290100  1
  C  377  1  0.29921300  0.09230900  0.24116900  1
  C  378  1  0.26815300  0.11459500  0.24021900  1
  C  379  1  0.21684500  0.08816600  0.24735900  1
  C  380  1  0.19384400  0.03763800  0.25511700  1
  C  381  1  0.22286900  0.01359000  0.25395500  1
  C  382  1  0.27406000  0.04023300  0.24679500  1
  C  383  1  0.38588900  0.09881900  0.24369300  1
  C  384  1  0.38426000  0.17443400  0.24446100  1
  C  385  1  0.37016000  0.18911200  0.26841600  1
  C  386  1  0.39807600  0.23786000  0.27871200  1
  C  387  1  0.44242300  0.27409600  0.26583000  1
  C  388  1  0.45913200  0.25914100  0.24323500  1
  C  389  1  0.43109400  0.21028000  0.23309700  1
  C  390  1  0.42263900  0.09448600  0.22832600  1
  C  391  1  0.44959200  0.07216900  0.23869900  1
  C  392  1  0.44250800  0.05486700  0.26531400  1
  C  393  1  0.40882200  0.06212100  0.28151300  1
  C  394  1  0.38207300  0.08448300  0.27101800  1
  C  415  1  0.31321100  0.11046200  0.94517140  1
  C  416  1  0.28111200  0.06782000  0.93008240  1
  C  417  1  0.27808200  0.07069300  0.90209340  1
  C  418  1  0.30592300  0.11636800  0.88781400  1
  C  419  1  0.34055900  0.15802700  0.90328940  1
  C  420  1  0.34381100  0.15546400  0.93126040  1
  C  421  1  0.30230900  0.11754900  0.85720700  1
  C  422  1  0.32843000  0.08809700  0.84880100  1
  C  423  1  0.38100900  0.10818500  0.85308700  1
  C  424  1  0.40620800  0.08202000  0.84612500  1
  C  425  1  0.37968800  0.03390200  0.83489800  1
  C  426  1  0.32694000  0.01167500  0.83228200  1
  C  427  1  0.30203600  0.03798100  0.83941200  1
  C  428  1  0.24824000  0.09489200  0.84664100  1
  C  429  1  0.32659200  0.17066600  0.84566900  1
  C  430  1  0.36206200  0.18819100  0.82434000  1
  C  431  1  0.38511900  0.23794300  0.81524100  1
  C  432  1  0.37184800  0.27194200  0.82611400  1
  C  433  1  0.33430600  0.25457700  0.84610900  1
  C  434  1  0.31175000  0.20490200  0.85526100  1
  C  435  1  0.20611500  0.08518500  0.86283900  1
  C  436  1  0.15687500  0.06267700  0.85249100  1
  C  437  1  0.14754500  0.05046000  0.82517200  1
  C  438  1  0.18920400  0.06294400  0.80830900  1
  C  439  1  0.23833200  0.08540700  0.81881500  1
  C  459  1  0.67435500  0.79102400  0.44517300  1
  C  460  1  0.70644200  0.83366700  0.43002700  1
  C  461  1  0.70947500  0.83079000  0.40204400  1
  C  462  1  0.68160700  0.78511800  0.38782300  1
  C  463  1  0.64703700  0.74343350  0.40335600  1
  C  464  1  0.64380200  0.74600200  0.43132500  1
  C  465  1  0.68523300  0.78395550  0.35721800  1
  C  466  1  0.65915300  0.81346100  0.34879700  1
  C  467  1  0.60657700  0.79339500  0.35311000  1
  C  468  1  0.58142000  0.81961000  0.34613500  1
  C  469  1  0.60797700  0.86774600  0.33487100  1
  C  470  1  0.66071800  0.88993200  0.33221300  1
  C  471  1  0.68558400  0.86357000  0.33933300  1
  C  472  1  0.73931200  0.80658150  0.34663700  1
  C  473  1  0.66091400  0.73085750  0.34571500  1
  C  474  1  0.62546300  0.71341650  0.32440000  1
  C  475  1  0.60240000  0.66369950  0.31531200  1
  C  476  1  0.61563100  0.62964350  0.32618800  1
  C  477  1  0.65311600  0.64691000  0.34619300  1
  C  478  1  0.67570400  0.69656250  0.35531800  1
  C  479  1  0.78140500  0.81625350  0.36283600  1
  C  480  1  0.83066400  0.83879245  0.35248500  1
  C  481  1  0.84003900  0.85109750  0.32516200  1
  C  482  1  0.79841200  0.83866550  0.30829800  1
  C  483  1  0.74925700  0.81611350  0.31880400  1
  C  504  1  0.65663300  0.80164500  0.57267500  1
  C  505  1  0.63583800  0.81874600  0.55286000  1
  C  506  1  0.63616900  0.80751800  0.52542900  1
  C  507  1  0.65860400  0.77881400  0.51732600  1
  C  508  1  0.68024900  0.76176550  0.53695900  1
  C  510  1  0.67909800  0.77349050  0.56424200  1
  C  518  1  0.65451700  0.81276700  0.59947800  1
  C  520  1  0.65661500  0.76441900  0.49079900  1
  C  522  1  0.33104800  0.10014300  0.07270400  1
  C  523  1  0.35181600  0.08298000  0.05292900  1
  C  524  1  0.35142900  0.09410300  0.02547400  1
  C  525  1  0.32898300  0.12278400  0.01730400  1
  C  526  1  0.30737600  0.13990500  0.03690000  1
  C  528  1  0.30856900  0.12827000  0.06420800  1
  C  536  1  0.33318500  0.08909000  0.09953100  1
  C  538  1  0.33094800  0.13711600  0.99074740  1
  C  540  1  0.49120500  0.50375950  0.79591000  1
  C  541  1  0.49692500  0.48173300  0.81948100  1
  C  542  1  0.46250400  0.43166400  0.82656200  1
  C  543  1  0.42116700  0.40218000  0.80945300  1
  C  544  1  0.41472800  0.42352845  0.78562900  1
  C  546  1  0.44980200  0.47383550  0.77916300  1
  C  554  1  0.52664600  0.55300650  0.78968800  1
  C  556  1  0.38581700  0.35379500  0.81674900  1
  C  558  1  0.48554300  0.90863800  0.79935300  1
  C  559  1  0.45976500  0.90339000  0.82363600  1
  C  560  1  0.43063500  0.92690300  0.82785200  1
  C  561  1  0.42772500  0.95732300  0.80735700  1
  C  562  1  0.45382500  0.96347900  0.78288500  1
  C  564  1  0.48243100  0.93922700  0.77925300  1
  C  572  1  0.51415000  0.88527200  0.79618800  1
  C  574  1  0.39701600  0.97828700  0.81037700  1
  C  576  1  0.91935100  0.94526750  0.78234300  1
  C  577  1  0.94297100  0.98238150  0.80217700  1
  C  579  1  0.95016700  0.93215800  0.76728400  1
  C  581  1  0.86770000  0.92426550  0.77783400  1
  C  583  1  0.49636100  0.39801600  0.29586500  1
  C  584  1  0.49055100  0.41989800  0.31944200  1
  C  585  1  0.52495400  0.46991800  0.32655600  1
  C  586  1  0.56637400  0.49949700  0.30947200  1
  C  587  1  0.57290100  0.47829500  0.28564300  1
  C  589  1  0.53783700  0.42803500  0.27914600  1
  C  597  1  0.46093000  0.34881200  0.28961300  1
  C  599  1  0.60169500  0.54784500  0.31679600  1
  C  601  1  0.50222000  0.99319500  0.29935700  1
  C  602  1  0.52801900  0.99839100  0.32362000  1
  C  603  1  0.55712800  0.97484600  0.32783000  1
  C  604  1  0.56002200  0.94447300  0.30733800  1
  C  605  1  0.53391700  0.93838400  0.28288300  1
  C  607  1  0.50532000  0.96265300  0.27926200  1
  C  615  1  0.47361000  0.01656300  0.29620300  1
  C  617  1  0.59071600  0.92348400  0.31034800  1
  C  619  1  0.99211500  0.89513900  0.30683800  1
  C  620  1  0.96160900  0.90848000  0.29128100  1
  C  621  1  0.98484900  0.94626800  0.27141600  1
  C  628  1  0.12003100  0.97761300  0.27790800  1
  C  630  1  0.90934200  0.88330700  0.29410100  1
  C  634  1  0.07832100  0.01838300  0.79411000  1
  C  635  1  0.06835400  0.95654100  0.28238100  1
  C  636  1  0.04468900  0.91936300  0.30223300  1
  C  639  1  0.99552700  0.00656250  0.80680100  1
  C  640  1  0.02606300  0.99324500  0.79127300  1
  C  641  1  0.00287000  0.95551500  0.77142400  1
  C  648  1  0.03756900  0.96967400  0.26729600  1
  N  41  1  0.51713900  0.12666800  0.97414500  1
  N  42  1  0.52022200  0.41596300  0.97327900  1
  N  43  1  0.65454900  0.33078600  0.81857000  1
  N  44  1  0.84259000  0.43361700  0.96168600  1
  N  86  1  0.47050100  0.86724800  0.47409600  1
  N  87  1  0.46758100  0.57801600  0.47329600  1
  N  88  1  0.33325100  0.66320200  0.31856400  1
  N  89  1  0.14515100  0.56026000  0.46168800  1
  N  131  1  0.39800600  0.86553800  0.01842300  1
  N  132  1  0.31480100  0.65113600  0.17155800  1
  N  133  1  0.40503300  0.55640700  0.02885800  1
  N  175  1  0.58949500  0.12812500  0.51848800  1
  N  176  1  0.88790000  0.41993900  0.51715600  1
  N  177  1  0.67278600  0.34240400  0.67155200  1
  N  178  1  0.58266200  0.43732900  0.52883100  1
  N  188  1  0.61339300  0.36984800  0.70616600  1
  N  189  1  0.70303800  0.27939800  0.72908700  1
  N  206  1  0.37416200  0.62374400  0.20624700  1
  N  207  1  0.28457700  0.71429300  0.22896600  1
  N  224  1  0.46864400  0.95699800  0.05065900  1
  N  225  1  0.37365700  0.94010100  0.96844900  1
  N  242  1  0.40385900  0.46576900  0.05210500  1
  N  243  1  0.45142700  0.54025300  0.96248200  1
  N  267  1  0.51872100  0.03647900  0.55065700  1
  N  268  1  0.61404800  0.05386700  0.46848800  1
  N  285  1  0.58389900  0.52794200  0.55206700  1
  N  286  1  0.53629700  0.45369400  0.46248800  1
  N  298  1  0.96990800  0.40302700  0.52645200  1
  N  299  1  0.95516000  0.50643200  0.45582900  1
  N  308  1  0.09969900  0.57370800  0.01716900  1
  N  318  1  0.01769200  0.59065300  0.02640000  1
  N  319  1  0.03258700  0.48740700  0.95587100  1
  N  365  1  0.51713900  0.58064750  0.77415300  1
  N  366  1  0.52022200  0.86994200  0.77328700  1
  N  367  1  0.65454900  0.78476500  0.61857800  1
  N  368  1  0.84259000  0.88759650  0.76169400  1
  N  410  1  0.47050100  0.32122700  0.27410400  1
  N  411  1  0.46758100  0.03199500  0.27330400  1
  N  412  1  0.33325100  0.11718100  0.11857200  1
  N  413  1  0.14515100  0.01423900  0.26169600  1
  N  455  1  0.39800600  0.31951700  0.81843100  1
  N  456  1  0.31480100  0.10511500  0.97156640  1
  N  457  1  0.40503300  0.01038600  0.82886600  1
  N  499  1  0.58949500  0.58210400  0.31849600  1
  N  500  1  0.88790000  0.87391800  0.31716400  1
  N  501  1  0.67278600  0.79638300  0.47156000  1
  N  502  1  0.58266200  0.89130800  0.32883900  1
  N  512  1  0.61339300  0.82382700  0.50617400  1
  N  513  1  0.70303800  0.73337750  0.52909500  1
  N  530  1  0.37416200  0.07772300  0.00625500  1
  N  531  1  0.28457700  0.16827200  0.02897400  1
  N  548  1  0.46864400  0.41097700  0.85066700  1
  N  549  1  0.37365700  0.39408050  0.76845700  1
  N  566  1  0.40385900  0.91974800  0.85211300  1
  N  567  1  0.45142700  0.99423200  0.76249000  1
  N  591  1  0.51872100  0.49045800  0.35066500  1
  N  592  1  0.61404800  0.50784600  0.26849600  1
  N  609  1  0.58389900  0.98192100  0.35207500  1
  N  610  1  0.53629700  0.90767300  0.26249600  1
  N  622  1  0.96990800  0.85700600  0.32646000  1
  N  623  1  0.95516000  0.96041145  0.25583700  1
  N  632  1  0.09969900  0.02768700  0.81717700  1
  N  642  1  0.01769200  0.04463250  0.82640800  1
  N  643  1  0.03258700  0.94138600  0.75587900  1
  O  190  1  0.63410600  0.41666500  0.70553800  1
  O  191  1  0.74894300  0.30097000  0.73514700  1
  O  192  1  0.56716200  0.35203500  0.71057400  1
  O  193  1  0.68148200  0.23671200  0.73955700  1
  O  208  1  0.35344300  0.57692500  0.20572700  1
  O  209  1  0.23868100  0.69274200  0.23507400  1
  O  210  1  0.42040000  0.64156500  0.21061300  1
  O  211  1  0.30615400  0.75701400  0.23934100  1
  O  226  1  0.50976300  0.95706600  0.05103100  1
  O  227  1  0.38846000  0.93565600  0.94569900  1
  O  228  1  0.46647900  0.98022500  0.07078800  1
  O  229  1  0.34522300  0.95840300  0.96581000  1
  O  244  1  0.43304600  0.48115200  0.07186800  1
  O  245  1  0.49424100  0.57646700  0.95723800  1
  O  246  1  0.37183700  0.42060300  0.05575500  1
  O  247  1  0.43257400  0.51605900  0.94136500  1
  O  269  1  0.47761000  0.03642900  0.55101100  1
  O  270  1  0.59934100  0.05846300  0.44573500  1
  O  271  1  0.52078400  0.01311600  0.57078000  1
  O  272  1  0.64247600  0.03556200  0.46585000  1
  O  287  1  0.55470900  0.51251400  0.57184800  1
  O  288  1  0.49347700  0.41749900  0.45728200  1
  O  289  1  0.61593800  0.57309500  0.55568800  1
  O  290  1  0.55514200  0.47793600  0.44135300  1
  O  300  1  0.98668200  0.41927800  0.54942500  1
  O  301  1  0.96845800  0.55174900  0.45897200  1
  O  302  1  0.97671800  0.36691000  0.52138200  1
  O  303  1  0.95739300  0.49842100  0.43136400  1
  O  320  1  0.00083800  0.57433700  0.04937500  1
  O  321  1  0.01924600  0.44207400  0.95904300  1
  O  322  1  0.01092600  0.62680700  0.02130000  1
  O  323  1  0.03044700  0.49549400  0.93139700  1
  O  514  1  0.63410600  0.87064400  0.50554600  1
  O  515  1  0.74894300  0.75494945  0.53515500  1
  O  516  1  0.56716200  0.80601400  0.51058200  1
  O  517  1  0.68148200  0.69069145  0.53956500  1
  O  532  1  0.35344300  0.03090400  0.00573500  1
  O  533  1  0.23868100  0.14672100  0.03508200  1
  O  534  1  0.42040000  0.09554400  0.01062100  1
  O  535  1  0.30615400  0.21099300  0.03934900  1
  O  550  1  0.50976300  0.41104500  0.85103900  1
  O  551  1  0.38846000  0.38963545  0.74570700  1
  O  552  1  0.46647900  0.43420400  0.87079600  1
  O  553  1  0.34522300  0.41238250  0.76581800  1
  O  568  1  0.43304600  0.93513100  0.87187600  1
  O  569  1  0.49424100  0.03044600  0.75724600  1
  O  570  1  0.37183700  0.87458200  0.85576300  1
  O  571  1  0.43257400  0.97003800  0.74137300  1
  O  593  1  0.47761000  0.49040850  0.35101900  1
  O  594  1  0.59934100  0.51244200  0.24574300  1
  O  595  1  0.52078400  0.46709500  0.37078800  1
  O  596  1  0.64247600  0.48954100  0.26585800  1
  O  611  1  0.55470900  0.96649300  0.37185600  1
  O  612  1  0.49347700  0.87147800  0.25729000  1
  O  613  1  0.61593800  0.02707400  0.35569600  1
  O  614  1  0.55514200  0.93191500  0.24136100  1
  O  624  1  0.98668200  0.87325700  0.34943300  1
  O  625  1  0.96845800  0.00572850  0.25898000  1
  O  626  1  0.97671800  0.82088900  0.32139000  1
  O  627  1  0.95739300  0.95240000  0.23137200  1
  O  644  1  0.00083800  0.02831650  0.84938300  1
  O  645  1  0.01924600  0.89605300  0.75905100  1
  O  646  1  0.01092600  0.08078650  0.82130800  1
  O  647  1  0.03044700  0.94947300  0.73140500  1
