# generated using pymatgen
data_Cr6H27C50Cl5O26
_symmetry_space_group_name_H-M   'P 1'
_cell_length_a   10.89359000
_cell_length_b   10.92290000
_cell_length_c   18.85413000
_cell_angle_alpha   89.61852000
_cell_angle_beta   89.85435000
_cell_angle_gamma   119.78322000
_symmetry_Int_Tables_number   1
_chemical_formula_structural   Cr6H27C50Cl5O26
_chemical_formula_sum   'Cr6 H27 C50 Cl5 O26'
_cell_volume   1947.02337349
_cell_formula_units_Z   1
loop_
 _symmetry_equiv_pos_site_id
 _symmetry_equiv_pos_as_xyz
  1  'x, y, z'
loop_
 _atom_site_type_symbol
 _atom_site_label
 _atom_site_symmetry_multiplicity
 _atom_site_fract_x
 _atom_site_fract_y
 _atom_site_fract_z
 _atom_site_occupancy
  Cr  Cr0  1  0.60707000  0.39790000  0.49777000  1
  Cr  Cr1  1  0.60176000  0.70860000  0.49874000  1
  Cr  Cr2  1  0.29120000  0.39347000  0.50354000  1
  Cr  Cr3  1  0.06238000  0.93854000  0.99236000  1
  Cr  Cr4  1  0.37485000  0.93745000  0.00548000  1
  Cr  Cr5  1  0.06201000  0.62508000  0.99881000  1
  H  H6  1  0.24236000  0.42858000  0.29317000  1
  H  H7  1  0.46495000  0.89899000  0.80859000  1
  H  H8  1  0.47536000  0.87054000  0.68030000  1
  H  H9  1  0.56996000  0.20544000  0.68921000  1
  H  H10  1  0.55638000  0.18314000  0.81543000  1
  H  H11  1  0.12730000  0.10907000  0.80962000  1
  H  H12  1  0.14395000  0.14153000  0.68211000  1
  H  H13  1  0.89950000  0.89069000  0.66938000  1
  H  H14  1  0.54591000  0.78726000  0.29338000  1
  H  H15  1  0.91824000  0.90455000  0.79434000  1
  H  H16  1  0.85098000  0.47896000  0.80695000  1
  H  H17  1  0.12255000  0.13501000  0.32247000  1
  H  H18  1  0.81141000  0.45792000  0.67865000  1
  H  H19  1  0.10472000  0.68779000  0.21110000  1
  H  H20  1  0.27903000  0.46398000  0.17252000  1
  H  H21  1  0.45555000  0.60686000  0.18259000  1
  H  H22  1  0.43119000  0.52715000  0.29782000  1
  H  H23  1  0.37067000  0.89255000  0.21963000  1
  H  H24  1  0.56186000  0.25023000  0.30006000  1
  H  H25  1  0.24783000  0.41857000  0.70869000  1
  H  H26  1  0.09372000  0.09563000  0.19332000  1
  H  H27  1  0.54020000  0.23562000  0.17485000  1
  H  H28  1  0.76529000  0.44929000  0.30225000  1
  H  H29  1  0.78698000  0.46417000  0.17258000  1
  H  H30  1  0.85347000  0.88820000  0.18044000  1
  H  H31  1  0.50954000  0.86371000  0.18765000  1
  H  H32  1  0.83130000  0.87313000  0.30668000  1
  C  C33  1  0.76063000  0.64530000  0.38956000  1
  C  C34  1  0.44720000  0.21318000  0.20577000  1
  C  C35  1  0.45967000  0.22085000  0.27811000  1
  C  C36  1  0.34454000  0.62399000  0.40007000  1
  C  C37  1  0.34396000  0.19289000  0.32132000  1
  C  C38  1  0.78474000  0.54504000  0.27565000  1
  C  C39  1  0.79580000  0.55291000  0.20192000  1
  C  C40  1  0.82541000  0.67780000  0.16684000  1
  C  C41  1  0.83248000  0.79034000  0.20575000  1
  C  C42  1  0.82284000  0.78300000  0.27866000  1
  C  C43  1  0.79938000  0.66052000  0.31455000  1
  C  C44  1  0.34470000  0.56369000  0.20170000  1
  C  C45  1  0.29414000  0.52387000  0.73017000  1
  C  C46  1  0.29403000  0.53882000  0.80307000  1
  C  C47  1  0.35078000  0.67408000  0.83203000  1
  C  C48  1  0.37366000  0.23196000  0.39581000  1
  C  C49  1  0.42068000  0.79359000  0.78744000  1
  C  C50  1  0.42360000  0.77789000  0.71420000  1
  C  C51  1  0.35452000  0.64271000  0.68518000  1
  C  C52  1  0.47179000  0.18378000  0.71461000  1
  C  C53  1  0.46600000  0.17455000  0.78714000  1
  C  C54  1  0.34257000  0.14853000  0.82208000  1
  C  C55  1  0.29587000  0.67241000  0.18876000  1
  C  C56  1  0.22521000  0.13279000  0.78356000  1
  C  C57  1  0.23270000  0.14736000  0.71083000  1
  C  C58  1  0.35703000  0.17545000  0.67631000  1
  C  C59  1  0.88949000  0.79996000  0.69825000  1
  C  C60  1  0.78121000  0.64997000  0.59750000  1
  C  C61  1  0.89852000  0.80685000  0.77039000  1
  C  C62  1  0.88226000  0.69086000  0.81058000  1
  C  C63  1  0.85902000  0.56758000  0.77692000  1
  C  C64  1  0.84105000  0.55755000  0.70386000  1
  C  C65  1  0.84995000  0.67237000  0.66513000  1
  C  C66  1  0.32465000  0.65084000  0.32535000  1
  C  C67  1  0.29840000  0.10355000  0.10345000  1
  C  C68  1  0.27571000  0.68774000  0.11217000  1
  C  C69  1  0.88217000  0.70725000  0.09468000  1
  C  C70  1  0.32397000  0.10474000  0.89521000  1
  C  C71  1  0.30606000  0.69039000  0.90277000  1
  C  C72  1  0.36009000  0.61954000  0.60945000  1
  C  C73  1  0.91364000  0.71336000  0.88526000  1
  C  C74  1  0.38283000  0.22794000  0.60467000  1
  C  C75  1  0.41082000  0.81666000  0.22017000  1
  C  C76  1  0.44760000  0.79464000  0.29612000  1
  C  C77  1  0.17542000  0.63820000  0.31073000  1
  C  C78  1  0.15080000  0.62201000  0.22901000  1
  C  C79  1  0.33607000  0.53373000  0.28202000  1
  C  C80  1  0.21259000  0.15356000  0.29014000  1
  C  C81  1  0.19726000  0.13565000  0.21655000  1
  C  C82  1  0.31473000  0.16244000  0.17431000  1
  Cl  Cl83  1  0.02299000  0.44129000  0.20552000  1
  Cl  Cl84  1  0.02964000  0.49745000  0.35939000  1
  Cl  Cl85  1  0.21710000  0.38571000  0.85662000  1
  Cl  Cl86  1  0.49565000  0.94700000  0.34980000  1
  Cl  Cl87  1  0.16839000  0.79110000  0.33954000  1
  O  O88  1  0.49257000  0.25557000  0.41858000  1
  O  O89  1  0.16280000  0.59329000  0.08475000  1
  O  O90  1  0.93467000  0.63537000  0.06841000  1
  O  O91  1  0.71981000  0.52739000  0.42109000  1
  O  O92  1  0.93170000  0.82879000  0.90814000  1
  O  O93  1  0.20127000  0.05748000  0.92063000  1
  O  O94  1  0.41532000  0.08048000  0.92321000  1
  O  O95  1  0.37321000  0.80964000  0.93295000  1
  O  O96  1  0.18399000  0.59646000  0.92350000  1
  O  O97  1  0.95432000  0.63831000  0.91893000  1
  O  O98  1  0.16641000  0.83369000  0.99888000  1
  O  O99  1  0.47554000  0.69592000  0.57594000  1
  O  O100  1  0.73969000  0.73974000  0.41542000  1
  O  O101  1  0.46775000  0.69515000  0.42617000  1
  O  O102  1  0.25507000  0.50343000  0.42362000  1
  O  O103  1  0.30075000  0.27639000  0.42805000  1
  O  O104  1  0.50098000  0.25640000  0.58015000  1
  O  O105  1  0.72760000  0.52816000  0.57086000  1
  O  O106  1  0.74809000  0.74057000  0.57698000  1
  O  O107  1  0.26347000  0.50426000  0.58519000  1
  O  O108  1  0.30854000  0.27716000  0.57782000  1
  O  O109  1  0.50001000  0.49999000  0.50002000  1
  O  O110  1  0.91051000  0.82561000  0.06939000  1
  O  O111  1  0.18163000  0.05454000  0.07012000  1
  O  O112  1  0.39413000  0.07731000  0.08447000  1
  O  O113  1  0.35356000  0.80670000  0.08243000  1
