# generated using pymatgen
data_BaZn2H16(C12O7)2
_symmetry_space_group_name_H-M   'P 1'
_cell_length_a   12.12530000
_cell_length_b   12.16719000
_cell_length_c   12.47332000
_cell_angle_alpha   102.77011000
_cell_angle_beta   102.56907000
_cell_angle_gamma   103.37600000
_symmetry_Int_Tables_number   1
_chemical_formula_structural   BaZn2H16(C12O7)2
_chemical_formula_sum   'Ba2 Zn4 H32 C48 O28'
_cell_volume   1674.49065155
_cell_formula_units_Z   2
loop_
 _symmetry_equiv_pos_site_id
 _symmetry_equiv_pos_as_xyz
  1  'x, y, z'
loop_
 _atom_site_type_symbol
 _atom_site_label
 _atom_site_symmetry_multiplicity
 _atom_site_fract_x
 _atom_site_fract_y
 _atom_site_fract_z
 _atom_site_occupancy
  Ba  Ba1  1  0.80039000  0.20065000  0.74943000  1.0
  Ba  Ba2  1  0.19960000  0.79935000  0.25057000  1.0
  Zn  Zn1  1  0.82259000  0.42200000  0.04432000  1.0
  Zn  Zn2  1  0.57658000  0.17632000  0.45442000  1.0
  Zn  Zn3  1  0.17740000  0.57800000  0.95568000  1.0
  Zn  Zn4  1  0.42342000  0.82367000  0.54558000  1.0
  H  H1  1  0.04753000  0.09403000  0.99286000  1.0
  H  H2  1  0.19977000  0.02486000  0.10677000  1.0
  H  H3  1  0.29817000  0.34670000  0.37976000  1.0
  H  H4  1  0.14087000  0.41208000  0.26995000  1.0
  H  H5  1  0.60387000  0.17260000  0.17225000  1.0
  H  H6  1  0.52422000  0.01265000  0.81008000  1.0
  H  H7  1  0.90266000  0.50095000  0.88554000  1.0
  H  H8  1  0.76309000  0.46842000  0.84787000  1.0
  H  H9  1  0.90614000  0.95282000  0.50602000  1.0
  H  H10  1  0.97498000  0.79906000  0.39422000  1.0
  H  H11  1  0.65343000  0.69998000  0.12031000  1.0
  H  H12  1  0.58823000  0.85847000  0.22817000  1.0
  H  H13  1  0.82758000  0.39572000  0.32756000  1.0
  H  H14  1  0.98655000  0.47637000  0.68982000  1.0
  H  H15  1  0.49953000  0.09738000  0.61510000  1.0
  H  H16  1  0.53048000  0.23648000  0.65080000  1.0
  H  H17  1  0.95246000  0.90597000  0.00714000  1.0
  H  H18  1  0.80022000  0.97513000  0.89322000  1.0
  H  H19  1  0.70182000  0.65330000  0.62024000  1.0
  H  H20  1  0.85913000  0.58791000  0.73004000  1.0
  H  H21  1  0.39613000  0.82740000  0.82775000  1.0
  H  H22  1  0.47578000  0.98735000  0.18991000  1.0
  H  H23  1  0.09734000  0.49904000  0.11445000  1.0
  H  H24  1  0.23690000  0.53157000  0.15213000  1.0
  H  H25  1  0.09386000  0.04717000  0.49398000  1.0
  H  H26  1  0.02502000  0.20093000  0.60578000  1.0
  H  H27  1  0.34657000  0.30002000  0.87969000  1.0
  H  H28  1  0.41176000  0.14153000  0.77182000  1.0
  H  H29  1  0.17241000  0.60428000  0.67244000  1.0
  H  H30  1  0.01345000  0.52363000  0.31018000  1.0
  H  H31  1  0.50046000  0.90261000  0.38490000  1.0
  H  H32  1  0.46952000  0.76351000  0.34919000  1.0
  C  C1  1  0.98573000  0.29014000  0.05736000  1.0
  C  C2  1  0.08387000  0.25656000  0.12404000  1.0
  C  C3  1  0.10172000  0.14787000  0.07816000  1.0
  C  C4  1  0.18636000  0.10939000  0.14189000  1.0
  C  C5  1  0.25639000  0.18064000  0.25148000  1.0
  C  C6  1  0.24210000  0.29139000  0.29560000  1.0
  C  C7  1  0.15505000  0.32847000  0.23312000  1.0
  C  C8  1  0.34701000  0.13850000  0.31988000  1.0
  C  C9  1  0.64622000  0.21263000  0.97629000  1.0
  C  C10  1  0.57055000  0.10354000  0.98956000  1.0
  C  C11  1  0.55815000  0.09689000  0.09747000  1.0
  C  C12  1  0.51235000  0.00619000  0.89258000  1.0
  C  C13  1  0.70988000  0.01444000  0.44097000  1.0
  C  C14  1  0.74359000  0.91605000  0.37470000  1.0
  C  C15  1  0.85218000  0.89798000  0.42100000  1.0
  C  C16  1  0.89055000  0.81240000  0.35817000  1.0
  C  C17  1  0.81928000  0.74165000  0.24877000  1.0
  C  C18  1  0.70875000  0.75651000  0.20423000  1.0
  C  C19  1  0.67173000  0.84434000  0.26579000  1.0
  C  C20  1  0.86105000  0.65026000  0.18054000  1.0
  C  C21  1  0.78617000  0.35410000  0.52332000  1.0
  C  C22  1  0.89580000  0.42969000  0.51025000  1.0
  C  C23  1  0.90322000  0.44170000  0.40243000  1.0
  C  C24  1  0.99317000  0.48805000  0.60733000  1.0
  C  C25  1  0.01426000  0.70985000  0.94264000  1.0
  C  C26  1  0.91613000  0.74343000  0.87596000  1.0
  C  C27  1  0.89828000  0.85212000  0.92184000  1.0
  C  C28  1  0.81363000  0.89060000  0.85811000  1.0
  C  C29  1  0.74360000  0.81936000  0.74851000  1.0
  C  C30  1  0.75790000  0.70860000  0.70440000  1.0
  C  C31  1  0.84494000  0.67152000  0.76688000  1.0
  C  C32  1  0.65299000  0.86149000  0.68011000  1.0
  C  C33  1  0.35377000  0.78736000  0.02371000  1.0
  C  C34  1  0.42944000  0.89645000  0.01044000  1.0
  C  C35  1  0.44185000  0.90311000  0.90252000  1.0
  C  C36  1  0.48765000  0.99381000  0.10741000  1.0
  C  C37  1  0.29011000  0.98555000  0.55902000  1.0
  C  C38  1  0.25641000  0.08394000  0.62530000  1.0
  C  C39  1  0.14782000  0.10202000  0.57900000  1.0
  C  C40  1  0.10945000  0.18759000  0.64183000  1.0
  C  C41  1  0.18071000  0.25835000  0.75122000  1.0
  C  C42  1  0.29125000  0.24348000  0.79577000  1.0
  C  C43  1  0.32826000  0.15565000  0.73420000  1.0
  C  C44  1  0.13894000  0.34973000  0.81946000  1.0
  C  C45  1  0.21382000  0.64589000  0.47668000  1.0
  C  C46  1  0.10419000  0.57030000  0.48975000  1.0
  C  C47  1  0.09678000  0.55830000  0.59757000  1.0
  C  C48  1  0.00682000  0.51194000  0.39267000  1.0
  O  O1  1  0.91060000  0.21662000  0.97101000  1.0
  O  O2  1  0.98196000  0.39900000  0.09559000  1.0
  O  O3  1  0.33358000  0.02984000  0.30457000  1.0
  O  O4  1  0.43728000  0.22105000  0.39167000  1.0
  O  O5  1  0.71136000  0.29250000  0.06975000  1.0
  O  O6  1  0.64445000  0.22253000  0.87700000  1.0
  O  O7  1  0.82703000  0.44017000  0.88245000  1.0
  O  O8  1  0.78338000  0.08961000  0.52734000  1.0
  O  O9  1  0.60072000  0.01802000  0.40238000  1.0
  O  O10  1  0.96990000  0.66166000  0.19772000  1.0
  O  O11  1  0.77829000  0.56178000  0.10656000  1.0
  O  O12  1  0.70596000  0.28932000  0.42981000  1.0
  O  O13  1  0.77671000  0.35559000  0.62280000  1.0
  O  O14  1  0.56014000  0.17287000  0.61801000  1.0
  O  O15  1  0.08940000  0.78337000  0.02899000  1.0
  O  O16  1  0.01803000  0.60100000  0.90441000  1.0
  O  O17  1  0.66641000  0.97015000  0.69543000  1.0
  O  O18  1  0.56271000  0.77894000  0.60833000  1.0
  O  O19  1  0.28863000  0.70749000  0.93025000  1.0
  O  O20  1  0.35554000  0.77746000  0.12299000  1.0
  O  O21  1  0.17297000  0.55982000  0.11755000  1.0
  O  O22  1  0.21662000  0.91039000  0.47266000  1.0
  O  O23  1  0.39927000  0.98197000  0.59761000  1.0
  O  O24  1  0.03009000  0.33833000  0.80227000  1.0
  O  O25  1  0.22171000  0.43821000  0.89344000  1.0
  O  O26  1  0.29404000  0.71067000  0.57019000  1.0
  O  O27  1  0.22329000  0.64441000  0.37720000  1.0
  O  O28  1  0.43986000  0.82712000  0.38199000  1.0
