# generated using pymatgen
data_InH3C9O7
_symmetry_space_group_name_H-M   'P 1'
_cell_length_a   7.72093000
_cell_length_b   9.19229000
_cell_length_c   17.12974000
_cell_angle_alpha   89.72278000
_cell_angle_beta   90.21161000
_cell_angle_gamma   89.85351000
_symmetry_Int_Tables_number   1
_chemical_formula_structural   InH3C9O7
_chemical_formula_sum   'In4 H12 C36 O28'
_cell_volume   1215.72295894
_cell_formula_units_Z   4
loop_
 _symmetry_equiv_pos_site_id
 _symmetry_equiv_pos_as_xyz
  1  'x, y, z'
loop_
 _atom_site_type_symbol
 _atom_site_label
 _atom_site_symmetry_multiplicity
 _atom_site_fract_x
 _atom_site_fract_y
 _atom_site_fract_z
 _atom_site_occupancy
  In  In0  1  0.70231000  0.77771000  0.38884000  1
  In  In1  1  0.18544000  0.74441000  0.45462000  1
  In  In2  1  0.30891000  0.20182000  0.89304000  1
  In  In3  1  0.84041000  0.24378000  0.94822000  1
  H  H4  1  0.56889000  0.03185000  0.66301000  1
  H  H5  1  0.32623000  0.45231000  0.65090000  1
  H  H6  1  0.51273000  0.25439000  0.44031000  1
  H  H7  1  0.92759000  0.99435000  0.18830000  1
  H  H8  1  0.17829000  0.57446000  0.20004000  1
  H  H9  1  0.00566000  0.74834000  0.97812000  1
  H  H10  1  0.44296000  0.98377000  0.15298000  1
  H  H11  1  0.66200000  0.55241000  0.15677000  1
  H  H12  1  0.46360000  0.73513000  0.94085000  1
  H  H13  1  0.08161000  0.00540000  0.68753000  1
  H  H14  1  0.84014000  0.42872000  0.69660000  1
  H  H15  1  0.99322000  0.24708000  0.47518000  1
  C  C16  1  0.55320000  0.13197000  0.54807000  1
  C  C17  1  0.53131000  0.12713000  0.62899000  1
  C  C18  1  0.45491000  0.24601000  0.66611000  1
  C  C19  1  0.39418000  0.36379000  0.62234000  1
  C  C20  1  0.41629000  0.36663000  0.54137000  1
  C  C21  1  0.49947000  0.25243000  0.50356000  1
  C  C22  1  0.59655000  0.00028000  0.50405000  1
  C  C23  1  0.41743000  0.23851000  0.75076000  1
  C  C24  1  0.34019000  0.48923000  0.49592000  1
  C  C25  1  0.96391000  0.88427000  0.07851000  1
  C  C26  1  0.97635000  0.89685000  0.15996000  1
  C  C27  1  0.05255000  0.78517000  0.20407000  1
  C  C28  1  0.11680000  0.66121000  0.16641000  1
  C  C29  1  0.09596000  0.64474000  0.08528000  1
  C  C30  1  0.01954000  0.75693000  0.04116000  1
  C  C31  1  0.89844000  0.01107000  0.03258000  1
  C  C32  1  0.05661000  0.79624000  0.29151000  1
  C  C33  1  0.15293000  0.50106000  0.05261000  1
  C  C34  1  0.44540000  0.87076000  0.04260000  1
  C  C35  1  0.47557000  0.88339000  0.12285000  1
  C  C36  1  0.54861000  0.76605000  0.16380000  1
  C  C37  1  0.60028000  0.64071000  0.12458000  1
  C  C38  1  0.56951000  0.62949000  0.04443000  1
  C  C39  1  0.48872000  0.74251000  0.00323000  1
  C  C40  1  0.37610000  0.99525000  0.99617000  1
  C  C41  1  0.58351000  0.77311000  0.24863000  1
  C  C42  1  0.62680000  0.49497000  0.00656000  1
  C  C43  1  0.03882000  0.11248000  0.57651000  1
  C  C44  1  0.03281000  0.10265000  0.65829000  1
  C  C45  1  0.96335000  0.21713000  0.70170000  1
  C  C46  1  0.89700000  0.34024000  0.66336000  1
  C  C47  1  0.91005000  0.35348000  0.58197000  1
  C  C48  1  0.98232000  0.23955000  0.53837000  1
  C  C49  1  0.10046000  0.98315000  0.53182000  1
  C  C50  1  0.96198000  0.20950000  0.78874000  1
  C  C51  1  0.85280000  0.49672000  0.54870000  1
  O  O52  1  0.49210000  0.89234000  0.52646000  1
  O  O53  1  0.70122000  0.99273000  0.44905000  1
  O  O54  1  0.46711000  0.12664000  0.78956000  1
  O  O55  1  0.32648000  0.33931000  0.78220000  1
  O  O56  1  0.37670000  0.51226000  0.42557000  1
  O  O57  1  0.23338000  0.56993000  0.53498000  1
  O  O58  1  0.88273000  0.13436000  0.06612000  1
  O  O59  1  0.86611000  0.99956000  0.95903000  1
  O  O60  1  0.93459000  0.86595000  0.32469000  1
  O  O61  1  0.18320000  0.73400000  0.32726000  1
  O  O62  1  0.22474000  0.40663000  0.09016000  1
  O  O63  1  0.10776000  0.48885000  0.97406000  1
  O  O64  1  0.90783000  0.65872000  0.44524000  1
  O  O65  1  0.48479000  0.76980000  0.47212000  1
  O  O66  1  0.37613000  0.12341000  0.02327000  1
  O  O67  1  0.32432000  0.96951000  0.92597000  1
  O  O68  1  0.55732000  0.88872000  0.28734000  1
  O  O69  1  0.64999000  0.65876000  0.28152000  1
  O  O70  1  0.51530000  0.44815000  0.95286000  1
  O  O71  1  0.76414000  0.43083000  0.02389000  1
  O  O72  1  0.10682000  0.86008000  0.56662000  1
  O  O73  1  0.14243000  0.99325000  0.45948000  1
  O  O74  1  0.06745000  0.12612000  0.82481000  1
  O  O75  1  0.84848000  0.28863000  0.82352000  1
  O  O76  1  0.78527000  0.59341000  0.58565000  1
  O  O77  1  0.89251000  0.50640000  0.46950000  1
  O  O78  1  0.10560000  0.33603000  0.94959000  1
  O  O79  1  0.56732000  0.31197000  0.91751000  1
