# generated using pymatgen
data_H25C46(N3O4)2
_symmetry_space_group_name_H-M   'P 1'
_cell_length_a   32.44270000
_cell_length_b   32.44270000
_cell_length_c   70.05220000
_cell_angle_alpha   89.99980000
_cell_angle_beta   89.99960000
_cell_angle_gamma   60.00000000
_symmetry_Int_Tables_number   1
_chemical_formula_structural   H25C46(N3O4)2
_chemical_formula_sum   'H150 C276 N36 O48'
_cell_volume   63853.74768638
_cell_formula_units_Z   6
loop_
 _symmetry_equiv_pos_site_id
 _symmetry_equiv_pos_as_xyz
  1  'x, y, z'
loop_
 _atom_site_type_symbol
 _atom_site_label
 _atom_site_symmetry_multiplicity
 _atom_site_fract_x
 _atom_site_fract_y
 _atom_site_fract_z
 _atom_site_occupancy
  H  73  1  0.14211400  0.41463700  0.13777200  1
  H  74  1  0.16209600  0.45783900  0.11577700  1
  H  75  1  0.11774100  0.34499800  0.09188600  1
  H  76  1  0.13639200  0.38943000  0.06987100  1
  H  77  1  0.07828100  0.49367200  0.07189400  1
  H  78  1  0.07639500  0.55119100  0.04997000  1
  H  79  1  0.22562800  0.43868100  0.08042300  1
  H  80  1  0.22390200  0.49582200  0.05804000  1
  H  81  1  0.14759600  0.59873500  0.07466500  1
  H  82  1  0.14422600  0.67852300  0.07466300  1
  H  83  1  0.14608400  0.63854400  0.01925600  1
  H  84  1  0.14614100  0.63851500  0.98577200  1
  H  85  1  0.14886000  0.47999700  0.02053200  1
  H  86  1  0.14384900  0.48252900  0.98443600  1
  H  87  1  0.06703100  0.57328900  0.94777900  1
  H  88  1  0.06510900  0.51884600  0.92499900  1
  H  89  1  0.21539600  0.48310700  0.95412800  1
  H  90  1  0.21349200  0.42863500  0.93165300  1
  H  91  1  0.14402000  0.60053300  0.93036200  1
  H  92  1  0.14803500  0.67661900  0.93036200  1
  H  93  1  0.14335800  0.79706600  0.02053100  1
  H  94  1  0.14842900  0.79450500  0.98443700  1
  H  95  1  0.22515900  0.70374000  0.94776600  1
  H  96  1  0.22710600  0.75815700  0.92498000  1
  H  97  1  0.07681500  0.79401400  0.95413900  1
  H  98  1  0.07874100  0.84846000  0.93165700  1
  H  99  1  0.12080000  0.90199100  0.93103500  1
  H  100  1  0.10336000  0.95962300  0.90653500  1
  H  101  1  0.16288500  0.84993800  0.86546600  1
  H  102  1  0.18037500  0.79214100  0.88992900  1
  H  103  1  0.06811600  0.78147300  0.05798000  1
  H  104  1  0.06640700  0.83862000  0.08035500  1
  H  105  1  0.15557200  0.88776200  0.06982200  1
  H  106  1  0.17414700  0.93231400  0.09181700  1
  H  107  1  0.14991600  0.86265100  0.13775200  1
  H  108  1  0.13002700  0.81930900  0.11575800  1
  H  109  1  0.21383300  0.78334300  0.07193200  1
  H  110  1  0.21570200  0.72581600  0.05001700  1
  H  111  1  0.17136900  0.37509900  0.93108200  1
  H  112  1  0.18877800  0.31738800  0.90659200  1
  H  113  1  0.11193100  0.48487500  0.88994500  1
  H  114  1  0.12938600  0.42705800  0.86548900  1
  H  187  1  0.42209000  0.86664200  0.47114900  1
  H  188  1  0.46530200  0.80345800  0.44913700  1
  H  189  1  0.35238000  0.96065400  0.42525000  1
  H  190  1  0.39681300  0.89757200  0.40324100  1
  H  191  1  0.50111200  0.85140200  0.40522200  1
  H  192  1  0.55854700  0.79574800  0.38328000  1
  H  193  1  0.44605100  0.75913000  0.41381700  1
  H  194  1  0.50310900  0.70368600  0.39141500  1
  H  195  1  0.60606600  0.67703000  0.40800700  1
  H  196  1  0.68586300  0.60062700  0.40800200  1
  H  197  1  0.64581200  0.63869400  0.35259600  1
  H  198  1  0.64580800  0.63871100  0.31911200  1
  H  199  1  0.48727100  0.79446900  0.35387900  1
  H  200  1  0.48978500  0.79695400  0.31778300  1
  H  201  1  0.58058800  0.78299200  0.28110200  1
  H  202  1  0.52615000  0.83934600  0.25831800  1
  H  203  1  0.49033700  0.72489900  0.28749400  1
  H  204  1  0.43587400  0.78125900  0.26501500  1
  H  205  1  0.60774800  0.67877000  0.26370400  1
  H  206  1  0.68383000  0.59866400  0.26370100  1
  H  207  1  0.80435900  0.48292500  0.35386500  1
  H  208  1  0.80177100  0.48040700  0.31777000  1
  H  209  1  0.71100200  0.49446200  0.28107900  1
  H  210  1  0.76544000  0.43812100  0.25829000  1
  H  211  1  0.80127600  0.55252300  0.28749600  1
  H  212  1  0.85574400  0.49616700  0.26501500  1
  H  213  1  0.90923700  0.40044600  0.26441200  1
  H  214  1  0.96694000  0.36020200  0.23992800  1
  H  215  1  0.85730900  0.41071500  0.19880500  1
  H  216  1  0.79950300  0.45101300  0.22324900  1
  H  217  1  0.78878500  0.57380000  0.39129700  1
  H  218  1  0.84595100  0.51837900  0.41367500  1
  H  219  1  0.89508600  0.37997700  0.40317500  1
  H  220  1  0.93954400  0.31690600  0.42518700  1
  H  221  1  0.87000900  0.41094700  0.47108700  1
  H  222  1  0.82675800  0.47413500  0.44908400  1
  H  223  1  0.79072800  0.42618200  0.40526500  1
  H  224  1  0.73318700  0.48181300  0.38335000  1
  H  225  1  0.38234000  0.87692600  0.26440700  1
  H  226  1  0.32468500  0.91715600  0.23990700  1
  H  227  1  0.49214600  0.82655100  0.22327200  1
  H  228  1  0.43437700  0.86685900  0.19882600  1
  H  301  1  0.87401800  0.13455800  0.80443600  1
  H  302  1  0.81081100  0.15451800  0.78243800  1
  H  303  1  0.96794100  0.11045200  0.75852400  1
  H  304  1  0.90479900  0.12911400  0.73651500  1
  H  305  1  0.85860900  0.07091100  0.73853800  1
  H  306  1  0.80290400  0.06917000  0.71661400  1
  H  307  1  0.76645900  0.21827500  0.74711300  1
  H  308  1  0.71096400  0.21670000  0.72472800  1
  H  309  1  0.68421500  0.14041800  0.74132600  1
  H  310  1  0.60785800  0.13693400  0.74131400  1
  H  311  1  0.64595300  0.13891100  0.68591100  1
  H  312  1  0.64611200  0.13863800  0.65242900  1
  H  313  1  0.80173600  0.14166000  0.68721200  1
  H  314  1  0.80429300  0.13655200  0.65111900  1
  H  315  1  0.79033400  0.05970700  0.61444300  1
  H  316  1  0.84671500  0.05774700  0.59166500  1
  H  317  1  0.73226800  0.20805300  0.62080900  1
  H  318  1  0.78865800  0.20611400  0.59833200  1
  H  319  1  0.68608700  0.13687800  0.59702500  1
  H  320  1  0.60600300  0.14085800  0.59701300  1
  H  321  1  0.49033100  0.13584600  0.68716300  1
  H  322  1  0.48785800  0.14088400  0.65106700  1
  H  323  1  0.50176800  0.21784100  0.61446000  1
  H  324  1  0.44537900  0.21985000  0.59167000  1
  H  325  1  0.55993500  0.06945600  0.62072400  1
  H  326  1  0.50354000  0.07144400  0.59823800  1
  H  327  1  0.40791500  0.11357300  0.59769000  1
  H  328  1  0.36764300  0.09618200  0.57321100  1
  H  329  1  0.41779300  0.15569500  0.53211000  1
  H  330  1  0.45817200  0.17314300  0.55658100  1
  H  331  1  0.58116500  0.06078500  0.72466100  1
  H  332  1  0.52572600  0.05904500  0.74703000  1
  H  333  1  0.38717700  0.14834100  0.73648500  1
  H  334  1  0.32412600  0.16694500  0.75851600  1
  H  335  1  0.41823700  0.14243000  0.80438000  1
  H  336  1  0.48138100  0.12249600  0.78237100  1
  H  337  1  0.43337900  0.20639500  0.73850900  1
  H  338  1  0.48902800  0.20830200  0.71660400  1
  H  339  1  0.88421100  0.16406500  0.59773900  1
  H  340  1  0.92441800  0.18152600  0.57326000  1
  H  341  1  0.83401900  0.10448400  0.55660100  1
  H  342  1  0.87433300  0.12200000  0.53216200  1
  H  349  1  0.12830400  0.31616300  0.86408000  1
  H  356  1  0.35366300  0.12693100  0.81832800  1
  H  357  1  0.28787500  0.24020400  0.77930200  1
  H  358  1  0.24361800  0.33988600  0.87089500  1
  H  377  1  0.32346500  0.97891700  0.19742000  1
  H  384  1  0.13423400  0.94275700  0.15164600  1
  H  385  1  0.24747000  0.89544900  0.11262200  1
  H  386  1  0.34714800  0.83987600  0.20415900  1
  H  405  1  0.98624200  0.12097500  0.53073000  1
  H  412  1  0.95011000  0.34636400  0.48501000  1
  H  413  1  0.90259200  0.28062400  0.44597500  1
  H  414  1  0.84721700  0.23629400  0.53756500  1
  H  433  1  0.16388200  0.96095300  0.86408700  1
  H  440  1  0.93842900  0.15023000  0.81836700  1
  H  441  1  0.00438100  0.03707300  0.77930900  1
  H  442  1  0.04859600  0.93714900  0.87081000  1
  H  461  1  0.96821800  0.29861000  0.19740400  1
  H  468  1  0.15760700  0.33455900  0.15172600  1
  H  469  1  0.04445000  0.38205300  0.11264200  1
  H  470  1  0.94449600  0.43765200  0.20419500  1
  H  489  1  0.30578500  0.15668200  0.53075000  1
  H  496  1  0.34206100  0.93113400  0.48509400  1
  H  497  1  0.38929600  0.99703700  0.44602500  1
  H  498  1  0.44488900  0.04145700  0.53752100  1
  C  1  1  0.14701300  0.61681500  0.06262600  1
  C  2  1  0.14489800  0.66039900  0.06262600  1
  C  3  1  0.14429700  0.67416900  0.04368100  1
  C  5  1  0.14768900  0.60300900  0.04368200  1
  C  6  1  0.14912700  0.56038100  0.03775200  1
  C  7  1  0.14771800  0.54753000  0.01847800  1
  C  9  1  0.14419800  0.54930400  0.98654300  1
  C  10  1  0.14475600  0.50805400  0.99267500  1
  C  11  1  0.14762900  0.50661200  0.01231400  1
  C  12  1  0.14254600  0.56370500  0.96728100  1
  C  13  1  0.14414500  0.60480000  0.96134500  1
  C  15  1  0.14801700  0.67229400  0.96134500  1
  C  16  1  0.14728800  0.65920000  0.94239700  1
  C  17  1  0.14481000  0.61792800  0.94239800  1
  C  18  1  0.14963300  0.71338100  0.96728000  1
  C  19  1  0.14801700  0.72776100  0.98654300  1
  C  21  1  0.14440800  0.72957900  0.01847600  1
  C  22  1  0.14457500  0.77045800  0.01231400  1
  C  23  1  0.14752500  0.76897900  0.99267600  1
  C  24  1  0.14293100  0.71676100  0.03774900  1
  C  25  1  0.14212600  0.74823400  0.05210100  1
  C  26  1  0.18417800  0.74908400  0.05647700  1
  C  27  1  0.18292500  0.78314500  0.06919000  1
  C  28  1  0.13979400  0.81660200  0.07799400  1
  C  29  1  0.09804500  0.81469500  0.07416200  1
  C  30  1  0.09907400  0.78119000  0.06110200  1
  C  31  1  0.13977300  0.85037900  0.09076500  1
  C  32  1  0.13648400  0.84508500  0.11060500  1
  C  33  1  0.14813300  0.87083200  0.12355400  1
  C  34  1  0.16298200  0.90268300  0.11701300  1
  C  35  1  0.16277600  0.91028600  0.09710900  1
  C  36  1  0.15166400  0.88422900  0.08413300  1
  C  37  1  0.15077500  0.74383900  0.95292500  1
  C  38  1  0.19412000  0.73395900  0.94427800  1
  C  39  1  0.19524800  0.76590800  0.93096700  1
  C  40  1  0.15330600  0.80886300  0.92642700  1
  C  41  1  0.10994800  0.81821800  0.93497500  1
  C  42  1  0.10861000  0.78602900  0.94800500  1
  C  43  1  0.15337100  0.84141300  0.91290400  1
  C  44  1  0.16716300  0.82693500  0.89381600  1
  C  45  1  0.15703000  0.86091000  0.87940500  1
  C  46  1  0.13380600  0.90991400  0.88386900  1
  C  47  1  0.12258000  0.92423800  0.90308900  1
  C  48  1  0.13244300  0.89030100  0.91745400  1
  C  49  1  0.14141800  0.53324100  0.95292500  1
  C  50  1  0.09807400  0.54307800  0.94429100  1
  C  51  1  0.09696400  0.51113100  0.93097600  1
  C  52  1  0.13892000  0.46818400  0.92643700  1
  C  53  1  0.18227500  0.45885500  0.93497900  1
  C  54  1  0.18360200  0.49106900  0.94800000  1
  C  55  1  0.13887400  0.43561100  0.91291600  1
  C  56  1  0.15982000  0.38673200  0.91748700  1
  C  57  1  0.16959000  0.35277300  0.90314400  1
  C  58  1  0.15838200  0.36711100  0.88393100  1
  C  59  1  0.13525100  0.41609000  0.87943000  1
  C  60  1  0.12497600  0.45011100  0.89383600  1
  C  61  1  0.14992800  0.52890700  0.05210300  1
  C  62  1  0.10790400  0.52797900  0.05645000  1
  C  63  1  0.19296200  0.49604500  0.06114000  1
  C  64  1  0.19400800  0.46252300  0.07419600  1
  C  65  1  0.15229100  0.46053500  0.07800400  1
  C  66  1  0.10917100  0.49392100  0.06916900  1
  C  67  1  0.15233300  0.42676900  0.09078500  1
  C  68  1  0.14034600  0.39297100  0.08417700  1
  C  69  1  0.12931900  0.36686900  0.09716200  1
  C  70  1  0.12906600  0.37453500  0.11706300  1
  C  71  1  0.14401100  0.40633600  0.12358200  1
  C  72  1  0.15575300  0.43199200  0.11062200  1
  C  115  1  0.62412900  0.65952500  0.39596800  1
  C  116  1  0.66771800  0.61806200  0.39596500  1
  C  117  1  0.68147100  0.60488500  0.37701800  1
  C  119  1  0.61029500  0.67263100  0.37702300  1
  C  120  1  0.56767300  0.71383300  0.37109600  1
  C  121  1  0.55483200  0.72810800  0.35182200  1
  C  123  1  0.55660500  0.72987500  0.31988700  1
  C  124  1  0.51538600  0.77059700  0.32602300  1
  C  125  1  0.51392300  0.76913100  0.34566200  1
  C  126  1  0.57097000  0.71710200  0.30062500  1
  C  127  1  0.61206100  0.67440300  0.29468800  1
  C  129  1  0.67955800  0.60303700  0.29468300  1
  C  130  1  0.66644400  0.61685300  0.27573700  1
  C  131  1  0.62516700  0.66059700  0.27573900  1
  C  132  1  0.72063300  0.56032500  0.30061700  1
  C  133  1  0.73503800  0.54757100  0.31987900  1
  C  135  1  0.73686800  0.54935900  0.35181200  1
  C  136  1  0.77774300  0.50831300  0.34564800  1
  C  137  1  0.77625900  0.50684500  0.32601000  1
  C  138  1  0.72406500  0.56366400  0.37108600  1
  C  139  1  0.75555800  0.53300800  0.38543600  1
  C  140  1  0.75640600  0.49011500  0.38982400  1
  C  141  1  0.79051000  0.45729700  0.40252100  1
  C  142  1  0.82397000  0.46698500  0.41131600  1
  C  143  1  0.82205100  0.51064200  0.40747600  1
  C  144  1  0.78849700  0.54313300  0.39443200  1
  C  145  1  0.85775000  0.43324700  0.42409200  1
  C  146  1  0.85245900  0.44186900  0.44392800  1
  C  147  1  0.87820000  0.40450600  0.45689100  1
  C  148  1  0.91002600  0.35777000  0.45037300  1
  C  149  1  0.91767000  0.35034700  0.43047100  1
  C  150  1  0.89154200  0.38746600  0.41748200  1
  C  151  1  0.75110200  0.52873600  0.28626100  1
  C  152  1  0.74123400  0.49527300  0.27760600  1
  C  153  1  0.77319900  0.46219900  0.26429900  1
  C  154  1  0.81615600  0.46119300  0.25976900  1
  C  155  1  0.82550800  0.49518500  0.26833000  1
  C  156  1  0.79329100  0.52872400  0.28135000  1
  C  157  1  0.84872300  0.42859500  0.24624500  1
  C  158  1  0.83424900  0.42926400  0.22715500  1
  C  159  1  0.86827900  0.40556600  0.21274600  1
  C  160  1  0.91726700  0.37966000  0.21724000  1
  C  161  1  0.93156400  0.37649700  0.23645800  1
  C  162  1  0.89760500  0.40065200  0.25080500  1
  C  163  1  0.54050400  0.74869900  0.28627000  1
  C  164  1  0.55037400  0.78216400  0.27761700  1
  C  165  1  0.51841900  0.81522400  0.26430300  1
  C  166  1  0.47545300  0.81624600  0.25977800  1
  C  167  1  0.46611300  0.78223600  0.26832900  1
  C  168  1  0.49832700  0.74869500  0.28135000  1
  C  169  1  0.44288600  0.84884800  0.24625200  1
  C  170  1  0.39400400  0.87676300  0.25081000  1
  C  171  1  0.36007100  0.90089300  0.23645200  1
  C  172  1  0.37437900  0.89783600  0.21723500  1
  C  173  1  0.42338900  0.87209200  0.21276400  1
  C  174  1  0.45737900  0.84822000  0.22717100  1
  C  175  1  0.53623500  0.74452600  0.38545000  1
  C  176  1  0.53537000  0.78744900  0.38979400  1
  C  177  1  0.50336500  0.73439100  0.39450600  1
  C  178  1  0.46987300  0.76689700  0.40756200  1
  C  179  1  0.46794800  0.81057200  0.41136500  1
  C  180  1  0.50132900  0.82027600  0.40250900  1
  C  181  1  0.43423100  0.84431600  0.42415700  1
  C  182  1  0.40041200  0.89009400  0.41754900  1
  C  183  1  0.37433700  0.92723300  0.43053500  1
  C  184  1  0.38201400  0.91981200  0.45043600  1
  C  185  1  0.41383600  0.87308400  0.45695700  1
  C  186  1  0.43953700  0.83571100  0.44399500  1
  C  229  1  0.66674300  0.13980200  0.72928600  1
  C  230  1  0.62529900  0.13764300  0.72927900  1
  C  231  1  0.61214400  0.13703800  0.71033200  1
  C  233  1  0.67986000  0.14052900  0.71034300  1
  C  234  1  0.72103200  0.14200500  0.70441900  1
  C  235  1  0.73533500  0.14054300  0.68514600  1
  C  237  1  0.73717500  0.13688600  0.65321400  1
  C  238  1  0.77788900  0.13739000  0.65935400  1
  C  239  1  0.77635100  0.14044400  0.67898900  1
  C  240  1  0.72444200  0.13523200  0.63395000  1
  C  241  1  0.68174100  0.13685600  0.62800800  1
  C  243  1  0.61038000  0.14071400  0.62799800  1
  C  244  1  0.62415400  0.14012100  0.60905200  1
  C  245  1  0.66790700  0.13763900  0.60905900  1
  C  246  1  0.56771200  0.14224800  0.63392500  1
  C  247  1  0.55494900  0.14060000  0.65318400  1
  C  249  1  0.55668900  0.13705300  0.68511900  1
  C  250  1  0.51568300  0.13714800  0.67895100  1
  C  251  1  0.51425300  0.14004000  0.65931100  1
  C  252  1  0.57096100  0.13559600  0.70439500  1
  C  253  1  0.54029400  0.13477100  0.71874300  1
  C  254  1  0.49735300  0.17679700  0.72309800  1
  C  255  1  0.46452600  0.17551000  0.73579000  1
  C  256  1  0.47424600  0.13238300  0.74461300  1
  C  257  1  0.51794600  0.09066500  0.74080200  1
  C  258  1  0.55044500  0.09172700  0.72776500  1
  C  259  1  0.44050100  0.13234000  0.75738200  1
  C  260  1  0.44917100  0.12888800  0.77722000  1
  C  261  1  0.41178100  0.14065900  0.79018800  1
  C  262  1  0.36502400  0.15560800  0.78368600  1
  C  263  1  0.35757100  0.15544200  0.76378300  1
  C  264  1  0.39469100  0.14437600  0.75079000  1
  C  265  1  0.53610000  0.14343400  0.61956500  1
  C  266  1  0.50260000  0.18680900  0.61095000  1
  C  267  1  0.46952500  0.18797100  0.59763000  1
  C  268  1  0.46852100  0.14603700  0.59306600  1
  C  269  1  0.50255800  0.10264700  0.60158300  1
  C  270  1  0.53610700  0.10127000  0.61461200  1
  C  271  1  0.43588700  0.14613900  0.57953900  1
  C  272  1  0.43650700  0.16002300  0.56045900  1
  C  273  1  0.41266000  0.14988500  0.54605400  1
  C  274  1  0.38686300  0.12670300  0.55054800  1
  C  275  1  0.38368800  0.11551000  0.56976200  1
  C  276  1  0.40791200  0.12523700  0.58410900  1
  C  277  1  0.75605200  0.13409100  0.61959800  1
  C  278  1  0.78951900  0.09074300  0.61095500  1
  C  279  1  0.82260600  0.08960600  0.59764900  1
  C  280  1  0.82363000  0.13154400  0.59310900  1
  C  281  1  0.78962100  0.17490700  0.60165100  1
  C  282  1  0.75608000  0.17625500  0.61467700  1
  C  283  1  0.85626700  0.13146100  0.57959100  1
  C  284  1  0.88421700  0.15238900  0.58415900  1
  C  285  1  0.90837500  0.16219500  0.56981100  1
  C  286  1  0.90523100  0.15105600  0.55058500  1
  C  287  1  0.87946700  0.12781500  0.54610600  1
  C  288  1  0.85567400  0.11759400  0.56050800  1
  C  289  1  0.75173300  0.14272500  0.71877600  1
  C  290  1  0.79464000  0.10064700  0.72311700  1
  C  291  1  0.74165000  0.18572300  0.72782200  1
  C  292  1  0.77415700  0.18667800  0.74088800  1
  C  293  1  0.81782900  0.14490900  0.74467900  1
  C  294  1  0.82748700  0.10182900  0.73583000  1
  C  295  1  0.85162100  0.14485600  0.75745000  1
  C  296  1  0.89736400  0.13297600  0.75082600  1
  C  297  1  0.93453600  0.12180700  0.76380600  1
  C  298  1  0.92714000  0.12156200  0.78370700  1
  C  299  1  0.88043500  0.13640100  0.79024500  1
  C  300  1  0.84304300  0.14807400  0.77729000  1
  C  343  1  0.18201900  0.33336400  0.86933700  1
  C  344  1  0.22815000  0.32304400  0.86411000  1
  C  345  1  0.25365600  0.28997900  0.84955100  1
  C  346  1  0.23210500  0.26702300  0.83992400  1
  C  347  1  0.18620500  0.27599300  0.84541100  1
  C  348  1  0.16152200  0.30933200  0.86013600  1
  C  350  1  0.25756800  0.23539400  0.82472800  1
  C  351  1  0.29319200  0.18796100  0.82903500  1
  C  352  1  0.32670200  0.16025000  0.81483200  1
  C  353  1  0.32580100  0.17885000  0.79651800  1
  C  354  1  0.28843300  0.22521700  0.79224500  1
  C  355  1  0.25460700  0.25388500  0.80603500  1
  C  371  1  0.34065600  0.90798700  0.20263600  1
  C  372  1  0.33031300  0.87220600  0.19739000  1
  C  373  1  0.29723000  0.87982500  0.18283000  1
  C  374  1  0.27428100  0.92435700  0.17322400  1
  C  375  1  0.28327100  0.96126200  0.17873300  1
  C  376  1  0.31662400  0.95255000  0.19345900  1
  C  378  1  0.24259300  0.93060300  0.15804000  1
  C  379  1  0.19518800  0.94234600  0.16234900  1
  C  380  1  0.16750200  0.93653300  0.14814300  1
  C  381  1  0.18610600  0.91885000  0.12982300  1
  C  382  1  0.23242200  0.91000300  0.12554200  1
  C  383  1  0.26108400  0.91514600  0.13934100  1
  C  399  1  0.91533100  0.17469400  0.53599600  1
  C  400  1  0.87952300  0.22082600  0.53077700  1
  C  401  1  0.88707700  0.24634000  0.51621800  1
  C  402  1  0.93157700  0.22479300  0.50658800  1
  C  403  1  0.96850700  0.17888600  0.51206700  1
  C  404  1  0.95985700  0.15419300  0.52679000  1
  C  406  1  0.93774100  0.25026300  0.49139400  1
  C  407  1  0.94955800  0.28588000  0.49570600  1
  C  408  1  0.94375200  0.31940400  0.48151000  1
  C  409  1  0.92604000  0.31852200  0.46319500  1
  C  410  1  0.91703400  0.28116400  0.45891600  1
  C  411  1  0.92219900  0.24732300  0.47270200  1
  C  427  1  0.11018000  0.94370100  0.86929400  1
  C  428  1  0.06406400  0.95402600  0.86405000  1
  C  429  1  0.03855900  0.98715000  0.84950800  1
  C  430  1  0.06010300  0.01015200  0.83991400  1
  C  431  1  0.10599500  0.00117800  0.84542000  1
  C  432  1  0.13067400  0.96778600  0.86013000  1
  C  434  1  0.03463700  0.04186300  0.82473800  1
  C  435  1  0.99896800  0.08925700  0.82906000  1
  C  436  1  0.96547100  0.11697000  0.81485700  1
  C  437  1  0.96640000  0.09840000  0.79652900  1
  C  438  1  0.00387500  0.05209400  0.79223800  1
  C  439  1  0.03768000  0.02340400  0.80603200  1
  C  455  1  0.95100000  0.36954100  0.20264200  1
  C  456  1  0.96133900  0.40533600  0.19741600  1
  C  457  1  0.99443700  0.39774800  0.18286500  1
  C  458  1  0.01741000  0.35322600  0.17325100  1
  C  459  1  0.00842300  0.31630800  0.17874000  1
  C  460  1  0.97505300  0.32498900  0.19345700  1
  C  462  1  0.04909000  0.34702200  0.15807100  1
  C  463  1  0.09652000  0.33518800  0.16240200  1
  C  464  1  0.12428900  0.34094000  0.14821400  1
  C  465  1  0.10575300  0.35862000  0.12988900  1
  C  466  1  0.05939100  0.36764200  0.12559400  1
  C  467  1  0.03066500  0.36252900  0.13936900  1
  C  483  1  0.37674100  0.10302000  0.53597800  1
  C  484  1  0.41255400  0.05689400  0.53075400  1
  C  485  1  0.40497300  0.03134100  0.51622100  1
  C  486  1  0.36043700  0.05284900  0.50661700  1
  C  487  1  0.32349900  0.09874500  0.51210400  1
  C  488  1  0.33217700  0.12346800  0.52680600  1
  C  490  1  0.35423000  0.02734100  0.49144700  1
  C  491  1  0.34250200  0.99167900  0.49577600  1
  C  492  1  0.34828600  0.95817000  0.48157800  1
  C  493  1  0.36591900  0.95908700  0.46324900  1
  C  494  1  0.37477400  0.99654300  0.45895200  1
  C  495  1  0.36965900  0.03036000  0.47274200  1
  N  4  1  0.14603100  0.63857000  0.03295600  1
  N  8  1  0.14585700  0.57176700  0.00251400  1
  N  14  1  0.14609800  0.63853800  0.97207100  1
  N  20  1  0.14627300  0.70534000  0.00251300  1
  N  118  1  0.64585500  0.63873400  0.36629600  1
  N  122  1  0.57906700  0.70574100  0.33585700  1
  N  128  1  0.64581400  0.63872100  0.30541100  1
  N  134  1  0.71262100  0.57173100  0.33585000  1
  N  232  1  0.64598700  0.13882700  0.69961300  1
  N  236  1  0.71299700  0.13863100  0.66918000  1
  N  242  1  0.64606500  0.13876000  0.63872800  1
  N  248  1  0.57906500  0.13893200  0.66916000  1
  N  359  1  0.22130700  0.30064300  0.79999100  1
  N  360  1  0.29618500  0.17001100  0.84774400  1
  N  361  1  0.30015700  0.27986600  0.84447900  1
  N  362  1  0.16626000  0.25113600  0.83621400  1
  N  387  1  0.30785500  0.90165600  0.13329900  1
  N  388  1  0.17726000  0.95722800  0.18106500  1
  N  389  1  0.28709000  0.84346400  0.17773900  1
  N  390  1  0.25840700  0.00609800  0.16956200  1
  N  415  1  0.90873200  0.21403500  0.46665200  1
  N  416  1  0.96452700  0.28885400  0.51441500  1
  N  417  1  0.85068900  0.29284600  0.51115300  1
  N  418  1  0.01330500  0.15894000  0.50286700  1
  N  443  1  0.07096600  0.97664900  0.79997900  1
  N  444  1  0.99591700  0.10715000  0.84778200  1
  N  445  1  0.99205700  0.99727800  0.84442200  1
  N  446  1  0.12593000  0.02609100  0.83626100  1
  N  471  1  0.98392000  0.37599900  0.13330100  1
  N  472  1  0.11440500  0.32025100  0.18111900  1
  N  473  1  0.00457900  0.43412000  0.17779600  1
  N  474  1  0.03329400  0.27149100  0.16955500  1
  N  499  1  0.38313800  0.06363500  0.46668200  1
  N  500  1  0.32765300  0.98864800  0.51450100  1
  N  501  1  0.44136200  0.98483400  0.51115500  1
  N  502  1  0.27866400  0.11864200  0.50293500  1
  O  363  1  0.22546000  0.33225100  0.80863800  1
  O  364  1  0.15982800  0.22537200  0.84782400  1
  O  365  1  0.32854100  0.26227700  0.85825000  1
  O  366  1  0.29124400  0.13400100  0.84765400  1
  O  367  1  0.17921600  0.30917100  0.80139700  1
  O  368  1  0.12713000  0.27910200  0.82845100  1
  O  369  1  0.30059800  0.31639500  0.83881600  1
  O  370  1  0.33514000  0.15923600  0.85558200  1
  O  391  1  0.33944700  0.86584200  0.14192700  1
  O  392  1  0.23265900  0.03825300  0.18119100  1
  O  393  1  0.26950800  0.83263900  0.19150300  1
  O  394  1  0.14121300  0.99815300  0.18099400  1
  O  395  1  0.31643300  0.93518400  0.13473000  1
  O  396  1  0.28636400  0.01728800  0.16181000  1
  O  397  1  0.32360400  0.80650100  0.17205900  1
  O  398  1  0.16654400  0.92898500  0.18888900  1
  O  419  1  0.87297400  0.21818600  0.47530300  1
  O  420  1  0.04550800  0.15249900  0.51447400  1
  O  421  1  0.83990500  0.32122000  0.52492700  1
  O  422  1  0.00548100  0.28391000  0.51432200  1
  O  423  1  0.94229400  0.17193900  0.46805100  1
  O  424  1  0.02445900  0.11981800  0.49509800  1
  O  425  1  0.81371400  0.29329800  0.50549000  1
  O  426  1  0.93635300  0.32780300  0.52226100  1
  O  447  1  0.06675200  0.94503500  0.80859300  1
  O  448  1  0.13233300  0.05181700  0.84790100  1
  O  449  1  0.96367000  0.01481000  0.85819600  1
  O  450  1  0.00079200  0.14319900  0.84772600  1
  O  451  1  0.11306800  0.96807600  0.80141400  1
  O  452  1  0.16507500  0.99816800  0.82849500  1
  O  453  1  0.99161900  0.96077200  0.83872700  1
  O  454  1  0.95695900  0.11784700  0.85560200  1
  O  475  1  0.95229600  0.41178200  0.14193200  1
  O  476  1  0.05903100  0.23931200  0.18117700  1
  O  477  1  0.02214700  0.44492100  0.19157300  1
  O  478  1  0.15039900  0.27928700  0.18104700  1
  O  479  1  0.97536700  0.34244900  0.13470500  1
  O  480  1  0.00534100  0.26032100  0.16178500  1
  O  481  1  0.96806900  0.47109000  0.17212000  1
  O  482  1  0.12518600  0.34842200  0.18896400  1
  O  503  1  0.41896100  0.05942700  0.47529600  1
  O  504  1  0.24652500  0.12505500  0.51457100  1
  O  505  1  0.45220300  0.95648100  0.52494000  1
  O  506  1  0.28672900  0.99352200  0.51444700  1
  O  507  1  0.34961000  0.10574300  0.46810800  1
  O  508  1  0.26743900  0.15776900  0.49515500  1
  O  509  1  0.47830700  0.98439800  0.50546200  1
  O  510  1  0.35590900  0.94969700  0.52232500  1
