# generated using pymatgen
data_H9C13(N2O)2
_symmetry_space_group_name_H-M   'P 1'
_cell_length_a   25.88540000
_cell_length_b   25.88540000
_cell_length_c   26.79380000
_cell_angle_alpha   89.99980000
_cell_angle_beta   89.99960000
_cell_angle_gamma   60.00000000
_symmetry_Int_Tables_number   1
_chemical_formula_structural   H9C13(N2O)2
_chemical_formula_sum   'H108 C156 N48 O24'
_cell_volume   15548.00615150
_cell_formula_units_Z   12
loop_
 _symmetry_equiv_pos_site_id
 _symmetry_equiv_pos_as_xyz
  1  'x, y, z'
loop_
 _atom_site_type_symbol
 _atom_site_label
 _atom_site_symmetry_multiplicity
 _atom_site_fract_x
 _atom_site_fract_y
 _atom_site_fract_z
 _atom_site_occupancy
  C  1  1  0.98521600  0.46100600  0.99886700  1
  C  2  1  0.01981800  0.46180350  0.03989500  1
  C  3  1  0.08274200  0.43290400  0.03742000  1
  C  4  1  0.11222800  0.39700450  0.99574300  1
  C  5  1  0.07972000  0.39189000  0.95568100  1
  C  6  1  0.01649700  0.42637500  0.95610800  1
  C  9  1  0.92150700  0.49465300  0.00066900  1
  C  10  1  0.88857500  0.49375650  0.04321600  1
  C  11  1  0.82521700  0.52509250  0.04278400  1
  C  12  1  0.79464500  0.56325300  0.00243800  1
  C  13  1  0.82586500  0.56658200  0.96069700  1
  C  14  1  0.88855600  0.53006000  0.95905500  1
  C  27  1  0.43337800  0.46922800  0.33224600  1
  C  28  1  0.43403800  0.43399700  0.37336000  1
  C  29  1  0.40523000  0.39988200  0.37085200  1
  C  30  1  0.36937000  0.40624150  0.32916300  1
  C  31  1  0.36432000  0.44378400  0.28905700  1
  C  32  1  0.39880800  0.47251750  0.28946000  1
  C  35  1  0.46704000  0.49927800  0.33403700  1
  C  36  1  0.46610700  0.53315450  0.37656600  1
  C  37  1  0.49745400  0.56516550  0.37612900  1
  C  38  1  0.53564700  0.55754000  0.33580200  1
  C  39  1  0.53900200  0.52296000  0.29407300  1
  C  40  1  0.50248600  0.49678100  0.29243800  1
  C  53  1  0.44159200  0.01283900  0.66554500  1
  C  54  1  0.40633000  0.04738600  0.70665300  1
  C  55  1  0.37211600  0.11030500  0.70411700  1
  C  56  1  0.37846400  0.13983800  0.66244700  1
  C  57  1  0.41606800  0.10737700  0.62236100  1
  C  58  1  0.44486200  0.04415700  0.62277900  1
  C  61  1  0.47168100  0.94912700  0.66732800  1
  C  62  1  0.50558300  0.91618100  0.70984500  1
  C  63  1  0.53767400  0.85282700  0.70937200  1
  C  64  1  0.53002800  0.82225100  0.66906200  1
  C  65  1  0.49540400  0.85347150  0.62735200  1
  C  66  1  0.46913400  0.91617200  0.62575300  1
  C  79  1  0.21001300  0.23686200  0.77616900  1
  C  80  1  0.25936800  0.19281050  0.80427100  1
  C  81  1  0.25433500  0.19976600  0.85678200  1
  C  83  1  0.15962300  0.28811800  0.85081400  1
  C  86  1  0.20418800  0.23665300  0.72121600  1
  C  90  1  0.10947800  0.33600000  0.87315400  1
  C  92  1  0.31090400  0.14339100  0.78385700  1
  C  94  1  0.20948200  0.46824050  0.10944100  1
  C  95  1  0.16533400  0.46309850  0.13754400  1
  C  96  1  0.17220200  0.46133400  0.19006400  1
  C  98  1  0.26067800  0.46746100  0.18409200  1
  C  101  1  0.20946500  0.47395150  0.05446500  1
  C  105  1  0.30862800  0.46959700  0.20642200  1
  C  107  1  0.11590800  0.46098950  0.11712500  1
  C  109  1  0.44078200  0.23774050  0.44282300  1
  C  110  1  0.43543800  0.28711050  0.47093400  1
  C  111  1  0.43348000  0.28207200  0.52344600  1
  C  113  1  0.43976500  0.18739900  0.51744900  1
  C  116  1  0.44675600  0.23195350  0.38786700  1
  C  120  1  0.44192400  0.13729500  0.53976400  1
  C  122  1  0.43344400  0.33859800  0.45053000  1
  C  124  1  0.69818300  0.72188400  0.78089100  1
  C  125  1  0.65010400  0.76721600  0.80925800  1
  C  126  1  0.65554500  0.76033900  0.86174600  1
  C  128  1  0.74821900  0.66970300  0.85538400  1
  C  131  1  0.70335400  0.72197600  0.72585300  1
  C  135  1  0.79730500  0.62095750  0.87804000  1
  C  137  1  0.59953200  0.81801500  0.78928400  1
  C  139  1  0.69423900  0.49551300  0.11429300  1
  C  140  1  0.73960100  0.49819400  0.14266800  1
  C  141  1  0.73279000  0.49948600  0.19515800  1
  C  143  1  0.64214700  0.49746250  0.18878400  1
  C  146  1  0.69426200  0.49040950  0.05924300  1
  C  150  1  0.59341100  0.49709950  0.21144200  1
  C  152  1  0.79033000  0.49811400  0.12269700  1
  C  154  1  0.46780600  0.72574350  0.44757400  1
  C  155  1  0.47053200  0.67768250  0.47595800  1
  C  156  1  0.47199400  0.68312550  0.52844400  1
  C  158  1  0.46991600  0.77581400  0.52206200  1
  C  161  1  0.46246200  0.73093550  0.39254300  1
  C  165  1  0.46954000  0.82492150  0.54472000  1
  C  167  1  0.47033000  0.62709550  0.45599400  1
  C  673  1  0.98521600  0.46100600  0.58832400  1
  C  674  1  0.01981800  0.46180350  0.62935200  1
  C  675  1  0.08274200  0.43290400  0.62687700  1
  C  676  1  0.11222800  0.39700450  0.58520000  1
  C  677  1  0.07972000  0.39189000  0.54513800  1
  C  678  1  0.01649700  0.42637500  0.54556500  1
  C  681  1  0.92150700  0.49465300  0.59012600  1
  C  682  1  0.88857500  0.49375650  0.63267300  1
  C  683  1  0.82521700  0.52509250  0.63224100  1
  C  684  1  0.79464500  0.56325300  0.59189500  1
  C  685  1  0.82586500  0.56658200  0.55015400  1
  C  686  1  0.88855600  0.53006000  0.54851200  1
  C  699  1  0.43337800  0.46922800  0.92170330  1
  C  700  1  0.43403800  0.43399700  0.96281730  1
  C  701  1  0.40523000  0.39988200  0.96030930  1
  C  702  1  0.36937000  0.40624150  0.91862030  1
  C  703  1  0.36432000  0.44378400  0.87851400  1
  C  704  1  0.39880800  0.47251750  0.87891700  1
  C  707  1  0.46704000  0.49927800  0.92349430  1
  C  708  1  0.46610700  0.53315450  0.96602330  1
  C  709  1  0.49745400  0.56516550  0.96558630  1
  C  710  1  0.53564700  0.55754000  0.92525930  1
  C  711  1  0.53900200  0.52296000  0.88353000  1
  C  712  1  0.50248600  0.49678100  0.88189500  1
  C  725  1  0.44159200  0.01283900  0.25500200  1
  C  726  1  0.40633000  0.04738600  0.29611000  1
  C  727  1  0.37211600  0.11030500  0.29357400  1
  C  728  1  0.37846400  0.13983800  0.25190400  1
  C  729  1  0.41606800  0.10737700  0.21181800  1
  C  730  1  0.44486200  0.04415700  0.21223600  1
  C  733  1  0.47168100  0.94912700  0.25678500  1
  C  734  1  0.50558300  0.91618100  0.29930200  1
  C  735  1  0.53767400  0.85282700  0.29882900  1
  C  736  1  0.53002800  0.82225100  0.25851900  1
  C  737  1  0.49540400  0.85347150  0.21680900  1
  C  738  1  0.46913400  0.91617200  0.21521000  1
  C  751  1  0.21001300  0.23686200  0.36562600  1
  C  752  1  0.25936800  0.19281050  0.39372800  1
  C  753  1  0.25433500  0.19976600  0.44623900  1
  C  755  1  0.15962300  0.28811800  0.44027100  1
  C  758  1  0.20418800  0.23665300  0.31067300  1
  C  762  1  0.10947800  0.33600000  0.46261100  1
  C  764  1  0.31090400  0.14339100  0.37331400  1
  C  766  1  0.20948200  0.46824050  0.69889800  1
  C  767  1  0.16533400  0.46309850  0.72700100  1
  C  768  1  0.17220200  0.46133400  0.77952100  1
  C  770  1  0.26067800  0.46746100  0.77354900  1
  C  773  1  0.20946500  0.47395150  0.64392200  1
  C  777  1  0.30862800  0.46959700  0.79587900  1
  C  779  1  0.11590800  0.46098950  0.70658200  1
  C  781  1  0.44078200  0.23774050  0.03228000  1
  C  782  1  0.43543800  0.28711050  0.06039100  1
  C  783  1  0.43348000  0.28207200  0.11290300  1
  C  785  1  0.43976500  0.18739900  0.10690600  1
  C  788  1  0.44675600  0.23195350  0.97732430  1
  C  792  1  0.44192400  0.13729500  0.12922100  1
  C  794  1  0.43344400  0.33859800  0.03998700  1
  C  796  1  0.69818300  0.72188400  0.37034800  1
  C  797  1  0.65010400  0.76721600  0.39871500  1
  C  798  1  0.65554500  0.76033900  0.45120300  1
  C  800  1  0.74821900  0.66970300  0.44484100  1
  C  803  1  0.70335400  0.72197600  0.31531000  1
  C  807  1  0.79730500  0.62095750  0.46749700  1
  C  809  1  0.59953200  0.81801500  0.37874100  1
  C  811  1  0.69423900  0.49551300  0.70375000  1
  C  812  1  0.73960100  0.49819400  0.73212500  1
  C  813  1  0.73279000  0.49948600  0.78461500  1
  C  815  1  0.64214700  0.49746250  0.77824100  1
  C  818  1  0.69426200  0.49040950  0.64870000  1
  C  822  1  0.59341100  0.49709950  0.80089900  1
  C  824  1  0.79033000  0.49811400  0.71215400  1
  C  826  1  0.46780600  0.72574350  0.03703100  1
  C  827  1  0.47053200  0.67768250  0.06541500  1
  C  828  1  0.47199400  0.68312550  0.11790100  1
  C  830  1  0.46991600  0.77581400  0.11151900  1
  C  833  1  0.46246200  0.73093550  0.98200030  1
  C  837  1  0.46954000  0.82492150  0.13417700  1
  C  839  1  0.47033000  0.62709550  0.04545100  1
  H  7  1  0.99904000  0.48901000  0.06976400  1
  H  16  1  0.91062400  0.53422300  0.92903300  1
  H  19  1  0.97695600  0.38844450  0.92788800  1
  H  20  1  0.92431700  0.41654450  0.07182800  1
  H  21  1  0.18624800  0.38501150  0.97089100  1
  H  22  1  0.72289100  0.63276000  0.02099100  1
  H  33  1  0.46140500  0.42741600  0.40313900  1
  H  42  1  0.50667400  0.47052450  0.26243100  1
  H  45  1  0.36097000  0.54991350  0.26110200  1
  H  46  1  0.38885800  0.57467900  0.40510900  1
  H  47  1  0.35745600  0.34414800  0.30433600  1
  H  48  1  0.60513400  0.55981750  0.35437400  1
  H  59  1  0.39978100  0.02658350  0.73643500  1
  H  68  1  0.44294500  0.93827000  0.59572000  1
  H  71  1  0.52226200  0.00468100  0.59442500  1
  H  72  1  0.54706800  0.95194100  0.73839900  1
  H  73  1  0.31633300  0.21381100  0.63761400  1
  H  74  1  0.53237000  0.75045200  0.68761400  1
  H  85  1  0.28782200  0.17060700  0.87977500  1
  H  87  1  0.21113300  0.19354100  0.70864150  1
  H  88  1  0.23681800  0.24564800  0.70375200  1
  H  89  1  0.15998600  0.27099000  0.70863000  1
  H  91  1  0.07261400  0.36272350  0.85218800  1
  H  93  1  0.33917200  0.10848400  0.80615500  1
  H  100  1  0.14299400  0.45709000  0.21305400  1
  H  102  1  0.16642800  0.51009600  0.04173500  1
  H  103  1  0.21844400  0.43224950  0.03716700  1
  H  104  1  0.24389800  0.48366200  0.04185400  1
  H  106  1  0.33534400  0.47981600  0.18552200  1
  H  108  1  0.08094400  0.46786800  0.13945900  1
  H  115  1  0.42911600  0.31557350  0.54644000  1
  H  117  1  0.48292000  0.23889250  0.37526700  1
  H  118  1  0.40511800  0.26460100  0.37043700  1
  H  119  1  0.45659600  0.18776300  0.37527000  1
  H  121  1  0.45227800  0.10031750  0.51887400  1
  H  123  1  0.44001000  0.36685200  0.47290500  1
  H  130  1  0.62292800  0.79034400  0.88493600  1
  H  132  1  0.69856600  0.76423750  0.71325700  1
  H  133  1  0.66901800  0.71529950  0.70867900  1
  H  134  1  0.74660500  0.68616500  0.71290000  1
  H  136  1  0.83407100  0.59276350  0.85753400  1
  H  138  1  0.57272200  0.85311100  0.81198900  1
  H  145  1  0.76281000  0.50206200  0.21835400  1
  H  147  1  0.73650600  0.45297400  0.04657500  1
  H  148  1  0.68755900  0.53147400  0.04215300  1
  H  149  1  0.65843500  0.48300400  0.04626900  1
  H  151  1  0.56522800  0.48857650  0.19086600  1
  H  153  1  0.82551300  0.48960450  0.14538200  1
  H  160  1  0.47461700  0.65050700  0.55163900  1
  H  162  1  0.42497000  0.72615150  0.37999200  1
  H  163  1  0.50344800  0.69660400  0.37533000  1
  H  164  1  0.45500400  0.77418850  0.37958500  1
  H  166  1  0.46091800  0.86166800  0.52416300  1
  H  168  1  0.46204700  0.60028850  0.47870800  1
  H  679  1  0.99904000  0.48901000  0.65922100  1
  H  688  1  0.91062400  0.53422300  0.51849000  1
  H  691  1  0.97695600  0.38844450  0.51734500  1
  H  692  1  0.92431700  0.41654450  0.66128500  1
  H  693  1  0.18624800  0.38501150  0.56034800  1
  H  694  1  0.72289100  0.63276000  0.61044800  1
  H  705  1  0.46140500  0.42741600  0.99259626  1
  H  714  1  0.50667400  0.47052450  0.85188800  1
  H  717  1  0.36097000  0.54991350  0.85055900  1
  H  718  1  0.38885800  0.57467900  0.99456626  1
  H  719  1  0.35745600  0.34414800  0.89379300  1
  H  720  1  0.60513400  0.55981750  0.94383130  1
  H  731  1  0.39978100  0.02658350  0.32589200  1
  H  740  1  0.44294500  0.93827000  0.18517700  1
  H  743  1  0.52226200  0.00468100  0.18388200  1
  H  744  1  0.54706800  0.95194100  0.32785600  1
  H  745  1  0.31633300  0.21381100  0.22707100  1
  H  746  1  0.53237000  0.75045200  0.27707100  1
  H  757  1  0.28782200  0.17060700  0.46923200  1
  H  759  1  0.21113300  0.19354100  0.29809850  1
  H  760  1  0.23681800  0.24564800  0.29320900  1
  H  761  1  0.15998600  0.27099000  0.29808700  1
  H  763  1  0.07261400  0.36272350  0.44164500  1
  H  765  1  0.33917200  0.10848400  0.39561200  1
  H  772  1  0.14299400  0.45709000  0.80251100  1
  H  774  1  0.16642800  0.51009600  0.63119200  1
  H  775  1  0.21844400  0.43224950  0.62662400  1
  H  776  1  0.24389800  0.48366200  0.63131100  1
  H  778  1  0.33534400  0.47981600  0.77497900  1
  H  780  1  0.08094400  0.46786800  0.72891600  1
  H  787  1  0.42911600  0.31557350  0.13589700  1
  H  789  1  0.48292000  0.23889250  0.96472430  1
  H  790  1  0.40511800  0.26460100  0.95989430  1
  H  791  1  0.45659600  0.18776300  0.96472730  1
  H  793  1  0.45227800  0.10031750  0.10833100  1
  H  795  1  0.44001000  0.36685200  0.06236200  1
  H  802  1  0.62292800  0.79034400  0.47439300  1
  H  804  1  0.69856600  0.76423750  0.30271400  1
  H  805  1  0.66901800  0.71529950  0.29813600  1
  H  806  1  0.74660500  0.68616500  0.30235700  1
  H  808  1  0.83407100  0.59276350  0.44699100  1
  H  810  1  0.57272200  0.85311100  0.40144600  1
  H  817  1  0.76281000  0.50206200  0.80781100  1
  H  819  1  0.73650600  0.45297400  0.63603200  1
  H  820  1  0.68755900  0.53147400  0.63161000  1
  H  821  1  0.65843500  0.48300400  0.63572600  1
  H  823  1  0.56522800  0.48857650  0.78032300  1
  H  825  1  0.82551300  0.48960450  0.73483900  1
  H  832  1  0.47461700  0.65050700  0.14109600  1
  H  834  1  0.42497000  0.72615150  0.96944930  1
  H  835  1  0.50344800  0.69660400  0.96478730  1
  H  836  1  0.45500400  0.77418850  0.96904230  1
  H  838  1  0.46091800  0.86166800  0.11362000  1
  H  840  1  0.46204700  0.60028850  0.06816500  1
  N  23  1  0.79183600  0.60639600  0.92523500  1
  N  24  1  0.78938500  0.51963350  0.07672000  1
  N  25  1  0.11386400  0.35244850  0.91994600  1
  N  26  1  0.11827200  0.43948800  0.07087600  1
  N  49  1  0.57884600  0.51714200  0.25862800  1
  N  50  1  0.49193500  0.60650850  0.41003600  1
  N  51  1  0.32497200  0.44896200  0.25327600  1
  N  52  1  0.41190400  0.35771150  0.40428100  1
  N  75  1  0.48962300  0.81943500  0.59189500  1
  N  76  1  0.57897600  0.81701000  0.74331000  1
  N  77  1  0.42122800  0.14157100  0.58659500  1
  N  78  1  0.32998700  0.14577700  0.73758600  1
  N  82  1  0.20642600  0.24702700  0.87811100  1
  N  84  1  0.16231800  0.28131100  0.80059400  1
  N  97  1  0.21949600  0.46191000  0.21139700  1
  N  99  1  0.25395600  0.47143600  0.13386400  1
  N  112  1  0.43404600  0.23419800  0.54475700  1
  N  114  1  0.44394000  0.19007950  0.46723600  1
  N  127  1  0.70255700  0.71207750  0.88284200  1
  N  129  1  0.74522500  0.67630750  0.80511100  1
  N  142  1  0.68455000  0.50068600  0.21624900  1
  N  144  1  0.64869400  0.49397850  0.13850300  1
  N  157  1  0.47323400  0.73014600  0.54952700  1
  N  159  1  0.46630200  0.77280800  0.47178900  1
  N  695  1  0.79183600  0.60639600  0.51469200  1
  N  696  1  0.78938500  0.51963350  0.66617700  1
  N  697  1  0.11386400  0.35244850  0.50940300  1
  N  698  1  0.11827200  0.43948800  0.66033300  1
  N  721  1  0.57884600  0.51714200  0.84808500  1
  N  722  1  0.49193500  0.60650850  0.99949326  1
  N  723  1  0.32497200  0.44896200  0.84273300  1
  N  724  1  0.41190400  0.35771150  0.99373826  1
  N  747  1  0.48962300  0.81943500  0.18135200  1
  N  748  1  0.57897600  0.81701000  0.33276700  1
  N  749  1  0.42122800  0.14157100  0.17605200  1
  N  750  1  0.32998700  0.14577700  0.32704300  1
  N  754  1  0.20642600  0.24702700  0.46756800  1
  N  756  1  0.16231800  0.28131100  0.39005100  1
  N  769  1  0.21949600  0.46191000  0.80085400  1
  N  771  1  0.25395600  0.47143600  0.72332100  1
  N  784  1  0.43404600  0.23419800  0.13421400  1
  N  786  1  0.44394000  0.19007950  0.05669300  1
  N  799  1  0.70255700  0.71207750  0.47229900  1
  N  801  1  0.74522500  0.67630750  0.39456800  1
  N  814  1  0.68455000  0.50068600  0.80570600  1
  N  816  1  0.64869400  0.49397850  0.72796000  1
  N  829  1  0.47323400  0.73014600  0.13898400  1
  N  831  1  0.46630200  0.77280800  0.06124600  1
  O  8  1  0.17327400  0.36536350  0.99524600  1
  O  15  1  0.73368300  0.59583900  0.00259100  1
  O  17  1  0.98626600  0.41935250  0.91752700  1
  O  18  1  0.91693800  0.45616600  0.08208400  1
  O  34  1  0.33777000  0.37679150  0.32866600  1
  O  41  1  0.56822500  0.58592850  0.33595500  1
  O  43  1  0.39188000  0.50966100  0.25081600  1
  O  44  1  0.42846600  0.54244100  0.41541000  1
  O  60  1  0.34896000  0.20088800  0.66195600  1
  O  67  1  0.55846100  0.76128350  0.66920100  1
  O  69  1  0.48203500  0.01393400  0.58415100  1
  O  70  1  0.51484800  0.94454400  0.74869500  1
  O  680  1  0.17327400  0.36536350  0.58470300  1
  O  687  1  0.73368300  0.59583900  0.59204800  1
  O  689  1  0.98626600  0.41935250  0.50698400  1
  O  690  1  0.91693800  0.45616600  0.67154100  1
  O  706  1  0.33777000  0.37679150  0.91812330  1
  O  713  1  0.56822500  0.58592850  0.92541230  1
  O  715  1  0.39188000  0.50966100  0.84027300  1
  O  716  1  0.42846600  0.54244100  0.00486700  1
  O  732  1  0.34896000  0.20088800  0.25141300  1
  O  739  1  0.55846100  0.76128350  0.25865800  1
  O  741  1  0.48203500  0.01393400  0.17360800  1
  O  742  1  0.51484800  0.94454400  0.33815200  1
