# generated using pymatgen
data_CuH3(C5O2)2
_symmetry_space_group_name_H-M   'P 1'
_cell_length_a   17.47957000
_cell_length_b   17.51654000
_cell_length_c   17.52985000
_cell_angle_alpha   65.41899000
_cell_angle_beta   65.67259000
_cell_angle_gamma   65.25387000
_symmetry_Int_Tables_number   1
_chemical_formula_structural   CuH3(C5O2)2
_chemical_formula_sum   'Cu6 H18 C60 O24'
_cell_volume   4244.92663207
_cell_formula_units_Z   6
loop_
 _symmetry_equiv_pos_site_id
 _symmetry_equiv_pos_as_xyz
  1  'x, y, z'
loop_
 _atom_site_type_symbol
 _atom_site_label
 _atom_site_symmetry_multiplicity
 _atom_site_fract_x
 _atom_site_fract_y
 _atom_site_fract_z
 _atom_site_occupancy
  Cu  Cu1  1  0.99957000  0.43330000  0.99599000  1.0
  Cu  Cu2  1  0.43420000  0.99965000  0.99360000  1.0
  Cu  Cu3  1  0.99507000  0.99290000  0.43224000  1.0
  Cu  Cu4  1  0.56786000  0.00643000  0.00098000  1.0
  Cu  Cu5  1  0.00661000  0.56625000  0.00381000  1.0
  Cu  Cu6  1  0.00338000  0.00041000  0.56474000  1.0
  H  H1  1  0.27572000  0.50276000  0.98438000  1.0
  H  H2  1  0.49614000  0.99408000  0.26764000  1.0
  H  H3  1  0.97414000  0.26997000  0.50324000  1.0
  H  H4  1  0.49874000  0.72706000  0.02619000  1.0
  H  H5  1  0.00691000  0.49891000  0.73177000  1.0
  H  H6  1  0.72286000  0.02073000  0.49711000  1.0
  H  H7  1  0.72780000  0.49761000  0.02917000  1.0
  H  H8  1  0.49495000  0.02596000  0.72476000  1.0
  H  H9  1  0.00773000  0.72641000  0.50231000  1.0
  H  H10  1  0.50462000  0.27276000  0.98446000  1.0
  H  H11  1  0.98018000  0.49870000  0.27530000  1.0
  H  H12  1  0.26772000  0.99152000  0.49517000  1.0
  H  H13  1  0.26925000  0.26928000  0.96380000  1.0
  H  H14  1  0.26313000  0.97251000  0.26012000  1.0
  H  H15  1  0.97884000  0.26025000  0.25994000  1.0
  H  H16  1  0.73792000  0.73835000  0.03094000  1.0
  H  H17  1  0.02734000  0.73355000  0.73601000  1.0
  H  H18  1  0.73824000  0.02305000  0.73490000  1.0
  C  C1  1  0.26364000  0.39075000  0.97327000  1.0
  C  C2  1  0.30909000  0.43583000  0.98032000  1.0
  C  C3  1  0.16871000  0.43337000  0.97645000  1.0
  C  C4  1  0.38425000  0.98308000  0.25496000  1.0
  C  C5  1  0.42936000  0.99005000  0.30053000  1.0
  C  C6  1  0.42741000  0.98589000  0.16077000  1.0
  C  C7  1  0.97555000  0.25613000  0.38632000  1.0
  C  C8  1  0.97491000  0.30267000  0.43504000  1.0
  C  C9  1  0.97815000  0.16160000  0.42877000  1.0
  C  C10  1  0.61340000  0.74156000  0.02969000  1.0
  C  C11  1  0.56632000  0.69433000  0.02866000  1.0
  C  C12  1  0.57089000  0.83715000  0.02322000  1.0
  C  C13  1  0.01812000  0.61157000  0.74270000  1.0
  C  C14  1  0.01078000  0.56574000  0.69822000  1.0
  C  C15  1  0.01782000  0.56854000  0.83647000  1.0
  C  C16  1  0.73935000  0.02306000  0.61112000  1.0
  C  C17  1  0.69110000  0.02305000  0.56434000  1.0
  C  C18  1  0.83440000  0.01785000  0.56859000  1.0
  C  C19  1  0.74169000  0.61306000  0.03133000  1.0
  C  C20  1  0.69492000  0.56544000  0.03043000  1.0
  C  C21  1  0.83718000  0.57051000  0.02586000  1.0
  C  C22  1  0.61198000  0.02522000  0.73891000  1.0
  C  C23  1  0.56301000  0.02591000  0.69233000  1.0
  C  C24  1  0.57090000  0.02089000  0.83358000  1.0
  C  C25  1  0.01913000  0.73864000  0.61399000  1.0
  C  C26  1  0.01152000  0.69336000  0.56919000  1.0
  C  C27  1  0.01898000  0.83235000  0.56973000  1.0
  C  C28  1  0.39201000  0.26266000  0.97208000  1.0
  C  C29  1  0.43771000  0.30680000  0.98012000  1.0
  C  C30  1  0.43449000  0.16846000  0.97363000  1.0
  C  C31  1  0.97947000  0.38403000  0.25856000  1.0
  C  C32  1  0.97851000  0.43105000  0.30694000  1.0
  C  C33  1  0.98528000  0.42704000  0.16357000  1.0
  C  C34  1  0.25675000  0.98006000  0.38279000  1.0
  C  C35  1  0.30117000  0.98810000  0.42838000  1.0
  C  C36  1  0.16328000  0.97877000  0.42662000  1.0
  C  C37  1  0.44169000  0.43876000  0.99412000  1.0
  C  C38  1  0.47997000  0.47743000  0.00395000  1.0
  C  C39  1  0.30504000  0.30434000  0.96842000  1.0
  C  C40  1  0.39676000  0.39418000  0.98415000  1.0
  C  C41  1  0.43261000  0.00187000  0.43369000  1.0
  C  C42  1  0.47114000  0.00980000  0.47358000  1.0
  C  C43  1  0.29808000  0.97752000  0.29592000  1.0
  C  C44  1  0.38814000  0.99294000  0.38784000  1.0
  C  C45  1  0.97884000  0.43696000  0.44408000  1.0
  C  C46  1  0.98353000  0.47723000  0.48425000  1.0
  C  C47  1  0.97764000  0.29660000  0.29797000  1.0
  C  C48  1  0.97651000  0.39071000  0.39589000  1.0
  C  C49  1  0.56083000  0.55929000  0.02279000  1.0
  C  C50  1  0.52222000  0.52001000  0.01425000  1.0
  C  C51  1  0.70113000  0.70110000  0.03147000  1.0
  C  C52  1  0.60664000  0.60570000  0.02870000  1.0
  C  C53  1  0.99811000  0.56080000  0.56624000  1.0
  C  C54  1  0.99038000  0.52095000  0.52768000  1.0
  C  C55  1  0.02247000  0.69803000  0.70086000  1.0
  C  C56  1  0.00719000  0.60627000  0.61085000  1.0
  C  C57  1  0.55443000  0.02188000  0.55786000  1.0
  C  C58  1  0.51430000  0.01678000  0.51767000  1.0
  C  C59  1  0.70007000  0.02430000  0.69845000  1.0
  C  C60  1  0.60219000  0.02465000  0.60445000  1.0
  O  O1  1  0.12949000  0.38847000  0.97218000  1.0
  O  O2  1  0.13376000  0.51086000  0.98534000  1.0
  O  O3  1  0.38210000  0.98354000  0.12049000  1.0
  O  O4  1  0.50570000  0.99224000  0.12734000  1.0
  O  O5  1  0.97729000  0.12134000  0.38280000  1.0
  O  O6  1  0.98282000  0.12802000  0.50769000  1.0
  O  O7  1  0.61634000  0.87783000  0.02440000  1.0
  O  O8  1  0.49295000  0.87124000  0.01510000  1.0
  O  O9  1  0.02253000  0.61325000  0.87556000  1.0
  O  O10  1  0.01129000  0.49027000  0.87069000  1.0
  O  O11  1  0.87539000  0.01813000  0.61438000  1.0
  O  O12  1  0.86752000  0.01219000  0.49022000  1.0
  O  O13  1  0.87857000  0.61699000  0.02404000  1.0
  O  O14  1  0.87048000  0.49154000  0.02115000  1.0
  O  O15  1  0.61806000  0.02004000  0.87381000  1.0
  O  O16  1  0.49183000  0.01665000  0.86734000  1.0
  O  O17  1  0.02190000  0.87251000  0.61456000  1.0
  O  O18  1  0.01401000  0.86558000  0.49093000  1.0
  O  O19  1  0.38751000  0.12863000  0.97381000  1.0
  O  O20  1  0.51414000  0.13431000  0.97704000  1.0
  O  O21  1  0.98736000  0.38078000  0.12182000  1.0
  O  O22  1  0.98889000  0.50622000  0.13122000  1.0
  O  O23  1  0.12322000  0.97532000  0.38182000  1.0
  O  O24  1  0.13029000  0.98306000  0.50549000  1.0
