# generated using pymatgen
data_H28C39(N4O)2
_symmetry_space_group_name_H-M   'P 1'
_cell_length_a   26.51532500
_cell_length_b   26.51530000
_cell_length_c   32.71330000
_cell_angle_alpha   90.00000000
_cell_angle_beta   90.00000000
_cell_angle_gamma   119.99990643
_symmetry_Int_Tables_number   1
_chemical_formula_structural   H28C39(N4O)2
_chemical_formula_sum   'H168 C234 N48 O12'
_cell_volume   19918.14535763
_cell_formula_units_Z   6
loop_
 _symmetry_equiv_pos_site_id
 _symmetry_equiv_pos_as_xyz
  1  'x, y, z'
loop_
 _atom_site_type_symbol
 _atom_site_label
 _atom_site_symmetry_multiplicity
 _atom_site_fract_x
 _atom_site_fract_y
 _atom_site_fract_z
 _atom_site_occupancy
  C  1  1  0.46591050  0.44029350  0.97398000  1
  C  2  1  0.40793200  0.39989900  0.98356700  1
  C  3  1  0.38909850  0.42311550  0.01404500  1
  C  4  1  0.43446000  0.47902600  0.02370700  1
  C  5  1  0.42629800  0.51195900  0.05423300  1
  C  6  1  0.37226850  0.48810350  0.07508400  1
  C  7  1  0.32743900  0.43116500  0.06517400  1
  C  8  1  0.33526450  0.39860350  0.03443400  1
  C  9  1  0.37763550  0.34634850  0.96288700  1
  C  10  1  0.40632900  0.33387000  0.93171700  1
  C  11  1  0.46492700  0.37382700  0.92172500  1
  C  12  1  0.49503750  0.42730650  0.94318600  1
  C  13  1  0.50810300  0.54775100  0.97403400  1
  C  14  1  0.56607100  0.58814800  0.98364500  1
  C  15  1  0.58490450  0.56488650  0.01409000  1
  C  16  1  0.53956800  0.50893500  0.02368900  1
  C  17  1  0.63873750  0.58937850  0.03448000  1
  C  18  1  0.64657000  0.55677300  0.06518300  1
  C  19  1  0.60173250  0.49982950  0.07507500  1
  C  20  1  0.54771950  0.47597850  0.05420200  1
  C  21  1  0.47899700  0.56074800  0.94322700  1
  C  22  1  0.50912850  0.61422650  0.92176800  1
  C  23  1  0.56772800  0.65417000  0.93176800  1
  C  24  1  0.59639350  0.64168950  0.96295600  1
  C  37  1  0.48701150  0.49399950  0.99886800  1
  C  46  1  0.95437150  0.51509850  0.30734700  1
  C  47  1  0.97196750  0.57307850  0.31694200  1
  C  48  1  0.01403600  0.59190100  0.34740700  1
  C  49  1  0.02459250  0.54653750  0.35704500  1
  C  50  1  0.06571450  0.55469550  0.38755000  1
  C  51  1  0.09591850  0.60872550  0.40839400  1
  C  52  1  0.08383600  0.65357500  0.39848700  1
  C  53  1  0.04339750  0.64574050  0.36778400  1
  C  54  1  0.94878700  0.60341600  0.29622600  1
  C  55  1  0.90764000  0.57475100  0.26504000  1
  C  56  1  0.88896200  0.51614300  0.25505300  1
  C  57  1  0.91233200  0.48602300  0.27650000  1
  C  58  1  0.01964750  0.47291050  0.30734100  1
  C  59  1  0.00204150  0.41492250  0.31690900  1
  C  60  1  0.95998350  0.39608650  0.34738300  1
  C  61  1  0.94939050  0.44142750  0.35701800  1
  C  62  1  0.93063950  0.34224050  0.36775300  1
  C  63  1  0.89024050  0.33440950  0.39849000  1
  C  64  1  0.87813300  0.37924000  0.40840000  1
  C  65  1  0.90830150  0.43326650  0.38754700  1
  C  66  1  0.06176950  0.50204250  0.27654900  1
  C  67  1  0.08514000  0.47193500  0.25508700  1
  C  68  1  0.06648300  0.41333000  0.26506800  1
  C  69  1  0.02528400  0.38462300  0.29622000  1
  C  82  1  0.98700150  0.49399250  0.33220200  1
  C  91  1  0.54073400  0.02661700  0.64067000  1
  C  92  1  0.58112950  0.00904250  0.65027100  1
  C  93  1  0.55786850  0.96693750  0.68071100  1
  C  94  1  0.50194950  0.95638050  0.69035600  1
  C  95  1  0.46898750  0.91525250  0.72085700  1
  C  96  1  0.49283950  0.88508850  0.74172300  1
  C  97  1  0.54977250  0.89717750  0.73181400  1
  C  98  1  0.58236500  0.93760100  0.70109900  1
  C  99  1  0.63465200  0.03223700  0.62956100  1
  C  100  1  0.64715900  0.07343900  0.59840900  1
  C  101  1  0.60722250  0.09211150  0.58842500  1
  C  102  1  0.55373950  0.06874650  0.60988100  1
  C  103  1  0.43328650  0.96139050  0.64065400  1
  C  104  1  0.39287450  0.97893750  0.65028000  1
  C  105  1  0.41611850  0.02100350  0.68074500  1
  C  106  1  0.47204950  0.03158050  0.69037400  1
  C  107  1  0.39163100  0.05035200  0.70112900  1
  C  108  1  0.42423650  0.09079150  0.73183300  1
  C  109  1  0.48117300  0.10288600  0.74173600  1
  C  110  1  0.50501250  0.07270150  0.72087900  1
  C  111  1  0.42028400  0.91927600  0.60985600  1
  C  112  1  0.36680450  0.89592350  0.58839700  1
  C  113  1  0.32685150  0.91456450  0.59840500  1
  C  114  1  0.33934800  0.95573700  0.62957300  1
  C  127  1  0.48700350  0.99399050  0.66552800  1
  C  136  1  0.54118900  0.24317400  0.79844600  1
  C  138  1  0.51869800  0.24690100  0.86911200  1
  C  139  1  0.53750700  0.30670600  0.86577300  1
  C  141  1  0.56154750  0.30391050  0.79493000  1
  C  143  1  0.58193250  0.33496350  0.75873600  1
  C  146  1  0.53326800  0.34149500  0.89968200  1
  C  149  1  0.53756900  0.20577400  0.76328100  1
  C  152  1  0.68203150  0.43983650  0.13176400  1
  C  154  1  0.70827000  0.46234500  0.20242600  1
  C  155  1  0.74928000  0.44355300  0.19907900  1
  C  157  1  0.72242350  0.41949250  0.12824300  1
  C  159  1  0.73308800  0.39910900  0.09204600  1
  C  162  1  0.78831550  0.44780050  0.23298600  1
  C  165  1  0.64823100  0.44343400  0.09660700  1
  C  168  1  0.73789400  0.29904100  0.46517200  1
  C  170  1  0.73418600  0.27279700  0.53583200  1
  C  171  1  0.67436900  0.23183200  0.53250300  1
  C  173  1  0.67714500  0.25869800  0.46166900  1
  C  175  1  0.64607800  0.24806200  0.42548500  1
  C  178  1  0.63958350  0.19279750  0.56640900  1
  C  181  1  0.77528650  0.33280750  0.43000300  1
  C  184  1  0.43284350  0.74480950  0.79843400  1
  C  186  1  0.45532950  0.74109550  0.86910200  1
  C  187  1  0.43654100  0.68129500  0.86576600  1
  C  189  1  0.41250200  0.68407300  0.79492100  1
  C  191  1  0.39213000  0.65301800  0.75872700  1
  C  194  1  0.44078250  0.64651650  0.89968100  1
  C  197  1  0.43645300  0.78219900  0.76326800  1
  C  200  1  0.29205000  0.54815200  0.13182200  1
  C  202  1  0.26580900  0.52565500  0.20248400  1
  C  203  1  0.22483800  0.54449800  0.19914300  1
  C  205  1  0.25170200  0.56855000  0.12830700  1
  C  207  1  0.24106000  0.58895700  0.09211100  1
  C  210  1  0.18580750  0.54026750  0.23304700  1
  C  213  1  0.32582400  0.54451800  0.09666200  1
  C  216  1  0.23618850  0.68899350  0.46512000  1
  C  218  1  0.23989600  0.71521300  0.53578600  1
  C  219  1  0.29970150  0.75621450  0.53245100  1
  C  221  1  0.29692550  0.72937250  0.46161100  1
  C  223  1  0.32798600  0.74004400  0.42542100  1
  C  226  1  0.33448000  0.79524900  0.56636000  1
  C  229  1  0.19879900  0.65521200  0.42995400  1
  C  925  1  0.12648450  0.77972150  0.91284280  1
  C  926  1  0.06850600  0.73932700  0.92242980  1
  C  927  1  0.04967250  0.76254350  0.95290780  1
  C  928  1  0.09503400  0.81845400  0.96256980  1
  C  929  1  0.08687200  0.85138700  0.99309579  1
  C  930  1  0.03284250  0.82753150  0.01394700  1
  C  931  1  0.98801298  0.77059298  0.00403700  1
  C  932  1  0.99583848  0.73803148  0.97329680  1
  C  933  1  0.03820950  0.68577650  0.90174980  1
  C  934  1  0.06690300  0.67329800  0.87058000  1
  C  935  1  0.12550100  0.71325500  0.86058800  1
  C  936  1  0.15561150  0.76673450  0.88204900  1
  C  937  1  0.16867700  0.88717900  0.91289680  1
  C  938  1  0.22664500  0.92757600  0.92250780  1
  C  939  1  0.24547850  0.90431450  0.95295280  1
  C  940  1  0.20014200  0.84836300  0.96255180  1
  C  941  1  0.29931150  0.92880650  0.97334280  1
  C  942  1  0.30714400  0.89620100  0.00404600  1
  C  943  1  0.26230650  0.83925750  0.01393800  1
  C  944  1  0.20829350  0.81540650  0.99306479  1
  C  945  1  0.13957100  0.90017600  0.88209000  1
  C  946  1  0.16970250  0.95365450  0.86063100  1
  C  947  1  0.22830200  0.99359800  0.87063100  1
  C  948  1  0.25696750  0.98111750  0.90181880  1
  C  961  1  0.14758550  0.83342750  0.93773080  1
  C  970  1  0.61494550  0.85452650  0.24621000  1
  C  971  1  0.63254150  0.91250650  0.25580500  1
  C  972  1  0.67461000  0.93132900  0.28627000  1
  C  973  1  0.68516650  0.88596550  0.29590800  1
  C  974  1  0.72628850  0.89412320  0.32641300  1
  C  975  1  0.75649250  0.94815320  0.34725700  1
  C  976  1  0.74441000  0.99300300  0.33735000  1
  C  977  1  0.70397150  0.98516850  0.30664700  1
  C  978  1  0.60936100  0.94284400  0.23508900  1
  C  979  1  0.56821400  0.91417900  0.20390300  1
  C  980  1  0.54953600  0.85557100  0.19391600  1
  C  981  1  0.57290600  0.82545100  0.21536300  1
  C  982  1  0.68022150  0.81233820  0.24620400  1
  C  983  1  0.66261550  0.75435020  0.25577200  1
  C  984  1  0.62055750  0.73551420  0.28624600  1
  C  985  1  0.60996450  0.78085520  0.29588100  1
  C  986  1  0.59121350  0.68166820  0.30661600  1
  C  987  1  0.55081450  0.67383720  0.33735300  1
  C  988  1  0.53870700  0.71866770  0.34726300  1
  C  989  1  0.56887550  0.77269450  0.32641000  1
  C  990  1  0.72234350  0.84147020  0.21541200  1
  C  991  1  0.74571400  0.81136270  0.19395000  1
  C  992  1  0.72705700  0.75275770  0.20393100  1
  C  993  1  0.68585800  0.72405070  0.23508300  1
  C  1006  1  0.64757550  0.83342020  0.27106500  1
  C  1015  1  0.20130800  0.36604470  0.57953300  1
  C  1016  1  0.24170350  0.34847020  0.58913400  1
  C  1017  1  0.21844250  0.30636520  0.61957400  1
  C  1018  1  0.16252350  0.29580820  0.62921900  1
  C  1019  1  0.12956150  0.25468020  0.65972000  1
  C  1020  1  0.15341350  0.22451620  0.68058600  1
  C  1021  1  0.21034650  0.23660520  0.67067700  1
  C  1022  1  0.24293900  0.27702870  0.63996200  1
  C  1023  1  0.29522600  0.37166470  0.56842400  1
  C  1024  1  0.30773300  0.41286670  0.53727200  1
  C  1025  1  0.26779650  0.43153920  0.52728800  1
  C  1026  1  0.21431350  0.40817420  0.54874400  1
  C  1027  1  0.09386050  0.30081850  0.57951700  1
  C  1028  1  0.05344850  0.31836550  0.58914300  1
  C  1029  1  0.07669250  0.36043150  0.61960800  1
  C  1030  1  0.13262350  0.37100850  0.62923700  1
  C  1031  1  0.05220500  0.38978000  0.63999200  1
  C  1032  1  0.08481050  0.43021950  0.67069600  1
  C  1033  1  0.14174700  0.44231400  0.68059900  1
  C  1034  1  0.16558650  0.41212950  0.65974200  1
  C  1035  1  0.08085800  0.25870370  0.54871900  1
  C  1036  1  0.02737850  0.23535150  0.52726000  1
  C  1037  1  0.98742548  0.25399248  0.53726800  1
  C  1038  1  0.99992198  0.29516498  0.56843600  1
  C  1051  1  0.14757750  0.33341820  0.60439100  1
  C  1060  1  0.20176300  0.58260200  0.73730900  1
  C  1062  1  0.17927200  0.58632900  0.80797500  1
  C  1063  1  0.19808100  0.64613400  0.80463600  1
  C  1065  1  0.22212150  0.64333850  0.73379300  1
  C  1067  1  0.24250650  0.67439150  0.69759900  1
  C  1070  1  0.19384200  0.68092300  0.83854500  1
  C  1073  1  0.19814300  0.54520200  0.70214400  1
  C  1076  1  0.34260550  0.77926450  0.07062700  1
  C  1078  1  0.36884400  0.80177300  0.14128900  1
  C  1079  1  0.40985400  0.78298100  0.13794200  1
  C  1081  1  0.38299750  0.75892050  0.06710600  1
  C  1083  1  0.39366200  0.73853700  0.03090900  1
  C  1086  1  0.44888950  0.78722850  0.17184900  1
  C  1089  1  0.30880500  0.78286200  0.03547000  1
  C  1092  1  0.39846800  0.63846900  0.40403500  1
  C  1094  1  0.39476000  0.61222500  0.47469500  1
  C  1095  1  0.33494300  0.57126000  0.47136600  1
  C  1097  1  0.33771900  0.59812600  0.40053200  1
  C  1099  1  0.30665200  0.58749000  0.36434800  1
  C  1102  1  0.30015750  0.53222550  0.50527200  1
  C  1105  1  0.43586050  0.67223550  0.36886600  1
  C  1108  1  0.09341750  0.08423750  0.73729700  1
  C  1110  1  0.11590350  0.08052350  0.80796500  1
  C  1111  1  0.09711500  0.02072300  0.80462900  1
  C  1113  1  0.07307600  0.02350100  0.73378400  1
  C  1115  1  0.05270400  0.99244600  0.69759000  1
  C  1118  1  0.10135650  0.98594450  0.83854400  1
  C  1121  1  0.09702700  0.12162670  0.70213100  1
  C  1124  1  0.95262400  0.88758000  0.07068500  1
  C  1126  1  0.92638300  0.86508300  0.14134700  1
  C  1127  1  0.88541200  0.88392600  0.13800600  1
  C  1129  1  0.91227600  0.90797800  0.06717000  1
  C  1131  1  0.90163400  0.92838470  0.03097400  1
  C  1134  1  0.84638150  0.87969520  0.17191000  1
  C  1137  1  0.98639798  0.88394598  0.03552500  1
  C  1140  1  0.89676250  0.02842120  0.40398300  1
  C  1142  1  0.90047000  0.05464070  0.47464900  1
  C  1143  1  0.96027550  0.09564220  0.47131400  1
  C  1145  1  0.95749950  0.06880020  0.40047400  1
  C  1147  1  0.98855998  0.07947168  0.36428400  1
  C  1150  1  0.99505398  0.13467668  0.50522300  1
  C  1153  1  0.85937300  0.99463970  0.36881700  1
  H  25  1  0.58996300  0.69263000  0.91616700  1
  H  26  1  0.63892850  0.67069550  0.96967400  1
  H  27  1  0.67150050  0.63047250  0.02771200  1
  H  28  1  0.68541600  0.57487600  0.08046400  1
  H  29  1  0.51445150  0.43532650  0.06140800  1
  H  30  1  0.43705600  0.53090500  0.93562800  1
  H  31  1  0.45957000  0.55259600  0.06146300  1
  H  32  1  0.28859050  0.41304450  0.08045200  1
  H  33  1  0.30250650  0.35751450  0.02765100  1
  H  34  1  0.53700850  0.45712150  0.93563500  1
  H  35  1  0.33511950  0.31730650  0.96962600  1
  H  36  1  0.38411700  0.29539400  0.91613200  1
  H  39  1  0.57443950  0.44051450  0.12138300  1
  H  41  1  0.50614700  0.39181400  0.86757100  1
  H  43  1  0.39955300  0.54732800  0.12145000  1
  H  45  1  0.46796750  0.59623350  0.86759100  1
  H  70  1  0.08275150  0.39112050  0.24948400  1
  H  71  1  0.01182250  0.34211250  0.30296600  1
  H  72  1  0.93897900  0.30948600  0.36097900  1
  H  73  1  0.86951150  0.29556050  0.41376800  1
  H  74  1  0.90095050  0.46654550  0.39478500  1
  H  75  1  0.07388850  0.54399950  0.26897700  1
  H  76  1  0.07307950  0.52141850  0.39476700  1
  H  77  1  0.10460150  0.69243250  0.41375000  1
  H  78  1  0.03511700  0.67852800  0.36098200  1
  H  79  1  0.90015500  0.44404400  0.26895300  1
  H  80  1  0.96232100  0.64595200  0.30294200  1
  H  81  1  0.89142000  0.59698900  0.24943500  1
  H  84  1  0.84622600  0.40652900  0.45478200  1
  H  86  1  0.86576800  0.47496700  0.20088000  1
  H  88  1  0.12791400  0.58142700  0.45471800  1
  H  90  1  0.10837050  0.51316050  0.20093500  1
  H  115  1  0.28837400  0.89830700  0.58282200  1
  H  116  1  0.31029600  0.96919100  0.63634100  1
  H  117  1  0.35056000  0.04206200  0.69433300  1
  H  118  1  0.40614150  0.11155050  0.74710100  1
  H  119  1  0.54565900  0.08007800  0.72808700  1
  H  120  1  0.45010350  0.90713050  0.60229100  1
  H  121  1  0.42835200  0.90789900  0.72808200  1
  H  122  1  0.56787650  0.87643250  0.74709000  1
  H  123  1  0.62344900  0.94591500  0.69431500  1
  H  124  1  0.52392950  0.08090850  0.60232400  1
  H  125  1  0.66369050  0.01876050  0.63630700  1
  H  126  1  0.68563350  0.08969450  0.58282500  1
  H  129  1  0.54048050  0.13489750  0.78804950  1
  H  131  1  0.58925200  0.11537700  0.53427900  1
  H  133  1  0.43352700  0.85307100  0.78803400  1
  H  135  1  0.38476950  0.87268650  0.53423900  1
  H  142  1  0.50197100  0.22464200  0.89576300  1
  H  145  1  0.60279750  0.32249650  0.73979400  1
  H  147  1  0.52012900  0.31562400  0.92779200  1
  H  148  1  0.57595200  0.37986500  0.90509400  1
  H  150  1  0.58124900  0.22099400  0.75107700  1
  H  151  1  0.51193550  0.21174450  0.73954200  1
  H  158  1  0.70274000  0.47906700  0.22907900  1
  H  161  1  0.69975300  0.37824200  0.07310600  1
  H  163  1  0.77556800  0.46091700  0.26110000  1
  H  164  1  0.78402200  0.40512300  0.23838700  1
  H  166  1  0.61977150  0.39974850  0.08441000  1
  H  167  1  0.67982000  0.46906500  0.07285800  1
  H  174  1  0.75645000  0.27829900  0.56247200  1
  H  177  1  0.65855500  0.28140300  0.40655100  1
  H  179  1  0.66545950  0.20551050  0.59451400  1
  H  180  1  0.60121800  0.19711600  0.57183200  1
  H  182  1  0.76010050  0.36130950  0.41782200  1
  H  183  1  0.76926450  0.30119950  0.40625100  1
  H  190  1  0.47204650  0.76335650  0.89575400  1
  H  193  1  0.37126850  0.66547850  0.73977900  1
  H  195  1  0.45388900  0.67238300  0.92779200  1
  H  196  1  0.39810650  0.60812950  0.90508100  1
  H  198  1  0.39277050  0.76697150  0.75106400  1
  H  199  1  0.46209000  0.77623400  0.73952900  1
  H  206  1  0.27131750  0.50891150  0.22913400  1
  H  209  1  0.27440050  0.60981250  0.07317600  1
  H  211  1  0.19853250  0.52712950  0.26115800  1
  H  212  1  0.19012650  0.58295650  0.23845500  1
  H  214  1  0.35432000  0.58819800  0.08446800  1
  H  215  1  0.29421750  0.51891550  0.07291400  1
  H  222  1  0.21763400  0.70968500  0.56243200  1
  H  225  1  0.31552650  0.70671050  0.40648100  1
  H  227  1  0.30860700  0.78251500  0.59446800  1
  H  228  1  0.37285950  0.79095350  0.57177400  1
  H  230  1  0.21401950  0.62674750  0.41775700  1
  H  231  1  0.20477700  0.68681400  0.40621200  1
  H  949  1  0.25053700  0.03205800  0.85503000  1
  H  950  1  0.29950250  0.01012350  0.90853680  1
  H  951  1  0.33207450  0.96990050  0.96657480  1
  H  952  1  0.34599000  0.91430400  0.01932700  1
  H  953  1  0.17502550  0.77475450  0.00027100  1
  H  954  1  0.09763000  0.87033300  0.87449100  1
  H  955  1  0.12014400  0.89202400  0.00032600  1
  H  956  1  0.94916450  0.75247250  0.01931500  1
  H  957  1  0.96308050  0.69694250  0.96651380  1
  H  958  1  0.19758250  0.79654950  0.87449800  1
  H  959  1  0.99569348  0.65673448  0.90848880  1
  H  960  1  0.04469100  0.63482200  0.85499500  1
  H  963  1  0.23501350  0.77994250  0.06024600  1
  H  965  1  0.16672100  0.73124200  0.80643400  1
  H  967  1  0.06012700  0.88675600  0.06031300  1
  H  969  1  0.12854150  0.93566150  0.80645400  1
  H  994  1  0.74332550  0.73054850  0.18834700  1
  H  995  1  0.67239650  0.68154017  0.24182900  1
  H  996  1  0.59955300  0.64891370  0.29984200  1
  H  997  1  0.53008550  0.63498820  0.35263100  1
  H  998  1  0.56152450  0.80597350  0.33364800  1
  H  999  1  0.73446250  0.88342720  0.20784000  1
  H  1000  1  0.73365350  0.86084620  0.33363000  1
  H  1001  1  0.76517550  0.03186050  0.35261300  1
  H  1002  1  0.69569100  0.01795600  0.29984500  1
  H  1003  1  0.56072900  0.78347200  0.20781600  1
  H  1004  1  0.62289500  0.98538000  0.24180500  1
  H  1005  1  0.55199400  0.93641700  0.18829800  1
  H  1008  1  0.50680000  0.74595700  0.39364500  1
  H  1010  1  0.52634200  0.81439500  0.13974300  1
  H  1012  1  0.78848800  0.92085470  0.39358100  1
  H  1014  1  0.76894450  0.85258820  0.13979800  1
  H  1039  1  0.94894800  0.23773500  0.52168500  1
  H  1040  1  0.97087000  0.30861900  0.57520400  1
  H  1041  1  0.01113400  0.38149000  0.63319600  1
  H  1042  1  0.06671550  0.45097850  0.68596400  1
  H  1043  1  0.20623300  0.41950600  0.66695000  1
  H  1044  1  0.11067750  0.24655820  0.54115400  1
  H  1045  1  0.08892600  0.24732670  0.66694500  1
  H  1046  1  0.22845050  0.21586050  0.68595300  1
  H  1047  1  0.28402300  0.28534267  0.63317800  1
  H  1048  1  0.18450350  0.42033650  0.54118700  1
  H  1049  1  0.32426450  0.35818820  0.57517000  1
  H  1050  1  0.34620750  0.42912220  0.52168800  1
  H  1053  1  0.20105450  0.47432550  0.72691250  1
  H  1055  1  0.24982600  0.45480500  0.47314200  1
  H  1057  1  0.09410100  0.19249870  0.72689700  1
  H  1059  1  0.04534350  0.21211420  0.47310200  1
  H  1066  1  0.16254500  0.56407000  0.83462600  1
  H  1069  1  0.26337150  0.66192450  0.67865700  1
  H  1071  1  0.18070300  0.65505200  0.86665500  1
  H  1072  1  0.23652600  0.71929300  0.84395700  1
  H  1074  1  0.24182300  0.56042200  0.68994000  1
  H  1075  1  0.17250950  0.55117250  0.67840500  1
  H  1082  1  0.36331400  0.81849500  0.16794200  1
  H  1085  1  0.36032700  0.71767000  0.01196900  1
  H  1087  1  0.43614200  0.80034500  0.19996300  1
  H  1088  1  0.44459600  0.74455100  0.17725000  1
  H  1090  1  0.28034550  0.73917650  0.02327300  1
  H  1091  1  0.34039400  0.80849300  0.01172100  1
  H  1098  1  0.41702400  0.61772700  0.50133500  1
  H  1101  1  0.31912900  0.62083100  0.34541400  1
  H  1103  1  0.32603350  0.54493850  0.53337700  1
  H  1104  1  0.26179200  0.53654400  0.51069500  1
  H  1106  1  0.42067450  0.70073750  0.35668500  1
  H  1107  1  0.42983850  0.64062750  0.34511400  1
  H  1114  1  0.13262050  0.10278450  0.83461700  1
  H  1117  1  0.03184250  0.00490650  0.67864200  1
  H  1119  1  0.11446300  0.01181100  0.86665500  1
  H  1120  1  0.05868050  0.94755750  0.84394400  1
  H  1122  1  0.05334450  0.10639920  0.68992700  1
  H  1123  1  0.12266400  0.11566200  0.67839200  1
  H  1130  1  0.93189150  0.84833950  0.16799700  1
  H  1133  1  0.93497450  0.94924017  0.01203900  1
  H  1135  1  0.85910650  0.86655717  0.20002100  1
  H  1136  1  0.85070050  0.92238420  0.17731800  1
  H  1138  1  0.01489400  0.92762600  0.02333100  1
  H  1139  1  0.95479150  0.85834350  0.01177700  1
  H  1146  1  0.87820800  0.04911270  0.50129500  1
  H  1149  1  0.97610050  0.04613820  0.34534400  1
  H  1151  1  0.96918100  0.12194270  0.53333100  1
  H  1152  1  0.03343350  0.13038120  0.51063700  1
  H  1154  1  0.87459350  0.96617520  0.35662000  1
  H  1155  1  0.86535100  0.02624170  0.34507500  1
  N  38  1  0.61233800  0.47044700  0.10724500  1
  N  40  1  0.48981800  0.35904500  0.88896400  1
  N  42  1  0.36165850  0.51743750  0.10728500  1
  N  44  1  0.48426850  0.62900350  0.88898500  1
  N  83  1  0.83820800  0.36863500  0.44061100  1
  N  85  1  0.84931250  0.49127750  0.22227800  1
  N  87  1  0.13588650  0.61932750  0.44057700  1
  N  89  1  0.12480750  0.49682250  0.22232300  1
  N  128  1  0.51054800  0.14286500  0.77391100  1
  N  130  1  0.62201950  0.13179850  0.55567400  1
  N  132  1  0.46346450  0.84510850  0.77389700  1
  N  134  1  0.35200950  0.85624450  0.55564000  1
  N  137  1  0.52070950  0.21792450  0.83559000  1
  N  140  1  0.55782650  0.33197250  0.82874900  1
  N  153  1  0.67726550  0.46031450  0.16890800  1
  N  156  1  0.75422300  0.42323200  0.16205500  1
  N  169  1  0.76315500  0.30378000  0.50230700  1
  N  172  1  0.64908700  0.22691400  0.49548700  1
  N  185  1  0.45331050  0.77006250  0.83557800  1
  N  188  1  0.41623050  0.65602150  0.82874200  1
  N  201  1  0.29679550  0.52765650  0.16896600  1
  N  204  1  0.21991600  0.56483900  0.16212200  1
  N  217  1  0.21093050  0.68422150  0.50226100  1
  N  220  1  0.32497750  0.76116250  0.49542900  1
  N  962  1  0.27291200  0.80987500  0.04610800  1
  N  964  1  0.15039200  0.69847300  0.82782700  1
  N  966  1  0.02223250  0.85686550  0.04614800  1
  N  968  1  0.14484250  0.96843150  0.82784800  1
  N  1007  1  0.49878200  0.70806300  0.37947400  1
  N  1009  1  0.50988650  0.83070550  0.16114100  1
  N  1011  1  0.79646050  0.95875520  0.37944000  1
  N  1013  1  0.78538150  0.83625020  0.16118600  1
  N  1052  1  0.17112200  0.48229300  0.71277400  1
  N  1054  1  0.28259350  0.47122620  0.49453700  1
  N  1056  1  0.12403850  0.18453620  0.71276000  1
  N  1058  1  0.01258350  0.19567220  0.49450300  1
  N  1061  1  0.18128350  0.55735250  0.77445300  1
  N  1064  1  0.21840050  0.67140050  0.76761200  1
  N  1077  1  0.33783950  0.79974250  0.10777100  1
  N  1080  1  0.41479700  0.76266000  0.10091800  1
  N  1093  1  0.42372900  0.64320800  0.44117000  1
  N  1096  1  0.30966100  0.56634200  0.43435000  1
  N  1109  1  0.11388450  0.10949050  0.77444100  1
  N  1112  1  0.07680450  0.99544950  0.76760500  1
  N  1125  1  0.95736950  0.86708450  0.10782900  1
  N  1128  1  0.88049000  0.90426670  0.10098500  1
  N  1141  1  0.87150450  0.02364920  0.44112400  1
  N  1144  1  0.98555148  0.10059018  0.43429200  1
  O  144  1  0.59878050  0.38712750  0.75825900  1
  O  160  1  0.76840450  0.38226150  0.09156600  1
  O  176  1  0.59390500  0.21277200  0.42501800  1
  O  192  1  0.37528000  0.60085100  0.75825600  1
  O  208  1  0.20576850  0.60583650  0.09163400  1
  O  224  1  0.38015000  0.77536200  0.42494700  1
  O  1068  1  0.25935450  0.72655550  0.69712200  1
  O  1084  1  0.42897850  0.72168950  0.03042900  1
  O  1100  1  0.25447900  0.55220000  0.36388100  1
  O  1116  1  0.03585400  0.94027900  0.69711900  1
  O  1132  1  0.86634250  0.94526420  0.03049700  1
  O  1148  1  0.04072400  0.11478970  0.36381000  1
