# generated using pymatgen
data_H24C37N8
_symmetry_space_group_name_H-M   'P 1'
_cell_length_a   15.41105000
_cell_length_b   15.41105000
_cell_length_c   45.86530000
_cell_angle_alpha   89.95660000
_cell_angle_beta   89.97830000
_cell_angle_gamma   60.00000000
_symmetry_Int_Tables_number   1
_chemical_formula_structural   H24C37N8
_chemical_formula_sum   'H72 C111 N24'
_cell_volume   9433.63794975
_cell_formula_units_Z   3
loop_
 _symmetry_equiv_pos_site_id
 _symmetry_equiv_pos_as_xyz
  1  'x, y, z'
loop_
 _atom_site_type_symbol
 _atom_site_label
 _atom_site_symmetry_multiplicity
 _atom_site_fract_x
 _atom_site_fract_y
 _atom_site_fract_z
 _atom_site_occupancy
  C  5  1  0.93370400  0.05609900  0.77868000  1
  C  7  1  0.99574100  0.99735750  0.53403500  1
  C  11  1  0.29551500  0.69008250  0.65865400  1
  C  15  1  0.94554700  0.03657750  0.80817000  1
  C  17  1  0.04836500  0.93040200  0.84620900  1
  C  21  1  0.99888100  0.96980750  0.22922300  1
  C  25  1  0.19978100  0.80482400  0.94130600  1
  C  26  1  0.76535600  0.24626650  0.73214100  1
  C  31  1  0.01743100  0.94519550  0.47490800  1
  C  36  1  0.03115100  0.99912850  0.89586300  1
  C  41  1  0.86224500  0.18446450  0.74331600  1
  C  43  1  0.18158900  0.87397900  0.06225100  1
  C  48  1  0.91587900  0.09700350  0.85699100  1
  C  49  1  0.99763000  0.00652400  0.86731800  1
  C  52  1  0.03686700  0.01773400  0.14152000  1
  C  63  1  0.18503900  0.95285900  0.07673300  1
  C  64  1  0.24673700  0.98798800  0.06549300  1
  C  65  1  0.30536700  0.94365050  0.04051100  1
  C  66  1  0.31029500  0.85808800  0.02708100  1
  C  67  1  0.24151500  0.82921700  0.03758500  1
  C  68  1  0.37918400  0.80219000  0.00140300  1
  C  69  1  0.30331300  0.83557850  0.97638300  1
  C  70  1  0.26645500  0.77428350  0.96495200  1
  C  71  1  0.16174100  0.90101950  0.92933700  1
  C  72  1  0.19047500  0.96663900  0.94173000  1
  C  73  1  0.25844200  0.93483400  0.96518600  1
  C  74  1  0.46422500  0.82511550  0.99691200  1
  C  75  1  0.43891500  0.68793250  0.00500900  1
  C  76  1  0.48796300  0.62608000  0.98047100  1
  C  77  1  0.53479900  0.52117350  0.98192300  1
  C  78  1  0.53791800  0.47349700  0.00844600  1
  C  79  1  0.50073000  0.53215450  0.03380200  1
  C  80  1  0.45291900  0.63739700  0.03207300  1
  C  81  1  0.52828800  0.81511350  0.02060900  1
  C  82  1  0.61177400  0.82808500  0.01716700  1
  C  83  1  0.63640900  0.84883050  0.98948300  1
  C  84  1  0.57828100  0.85286300  0.96529800  1
  C  85  1  0.49363500  0.84184550  0.96902500  1
  C  103  1  0.95300500  0.86186400  0.41007200  1
  C  104  1  0.98803300  0.76497450  0.39892000  1
  C  105  1  0.94386900  0.75058300  0.37392300  1
  C  106  1  0.85834700  0.83115750  0.36043300  1
  C  107  1  0.82947900  0.92884550  0.37086600  1
  C  108  1  0.87421900  0.94411150  0.39550800  1
  C  109  1  0.80241600  0.81810200  0.33478000  1
  C  110  1  0.83569700  0.86061450  0.30972400  1
  C  111  1  0.77425700  0.95869550  0.29822000  1
  C  112  1  0.80473700  0.99484400  0.27454500  1
  C  113  1  0.90102800  0.93682700  0.26264500  1
  C  114  1  0.96673000  0.84251350  0.27507900  1
  C  115  1  0.93496100  0.80631650  0.29855200  1
  C  116  1  0.82538900  0.71012550  0.33032300  1
  C  117  1  0.68818300  0.87255850  0.33842300  1
  C  118  1  0.62620300  0.88525350  0.31392100  1
  C  119  1  0.52129200  0.94321450  0.31541000  1
  C  120  1  0.47378100  0.98769450  0.34194000  1
  C  121  1  0.53259000  0.96628350  0.36726800  1
  C  122  1  0.63781700  0.90891700  0.36550500  1
  C  123  1  0.81557100  0.65590150  0.35403000  1
  C  124  1  0.82855700  0.55944750  0.35059600  1
  C  125  1  0.84901800  0.51429850  0.32290100  1
  C  126  1  0.85294500  0.56848600  0.29870700  1
  C  127  1  0.84197000  0.66411650  0.30243300  1
  C  147  1  0.75099200  0.30492500  0.70714700  1
  C  148  1  0.83157700  0.30993350  0.69368100  1
  C  149  1  0.92927300  0.24101800  0.70412000  1
  C  150  1  0.94455100  0.18086500  0.72875300  1
  C  151  1  0.81851200  0.37900650  0.66802300  1
  C  152  1  0.86087500  0.30335100  0.64296100  1
  C  153  1  0.95899100  0.26653650  0.63148400  1
  C  154  1  0.99505100  0.19998200  0.60782100  1
  C  155  1  0.93682500  0.16204200  0.59587900  1
  C  156  1  0.84255300  0.19064100  0.60832700  1
  C  157  1  0.80647000  0.25850750  0.63179500  1
  C  158  1  0.71054200  0.46406550  0.66358000  1
  C  159  1  0.87308600  0.43866900  0.67164700  1
  C  160  1  0.88587800  0.48789950  0.64712900  1
  C  161  1  0.94381800  0.53487150  0.64860500  1
  C  162  1  0.98844500  0.53772700  0.67512700  1
  C  163  1  0.96706200  0.50027400  0.70046400  1
  C  164  1  0.90960600  0.45250200  0.69871700  1
  C  165  1  0.65652600  0.52802750  0.68729900  1
  C  166  1  0.56008100  0.61157550  0.68390000  1
  C  167  1  0.51471400  0.63642300  0.65622800  1
  C  168  1  0.56874700  0.57847800  0.63201100  1
  C  169  1  0.66439300  0.49377200  0.63570700  1
  C  187  1  0.93039000  0.02139700  0.17953600  1
  C  189  1  0.09706000  0.98695200  0.19038700  1
  C  190  1  0.00652200  0.99576050  0.20067200  1
  C  192  1  0.05663300  0.00979550  0.11204900  1
  C  197  1  0.02177700  0.04754550  0.51289100  1
  C  201  1  0.98618700  0.91606900  0.52375700  1
  C  203  1  0.00962400  0.93336850  0.44543000  1
  C  206  1  0.96978000  0.03099850  0.56257300  1
  C  208  1  0.59952300  0.07473450  0.97689400  1
  C  210  1  0.58679000  0.22304450  0.99701400  1
  C  212  1  0.72557900  0.06467750  0.00974900  1
  C  213  1  0.69025800  0.01416100  0.99188700  1
  C  215  1  0.53875600  0.32621900  0.99690100  1
  C  218  1  0.74981000  0.91225200  0.98658300  1
  C  220  1  0.07523400  0.32559650  0.31060900  1
  C  222  1  0.22343500  0.18964850  0.33067900  1
  C  224  1  0.06504000  0.20887600  0.34316700  1
  C  225  1  0.01456200  0.29518050  0.32544400  1
  C  227  1  0.32661000  0.13456950  0.33063300  1
  C  230  1  0.91272200  0.33742600  0.32001900  1
  C  232  1  0.32584400  0.59927250  0.64370600  1
  C  234  1  0.19012300  0.58655950  0.66377800  1
  C  236  1  0.20953200  0.72543600  0.67647600  1
  C  238  1  0.13499900  0.53850750  0.66366000  1
  C  241  1  0.33783400  0.74968100  0.65333500  1
  H  1  1  0.28900400  0.70482750  0.97335700  1
  H  3  1  0.13972300  0.84491900  0.07048200  1
  H  6  1  0.98239100  0.00519600  0.76486100  1
  H  13  1  0.01211200  0.98197100  0.43161600  1
  H  27  1  0.67939400  0.34690900  0.69959800  1
  H  34  1  0.73708100  0.27871350  0.63995000  1
  H  35  1  0.10920600  0.86305450  0.85162700  1
  H  50  1  0.87630000  0.15653300  0.87062000  1
  H  51  1  0.99724600  0.05807100  0.90907200  1
  H  86  1  0.56395500  0.47989550  0.96333000  1
  H  87  1  0.48419600  0.65762200  0.96054200  1
  H  88  1  0.50492500  0.49882100  0.05347300  1
  H  89  1  0.42662900  0.67671750  0.05103100  1
  H  90  1  0.51510900  0.79662350  0.04090800  1
  H  91  1  0.65682700  0.81813600  0.03473100  1
  H  92  1  0.59899800  0.86095750  0.94471000  1
  H  93  1  0.45677000  0.84100800  0.95063100  1
  H  94  1  0.27871600  0.98398800  0.97329800  1
  H  95  1  0.16549800  0.03629050  0.93297400  1
  H  96  1  0.17976400  0.75593350  0.93273600  1
  H  97  1  0.23902000  0.77012150  0.02835200  1
  H  98  1  0.34715400  0.97339100  0.03289300  1
  H  99  1  0.25107500  0.04461150  0.07580800  1
  H  128  1  0.47990800  0.95550050  0.29682700  1
  H  129  1  0.65759900  0.85773900  0.29396900  1
  H  130  1  0.49934500  0.99529000  0.38695000  1
  H  131  1  0.67725200  0.89587550  0.38444500  1
  H  132  1  0.79720100  0.68746450  0.37433300  1
  H  133  1  0.81875700  0.52420950  0.36816700  1
  H  134  1  0.86103000  0.53974700  0.27811800  1
  H  135  1  0.84107700  0.70188150  0.28403100  1
  H  136  1  0.98420300  0.73701550  0.30673000  1
  H  137  1  0.03642500  0.79799450  0.26638400  1
  H  138  1  0.75576800  0.06364850  0.26592200  1
  H  139  1  0.70476400  0.00548550  0.30657100  1
  H  140  1  0.77035600  0.99041250  0.36159100  1
  H  141  1  0.97354900  0.67897900  0.36638500  1
  H  142  1  0.04460400  0.70403150  0.40929400  1
  H  145  1  0.84507200  0.01507650  0.40371200  1
  H  170  1  0.95601600  0.56407150  0.63002100  1
  H  171  1  0.85808000  0.48431950  0.62719800  1
  H  172  1  0.99614500  0.50439150  0.72014100  1
  H  173  1  0.89656800  0.42609700  0.71766400  1
  H  174  1  0.68818200  0.51465750  0.70759600  1
  H  175  1  0.52495600  0.65643950  0.70149100  1
  H  176  1  0.53989400  0.59928550  0.61143600  1
  H  177  1  0.70202800  0.45700500  0.61729400  1
  H  178  1  0.79787400  0.16564350  0.59960300  1
  H  179  1  0.06394600  0.17996900  0.59922000  1
  H  180  1  0.00594500  0.28902750  0.63987100  1
  H  181  1  0.99082500  0.23854800  0.69483400  1
  H  182  1  0.70441200  0.25066400  0.74251300  1
  H  186  1  0.01551300  0.13901750  0.73696400  1
  H  191  1  0.86306900  0.02782150  0.18490400  1
  H  193  1  0.15657400  0.96700350  0.20404900  1
  H  194  1  0.00559700  0.01224150  0.09823200  1
  H  196  1  0.05758800  0.94539800  0.24253800  1
  H  202  1  0.02893600  0.10801800  0.51827800  1
  H  204  1  0.96572700  0.87691900  0.53741200  1
  H  207  1  0.94526400  0.99689350  0.57590300  1
  H  214  1  0.57131800  0.04463150  0.96250700  1
  H  216  1  0.79210600  0.02617250  0.02068100  1
  H  217  1  0.47613300  0.36327450  0.98518600  1
  H  219  1  0.82227000  0.88656900  0.98318300  1
  H  226  1  0.04515500  0.38433750  0.29634800  1
  H  228  1  0.02650900  0.18053450  0.35393800  1
  H  229  1  0.36375000  0.16052300  0.31911600  1
  H  231  1  0.88716000  0.29059400  0.31654800  1
  H  237  1  0.38426600  0.57103550  0.62934900  1
  H  239  1  0.18138200  0.79201400  0.68737300  1
  H  240  1  0.16070700  0.47580550  0.65198700  1
  H  242  1  0.29102700  0.82213450  0.64992500  1
  N  19  1  0.94822300  0.02929700  0.15099100  1
  N  23  1  0.87293500  0.14524250  0.76963800  1
  N  33  1  0.11117300  0.92094350  0.90462800  1
  N  44  1  0.98134100  0.87255150  0.43640300  1
  N  45  1  0.92090500  0.96743850  0.23790900  1
  N  46  1  0.02266500  0.94800600  0.81766300  1
  N  47  1  0.89390200  0.10994700  0.82813900  1
  N  100  1  0.57592800  0.37494700  0.00952000  1
  N  101  1  0.72306100  0.84555550  0.98564300  1
  N  102  1  0.14580700  0.98137100  0.10304200  1
  N  143  1  0.37523700  0.04818250  0.34301900  1
  N  144  1  0.84594800  0.43084100  0.31901800  1
  N  183  1  0.04895700  0.57576200  0.67621500  1
  N  184  1  0.43126400  0.72301150  0.65238600  1
  N  185  1  0.96743500  0.11138550  0.57119200  1
  N  188  1  0.11014200  0.99594400  0.16154200  1
  N  198  1  0.02968600  0.02184200  0.48435500  1
  N  200  1  0.99507400  0.89406050  0.49491400  1
  N  209  1  0.55165900  0.17586350  0.97967600  1
  N  211  1  0.67410500  0.16617100  0.01164400  1
  N  221  1  0.17634000  0.27236400  0.31346500  1
  N  223  1  0.16652400  0.15882100  0.34512100  1
  N  233  1  0.27258500  0.55138800  0.64648400  1
  N  235  1  0.15952600  0.67393800  0.67836900  1
