# generated using pymatgen
data_H9C16(NO2)2
_symmetry_space_group_name_H-M   'P 1'
_cell_length_a   32.10930000
_cell_length_b   32.10929969
_cell_length_c   32.10929969
_cell_angle_alpha   75.52248753
_cell_angle_beta   59.99999969
_cell_angle_gamma   59.99999969
_symmetry_Int_Tables_number   1
_chemical_formula_structural   H9C16(NO2)2
_chemical_formula_sum   'H144 C256 N32 O64'
_cell_volume   24828.68769653
_cell_formula_units_Z   16
loop_
 _symmetry_equiv_pos_site_id
 _symmetry_equiv_pos_as_xyz
  1  'x, y, z'
loop_
 _atom_site_type_symbol
 _atom_site_label
 _atom_site_symmetry_multiplicity
 _atom_site_fract_x
 _atom_site_fract_y
 _atom_site_fract_z
 _atom_site_occupancy
  C  1  1  0.01436450  0.01324750  0.99921650  1
  C  2  1  0.99024850  0.06455500  0.00164700  1
  C  3  1  0.01894400  0.08735300  0.00056100  1
  C  4  1  0.07182600  0.05853850  0.99525950  1
  C  5  1  0.09604250  0.00827600  0.99267900  1
  C  6  1  0.06763500  0.98502200  0.99457500  1
  C  7  1  0.93777000  0.09157900  0.00547100  1
  C  8  1  0.09075200  0.93440550  0.99255050  1
  C  10  1  0.98563150  0.98991300  0.00089600  1
  C  11  1  0.93236950  0.01813850  0.00551650  1
  C  12  1  0.90398150  0.99488650  0.00735750  1
  C  13  1  0.92819550  0.94462300  0.00479400  1
  C  14  1  0.98104550  0.91581250  0.99956750  1
  C  15  1  0.00975150  0.93860800  0.99845900  1
  C  16  1  0.90925350  0.06875400  0.00754100  1
  C  18  1  0.06223300  0.91158050  0.99463250  1
  C  27  1  0.02521750  0.48998150  0.50069850  1
  C  28  1  0.05486200  0.43867800  0.49822300  1
  C  29  1  0.10524900  0.41587950  0.49934850  1
  C  30  1  0.12395450  0.44468600  0.50476900  1
  C  31  1  0.09531950  0.49494950  0.50735850  1
  C  32  1  0.04558550  0.51820150  0.50540350  1
  C  33  1  0.03324850  0.41165850  0.49435750  1
  C  34  1  0.01603350  0.56881900  0.50748100  1
  C  36  1  0.97481400  0.51332150  0.49904350  1
  C  37  1  0.95440450  0.48510050  0.49440750  1
  C  38  1  0.90458100  0.50835700  0.49261500  1
  C  39  1  0.87595350  0.55862100  0.49520500  1
  C  40  1  0.89473150  0.58742250  0.50050850  1
  C  41  1  0.94516350  0.56462300  0.50154100  1
  C  42  1  0.98395850  0.43448600  0.49232500  1
  C  44  1  0.96677200  0.59164700  0.50540100  1
  C  53  1  0.02596900  0.00083800  0.48833400  1
  C  54  1  0.05314450  0.00329800  0.43703100  1
  C  55  1  0.10472100  0.00203400  0.41424200  1
  C  56  1  0.12884800  0.99661600  0.44304200  1
  C  57  1  0.10278950  0.99404700  0.49330500  1
  C  58  1  0.05107050  0.99606650  0.51655350  1
  C  59  1  0.02763500  0.00724550  0.41000950  1
  C  60  1  0.02357850  0.99401600  0.56717200  1
  C  62  1  0.97385950  0.00260500  0.51167200  1
  C  63  1  0.94878250  0.00731700  0.48345000  1
  C  64  1  0.89712750  0.00919400  0.50670700  1
  C  65  1  0.87108400  0.00660400  0.55696800  1
  C  66  1  0.89517100  0.00128650  0.58576550  1
  C  67  1  0.94669550  0.00012700  0.56297400  1
  C  68  1  0.97626500  0.00938400  0.43283500  1
  C  70  1  0.97219500  0.99619050  0.58999850  1
  C  79  1  0.51350100  0.50250250  0.01166450  1
  C  80  1  0.49189000  0.49997850  0.06296550  1
  C  81  1  0.51947600  0.50114350  0.08574150  1
  C  82  1  0.56693850  0.50663700  0.05693200  1
  C  83  1  0.58854350  0.50923250  0.00666850  1
  C  84  1  0.56205000  0.50727250  0.98343050  1
  C  85  1  0.44332050  0.49601250  0.09000150  1
  C  86  1  0.58307550  0.50937750  0.93281550  1
  C  88  1  0.48646350  0.50077400  0.98833800  1
  C  89  1  0.43791300  0.49600950  0.01657550  1
  C  90  1  0.41140800  0.49405850  0.99334450  1
  C  91  1  0.43301900  0.49664100  0.94308000  1
  C  92  1  0.48051800  0.50207250  0.91426050  1
  C  93  1  0.50808350  0.50327850  0.93703850  1
  C  94  1  0.41688950  0.49389650  0.06718950  1
  C  96  1  0.55665700  0.50724000  0.91000300  1
  C  105  1  0.48794200  0.49982200  0.48733800  1
  C  106  1  0.51469550  0.49724450  0.43597250  1
  C  107  1  0.49014500  0.49452000  0.41101500  1
  C  108  1  0.44255100  0.48921700  0.43803500  1
  C  109  1  0.41463400  0.49203900  0.48864000  1
  C  110  1  0.43693050  0.49897500  0.51343600  1
  C  111  1  0.56504500  0.49798650  0.41094950  1
  C  112  1  0.41111300  0.50211600  0.56414800  1
  C  114  1  0.51211600  0.50348550  0.51259450  1
  C  115  1  0.56312450  0.50434200  0.48649400  1
  C  116  1  0.58540550  0.51131400  0.51128300  1
  C  117  1  0.55750750  0.51409350  0.56189150  1
  C  118  1  0.50990400  0.50880600  0.58891300  1
  C  119  1  0.48536300  0.50606150  0.56396050  1
  C  120  1  0.58894700  0.50118450  0.43578450  1
  C  122  1  0.43501650  0.50531600  0.58898200  1
  C  131  1  0.47344850  0.00342750  0.01261750  1
  C  132  1  0.44622050  0.00602750  0.06397850  1
  C  133  1  0.39401450  0.00870400  0.08890100  1
  C  134  1  0.36818350  0.01396950  0.06185050  1
  C  135  1  0.39369850  0.01118950  0.01124250  1
  C  136  1  0.44773100  0.00424350  0.98648750  1
  C  137  1  0.47223300  0.00533500  0.08903500  1
  C  138  1  0.47580800  0.00108350  0.93577850  1
  C  140  1  0.52652450  0.99979600  0.98739800  1
  C  141  1  0.55224450  0.99897650  0.01352850  1
  C  142  1  0.60628200  0.99202250  0.98877850  1
  C  143  1  0.63177600  0.98928200  0.93816600  1
  C  144  1  0.60595900  0.99451250  0.91111750  1
  C  145  1  0.55375050  0.99719800  0.93603600  1
  C  146  1  0.52417150  0.00213050  0.06423450  1
  C  148  1  0.52773850  0.99789250  0.91097850  1
  C  157  1  0.47530000  0.01429800  0.49816200  1
  C  158  1  0.45072550  0.06566150  0.49556750  1
  C  159  1  0.40126700  0.09063600  0.49275800  1
  C  160  1  0.38064550  0.06364300  0.48749000  1
  C  161  1  0.40329300  0.01304400  0.49032700  1
  C  162  1  0.45036900  0.98822550  0.49729350  1
  C  163  1  0.47605750  0.09066050  0.49634650  1
  C  164  1  0.47522900  0.93751500  0.50045000  1
  C  166  1  0.52470300  0.98901900  0.50186800  1
  C  167  1  0.54963300  0.01509100  0.50274300  1
  C  168  1  0.59670850  0.99027000  0.50971000  1
  C  169  1  0.61937100  0.93966750  0.51251750  1
  C  170  1  0.59874800  0.91267850  0.50724450  1
  C  171  1  0.54928200  0.93765550  0.50445150  1
  C  172  1  0.52476650  0.06580100  0.49959500  1
  C  174  1  0.52395100  0.91265500  0.50367700  1
  C  183  1  0.98606600  0.48901350  0.00183750  1
  C  184  1  0.01025150  0.43764900  0.00441700  1
  C  185  1  0.98297800  0.41269100  0.00714800  1
  C  186  1  0.93010700  0.43969750  0.01239050  1
  C  187  1  0.90497000  0.49030350  0.00963950  1
  C  188  1  0.93420250  0.51510350  0.00268950  1
  C  189  1  0.06133600  0.41263500  0.00368500  1
  C  190  1  0.91151600  0.56581650  0.99954950  1
  C  192  1  0.01388700  0.51427850  0.99817950  1
  C  193  1  0.06575100  0.48818700  0.99732900  1
  C  194  1  0.09498150  0.51299050  0.99037750  1
  C  195  1  0.06984450  0.56359650  0.98762550  1
  C  196  1  0.01697550  0.59060200  0.99286400  1
  C  197  1  0.98970300  0.56564350  0.99559850  1
  C  198  1  0.08843750  0.43747750  0.00046650  1
  C  200  1  0.93861550  0.59065900  0.99633200  1
  C  417  1  0.22668250  0.97703900  0.98435300  1
  C  418  1  0.28345350  0.95736700  0.95786900  1
  C  419  1  0.31249050  0.97610200  0.96258000  1
  C  420  1  0.28563550  0.01396300  0.99531000  1
  C  421  1  0.22885800  0.03290250  0.02258450  1
  C  422  1  0.19963500  0.01509600  0.01700700  1
  C  431  1  0.19849400  0.95807450  0.97868250  1
  C  433  1  0.31309650  0.02978750  0.00604550  1
  C  435  1  0.18642000  0.52600000  0.51598500  1
  C  436  1  0.19713650  0.54579850  0.54227050  1
  C  437  1  0.24966900  0.52713550  0.53740450  1
  C  438  1  0.29336000  0.48924450  0.50469050  1
  C  439  1  0.28269450  0.47021800  0.47758200  1
  C  440  1  0.23002700  0.48790400  0.48336000  1
  C  449  1  0.13352750  0.54490450  0.52185250  1
  C  451  1  0.34740550  0.47348000  0.49382100  1
  C  453  1  0.20240850  0.98561250  0.52438050  1
  C  454  1  0.23941900  0.95936350  0.54417250  1
  C  455  1  0.28706000  0.96427200  0.52551400  1
  C  456  1  0.29797550  0.99702950  0.48764950  1
  C  457  1  0.26023850  0.02406400  0.46858300  1
  C  458  1  0.21335950  0.01826450  0.48630150  1
  C  467  1  0.15542250  0.97968250  0.54328150  1
  C  469  1  0.34116000  0.00789300  0.47185800  1
  C  471  1  0.71080850  0.51765000  0.97557100  1
  C  472  1  0.74131350  0.54394300  0.95580500  1
  C  473  1  0.77517800  0.53905950  0.97447850  1
  C  474  1  0.78096550  0.50632000  0.01235500  1
  C  475  1  0.75125600  0.47923050  0.03138450  1
  C  476  1  0.71632700  0.48498250  0.01364750  1
  C  485  1  0.67680450  0.52356700  0.95666200  1
  C  487  1  0.81920650  0.49546200  0.02816500  1
  C  489  1  0.77333900  0.02617050  0.01564150  1
  C  490  1  0.71656550  0.04585950  0.04212250  1
  C  491  1  0.68751400  0.02714550  0.03740950  1
  C  492  1  0.71435450  0.98928550  0.00467950  1
  C  493  1  0.77113300  0.97033200  0.97740400  1
  C  494  1  0.80037050  0.98811900  0.98298600  1
  C  503  1  0.80154800  0.04510500  0.02132200  1
  C  505  1  0.68687850  0.97347450  0.99395050  1
  C  507  1  0.81348000  0.47708200  0.48440000  1
  C  508  1  0.80285000  0.45742750  0.45791350  1
  C  509  1  0.75035700  0.47617950  0.46264450  1
  C  510  1  0.70663000  0.51402800  0.49539700  1
  C  511  1  0.71720950  0.53291700  0.52269800  1
  C  512  1  0.76982700  0.51511250  0.51708950  1
  C  521  1  0.86631850  0.45813200  0.47868400  1
  C  523  1  0.65260650  0.52987500  0.50613400  1
  C  525  1  0.79787600  0.01726300  0.47543900  1
  C  526  1  0.76074250  0.04372200  0.45579900  1
  C  527  1  0.71301300  0.03893550  0.47454350  1
  C  528  1  0.70210700  0.00613350  0.51235950  1
  C  529  1  0.73995200  0.97891150  0.53128850  1
  C  530  1  0.78694700  0.98454650  0.51345350  1
  C  539  1  0.84496550  0.02303200  0.45648000  1
  C  541  1  0.65882100  0.99539350  0.52821950  1
  C  543  1  0.28916150  0.48562250  0.02442950  1
  C  544  1  0.25865850  0.45932900  0.04419200  1
  C  545  1  0.22479000  0.46421800  0.02551900  1
  C  546  1  0.21900050  0.49696300  0.98764600  1
  C  547  1  0.24871350  0.52404850  0.96861750  1
  C  548  1  0.28364500  0.51829150  0.98635350  1
  C  557  1  0.32316500  0.47969950  0.04334150  1
  C  559  1  0.18074900  0.50782950  0.97184350  1
  C  705  1  0.00360850  0.79688400  0.98655400  1
  C  706  1  0.02568300  0.76537400  0.94912200  1
  C  707  1  0.02214350  0.72147400  0.95949200  1
  C  708  1  0.99369850  0.70901550  0.00749750  1
  C  709  1  0.97281750  0.73999550  0.04499950  1
  C  710  1  0.97642400  0.78387350  0.03468150  1
  C  719  1  0.99932200  0.84319850  0.97503750  1
  C  721  1  0.99621850  0.66328400  0.01894300  1
  C  723  1  0.78546950  0.70642650  0.51336750  1
  C  724  1  0.73857950  0.73792000  0.55081700  1
  C  725  1  0.70150000  0.78183250  0.54046950  1
  C  726  1  0.70857350  0.79431050  0.49247350  1
  C  727  1  0.75615950  0.76333700  0.45496200  1
  C  728  1  0.79334300  0.71946000  0.46526300  1
  C  737  1  0.81589750  0.66009300  0.52490000  1
  C  739  1  0.67675800  0.84003650  0.48103750  1
  C  741  1  0.79886850  0.98826050  0.70470650  1
  C  742  1  0.78944900  0.95079150  0.73617150  1
  C  743  1  0.74206100  0.96110950  0.78011450  1
  C  744  1  0.70120300  0.00911900  0.79264300  1
  C  745  1  0.71120000  0.04665250  0.76168150  1
  C  746  1  0.75864000  0.03636600  0.71777100  1
  C  755  1  0.84083050  0.97675200  0.65837400  1
  C  757  1  0.65808250  0.02040400  0.83842000  1
  C  759  1  0.49013150  0.51502300  0.79526500  1
  C  760  1  0.47479950  0.55247900  0.76375800  1
  C  761  1  0.48171000  0.54214100  0.71980400  1
  C  762  1  0.50137300  0.49412900  0.70730300  1
  C  763  1  0.51793300  0.45659450  0.73827950  1
  C  764  1  0.51114650  0.46690000  0.78219900  1
  C  773  1  0.47423050  0.52646050  0.84163450  1
  C  775  1  0.51529300  0.48270100  0.66156500  1
  C  777  1  0.99648200  0.20635900  0.01336900  1
  C  778  1  0.97440300  0.23784700  0.05082000  1
  C  779  1  0.97788500  0.28177400  0.04047200  1
  C  780  1  0.00628800  0.29427250  0.99247050  1
  C  781  1  0.02716650  0.26331200  0.95495200  1
  C  782  1  0.02360400  0.21941450  0.96524750  1
  C  791  1  0.00088650  0.16001150  0.02480350  1
  C  793  1  0.00373400  0.34001700  0.98105200  1
  C  795  1  0.21452600  0.29686300  0.48662100  1
  C  796  1  0.26141600  0.26537350  0.44917150  1
  C  797  1  0.29849900  0.22146400  0.45951900  1
  C  798  1  0.29142950  0.20899400  0.50751500  1
  C  799  1  0.24383950  0.23996300  0.54502700  1
  C  800  1  0.20664750  0.28383200  0.53472500  1
  C  809  1  0.18408550  0.34320800  0.47513100  1
  C  811  1  0.32325500  0.16327450  0.51895450  1
  C  813  1  0.20105200  0.01503950  0.29531450  1
  C  814  1  0.21048400  0.05250300  0.26384200  1
  C  815  1  0.25787550  0.04217150  0.21990050  1
  C  816  1  0.29872350  0.99415850  0.20737850  1
  C  817  1  0.28871150  0.95663250  0.23834850  1
  C  818  1  0.24126900  0.96693150  0.28225650  1
  C  827  1  0.15910050  0.02655100  0.34165300  1
  C  829  1  0.34184750  0.98285950  0.16160450  1
  C  831  1  0.50994500  0.48815400  0.20467900  1
  C  832  1  0.52524700  0.45071550  0.23621050  1
  C  833  1  0.51835850  0.46107200  0.28014500  1
  C  834  1  0.49873550  0.50908800  0.29260700  1
  C  835  1  0.48220650  0.54660850  0.26160750  1
  C  836  1  0.48898200  0.53628200  0.21770200  1
  C  845  1  0.52579350  0.47666750  0.15833750  1
  C  847  1  0.48481650  0.52052600  0.33833800  1
  H  9  1  0.09433750  0.07485250  0.99055750  1
  H  17  1  0.90571550  0.92829400  0.00944800  1
  H  19  1  0.87127950  0.08980350  0.01043850  1
  H  20  1  0.91936600  0.12832400  0.00729700  1
  H  21  1  0.08063900  0.87483850  0.99279750  1
  H  22  1  0.12873550  0.91335950  0.98963050  1
  H  35  1  0.15799550  0.42836500  0.50959500  1
  H  43  1  0.84176450  0.57494400  0.49060800  1
  H  45  1  0.96994100  0.41344100  0.48940300  1
  H  46  1  0.05343000  0.37491750  0.49250150  1
  H  47  1  0.94657450  0.62838750  0.50728650  1
  H  48  1  0.03002600  0.58986400  0.51044600  1
  H  61  1  0.16770700  0.99181750  0.42671150  1
  H  69  1  0.83229000  0.01122350  0.57329250  1
  H  71  1  0.95930350  0.01235950  0.41179050  1
  H  72  1  0.04596550  0.00909550  0.37326750  1
  H  73  1  0.95387600  0.99431750  0.62673950  1
  H  74  1  0.04055600  0.99100000  0.58821900  1
  H  87  1  0.58472850  0.51136950  0.07324250  1
  H  95  1  0.41524700  0.49187750  0.92677150  1
  H  97  1  0.38188250  0.49088150  0.08824750  1
  H  98  1  0.42679950  0.49411050  0.12674050  1
  H  99  1  0.57318400  0.50913100  0.87326400  1
  H  100  1  0.61807850  0.51239700  0.91176000  1
  H  113  1  0.42564850  0.48690200  0.41940500  1
  H  121  1  0.57439950  0.51641400  0.58052600  1
  H  123  1  0.62514500  0.50228700  0.41603100  1
  H  124  1  0.58494300  0.49633000  0.37418900  1
  H  125  1  0.41511250  0.50698050  0.62574350  1
  H  126  1  0.37490000  0.50104650  0.58389750  1
  H  139  1  0.33032750  0.01630350  0.08045450  1
  H  147  1  0.66963300  0.98694750  0.91955650  1
  H  149  1  0.54166400  0.00110150  0.08400750  1
  H  150  1  0.45367850  0.00701150  0.12579650  1
  H  151  1  0.54628700  0.99622300  0.87421900  1
  H  152  1  0.45830700  0.00213100  0.91600800  1
  H  165  1  0.34513750  0.08230150  0.48513050  1
  H  173  1  0.65488550  0.92100650  0.51486550  1
  H  175  1  0.54123600  0.08553500  0.50068500  1
  H  176  1  0.45922400  0.12742050  0.49467050  1
  H  177  1  0.54078500  0.87589550  0.50534750  1
  H  178  1  0.45876600  0.91777900  0.49934900  1
  H  191  1  0.91087700  0.42105950  0.01475350  1
  H  199  1  0.08907750  0.58223450  0.98525950  1
  H  201  1  0.12571650  0.41773350  0.99940750  1
  H  202  1  0.07958000  0.37587350  0.00535050  1
  H  203  1  0.92037400  0.62741950  0.99466350  1
  H  204  1  0.87423950  0.58555850  0.00060650  1
  H  424  1  0.38259550  0.92775550  0.95146650  1
  H  428  1  0.19124100  0.09776350  0.04257150  1
  H  429  1  0.32240850  0.89136900  0.94170000  1
  H  430  1  0.12718950  0.06432950  0.04674650  1
  H  432  1  0.21822850  0.92590100  0.96182900  1
  H  434  1  0.29028750  0.05465150  0.03289550  1
  H  442  1  0.26041700  0.57557350  0.54819250  1
  H  446  1  0.32993650  0.40531900  0.45773300  1
  H  447  1  0.15397750  0.61182450  0.55832550  1
  H  448  1  0.23667100  0.43853300  0.45369500  1
  H  450  1  0.10444550  0.57726800  0.53841100  1
  H  452  1  0.37628000  0.44864750  0.46693850  1
  H  460  1  0.30859800  0.95352300  0.57394300  1
  H  464  1  0.28756450  0.04400800  0.40371600  1
  H  465  1  0.21235200  0.94326150  0.61019050  1
  H  466  1  0.19033150  0.04785950  0.43692450  1
  H  468  1  0.14290950  0.96313200  0.57565100  1
  H  470  1  0.34315250  0.03477150  0.44701750  1
  H  478  1  0.83437150  0.54984950  0.92606550  1
  H  482  1  0.73363250  0.45930650  0.09625650  1
  H  483  1  0.76420450  0.56000700  0.88977700  1
  H  484  1  0.67359750  0.45530300  0.06298800  1
  H  486  1  0.68009150  0.54013850  0.92430250  1
  H  488  1  0.82324350  0.46857800  0.05299500  1
  H  496  1  0.61741600  0.07550350  0.04851650  1
  H  500  1  0.80873250  0.90547600  0.95741400  1
  H  501  1  0.67764050  0.11185350  0.05829450  1
  H  502  1  0.87280500  0.93886500  0.95328000  1
  H  504  1  0.78183250  0.07726850  0.03818750  1
  H  506  1  0.70968050  0.94860400  0.96710900  1
  H  514  1  0.73970100  0.42786100  0.45149000  1
  H  518  1  0.67002450  0.59779000  0.54265900  1
  H  519  1  0.84607500  0.39144400  0.44170000  1
  H  520  1  0.76332350  0.56431600  0.54684700  1
  H  522  1  0.89562750  0.42598150  0.46179150  1
  H  524  1  0.62370650  0.55472450  0.53299850  1
  H  532  1  0.69120650  0.05005150  0.42622950  1
  H  536  1  0.71278900  0.95885600  0.59612700  1
  H  537  1  0.78771450  0.05997000  0.38982100  1
  H  538  1  0.81021150  0.95484550  0.56266250  1
  H  540  1  0.85736650  0.03991650  0.42431750  1
  H  542  1  0.65680050  0.96851800  0.55305800  1
  H  550  1  0.16559900  0.45342550  0.07393350  1
  H  554  1  0.26633250  0.54397750  0.90374450  1
  H  555  1  0.23576900  0.44325800  0.11021800  1
  H  556  1  0.32638100  0.54796550  0.93701150  1
  H  558  1  0.31987600  0.46313100  0.07570000  1
  H  560  1  0.17670800  0.53472000  0.94701800  1
  H  712  1  0.08309150  0.67058750  0.91755950  1
  H  716  1  0.97254450  0.71503000  0.10514800  1
  H  717  1  0.02793500  0.78914700  0.88813300  1
  H  718  1  0.91630250  0.83398200  0.07805500  1
  H  720  1  0.98782050  0.86006250  0.94929250  1
  H  722  1  0.00685950  0.64609900  0.04513400  1
  H  730  1  0.66963450  0.83270800  0.58241400  1
  H  734  1  0.79104650  0.78831300  0.39480800  1
  H  735  1  0.70360100  0.71416300  0.61181400  1
  H  736  1  0.82668450  0.66937350  0.42187150  1
  H  738  1  0.79552850  0.64326150  0.55072750  1
  H  740  1  0.69648050  0.85721700  0.45493900  1
  H  748  1  0.75220000  0.91908900  0.83093200  1
  H  752  1  0.68597400  0.10677900  0.78667900  1
  H  753  1  0.81543250  0.88983350  0.71235250  1
  H  754  1  0.74854600  0.07975300  0.66769500  1
  H  756  1  0.84613450  0.95103800  0.64151100  1
  H  758  1  0.65142650  0.04667850  0.85559350  1
  H  766  1  0.50073750  0.58408450  0.66894250  1
  H  770  1  0.57783100  0.39646100  0.71330800  1
  H  771  1  0.41598400  0.61342950  0.78755650  1
  H  772  1  0.49434950  0.42351600  0.83227200  1
  H  774  1  0.43697600  0.55220400  0.85850900  1
  H  776  1  0.55216650  0.45656650  0.64437150  1
  H  784  1  0.91692750  0.33262850  0.08243750  1
  H  788  1  0.02738500  0.28831050  0.89482550  1
  H  789  1  0.97221550  0.21405650  0.11178850  1
  H  790  1  0.08373400  0.16934550  0.92182850  1
  H  792  1  0.01228600  0.14319100  0.05062600  1
  H  794  1  0.99308200  0.35720950  0.95487050  1
  H  802  1  0.33036900  0.17057850  0.41758650  1
  H  806  1  0.20896200  0.21498450  0.60518150  1
  H  807  1  0.29639850  0.28912250  0.38816950  1
  H  808  1  0.17329050  0.33392950  0.57810950  1
  H  810  1  0.20451650  0.36001900  0.44933300  1
  H  812  1  0.30353700  0.14609200  0.54505600  1
  H  820  1  0.24775550  0.08418350  0.16907250  1
  H  824  1  0.31392200  0.89650400  0.21336200  1
  H  825  1  0.18452100  0.11345500  0.28765600  1
  H  826  1  0.25134600  0.92355500  0.33234300  1
  H  828  1  0.15386850  0.05220900  0.35853200  1
  H  830  1  0.34850150  0.95658300  0.14443900  1
  H  838  1  0.49928500  0.41917200  0.33104200  1
  H  842  1  0.42234150  0.60677050  0.28653850  1
  H  843  1  0.58401350  0.38973500  0.21244800  1
  H  844  1  0.50582850  0.57961500  0.16758500  1
  H  846  1  0.56307150  0.45096800  0.14146700  1
  H  848  1  0.44794500  0.54668700  0.35550000  1
  N  23  1  0.14722500  0.98538150  0.98616950  1
  N  24  1  0.00214750  0.13495650  0.99805450  1
  N  25  1  0.99793300  0.86820200  0.00193300  1
  N  26  1  0.85281050  0.01775850  0.01384350  1
  N  49  1  0.11685300  0.51790700  0.51416000  1
  N  50  1  0.13353850  0.36827350  0.50185250  1
  N  51  1  0.86640700  0.63502650  0.49805650  1
  N  52  1  0.88276350  0.48547950  0.48614750  1
  N  75  1  0.13108450  0.98731150  0.51627750  1
  N  76  1  0.13539900  0.99971950  0.36662750  1
  N  77  1  0.86447450  0.00362350  0.63337450  1
  N  78  1  0.86887950  0.01562200  0.48380600  1
  N  101  1  0.63307850  0.51596250  0.98368050  1
  N  102  1  0.50024450  0.50349850  0.13335150  1
  N  103  1  0.49976700  0.49968950  0.86664850  1
  N  104  1  0.36687300  0.48733300  0.01632900  1
  N  127  1  0.36563250  0.49191900  0.51123800  1
  N  128  1  0.51025600  0.49244450  0.36317950  1
  N  129  1  0.48982600  0.51082100  0.63675400  1
  N  130  1  0.63441400  0.51142000  0.48869300  1
  N  153  1  0.36718700  0.01130650  0.98862950  1
  N  154  1  0.36414050  0.01086850  0.13672650  1
  N  155  1  0.63581350  0.99237850  0.86329050  1
  N  156  1  0.63278800  0.99193650  0.01138150  1
  N  179  1  0.37684850  0.99046950  0.49024850  1
  N  180  1  0.37351450  0.13847800  0.49078900  1
  N  181  1  0.62650200  0.86483400  0.50920500  1
  N  182  1  0.62314850  0.01284200  0.50980700  1
  N  205  1  0.85585950  0.51289050  0.00974650  1
  N  206  1  0.00104200  0.36485150  0.00917750  1
  N  207  1  0.99892050  0.63843800  0.99082000  1
  N  208  1  0.14409600  0.49040200  0.99026500  1
  O  423  1  0.36672750  0.95685500  0.93473500  1
  O  425  1  0.31118950  0.92199300  0.92474500  1
  O  426  1  0.20079200  0.06605000  0.05814800  1
  O  427  1  0.14673250  0.02929150  0.04949350  1
  O  441  1  0.25690650  0.54651700  0.56506300  1
  O  443  1  0.15644000  0.58122850  0.57535250  1
  O  444  1  0.32329250  0.43699800  0.44207400  1
  O  445  1  0.22368600  0.47360150  0.45103450  1
  O  459  1  0.32196350  0.93664200  0.54489200  1
  O  461  1  0.23185650  0.92624950  0.57958150  1
  O  462  1  0.26524250  0.05962750  0.43541550  1
  O  463  1  0.17466350  0.05050600  0.47199700  1
  O  477  1  0.80179900  0.56671500  0.95512000  1
  O  479  1  0.73606050  0.57703050  0.92037350  1
  O  480  1  0.75865200  0.44368200  0.06456100  1
  O  481  1  0.69561750  0.45271450  0.02791150  1
  O  495  1  0.63327600  0.04640300  0.06525400  1
  O  497  1  0.68884600  0.08122550  0.07524850  1
  O  498  1  0.79918600  0.93718950  0.94183950  1
  O  499  1  0.85327900  0.97390050  0.95050450  1
  O  513  1  0.74319550  0.45696950  0.43478150  1
  O  515  1  0.84360050  0.42207950  0.42476150  1
  O  516  1  0.67657300  0.56608550  0.55824450  1
  O  517  1  0.77607000  0.52927900  0.54957700  1
  O  531  1  0.67797800  0.06677000  0.45533800  1
  O  533  1  0.76829500  0.07689700  0.42046500  1
  O  534  1  0.73494900  0.94331000  0.56440100  1
  O  535  1  0.82571200  0.95214100  0.52761800  1
  O  549  1  0.19817000  0.43656200  0.04487500  1
  O  551  1  0.26391400  0.42623700  0.07962000  1
  O  552  1  0.24131650  0.55960200  0.93544200  1
  O  553  1  0.30435550  0.55055850  0.97208750  1
  O  711  1  0.04619700  0.69212850  0.92174950  1
  O  713  1  0.05303750  0.77585950  0.90236350  1
  O  714  1  0.94647950  0.72910650  0.09189150  1
  O  715  1  0.95372450  0.81268300  0.07244700  1
  O  729  1  0.65847300  0.81116450  0.57822650  1
  O  731  1  0.72967100  0.72742650  0.59757050  1
  O  732  1  0.76579900  0.77423750  0.40807550  1
  O  733  1  0.83721100  0.69065400  0.42749400  1
  O  747  1  0.73679750  0.92333500  0.80941500  1
  O  749  1  0.82728500  0.90403750  0.72562750  1
  O  750  1  0.67394750  0.09352800  0.77264200  1
  O  751  1  0.76469700  0.07415050  0.68896850  1
  O  765  1  0.46803350  0.57989300  0.69046600  1
  O  767  1  0.45530950  0.59923100  0.77432300  1
  O  768  1  0.53851400  0.40971050  0.72734950  1
  O  769  1  0.52616600  0.42912950  0.81102050  1
  O  783  1  0.95383100  0.31109950  0.07823050  1
  O  785  1  0.94710150  0.22731350  0.09757250  1
  O  786  1  0.05346700  0.27423700  0.90806200  1
  O  787  1  0.04629550  0.19061700  0.92747500  1
  O  801  1  0.34152450  0.19213100  0.42176500  1
  O  803  1  0.27031650  0.27587300  0.40241800  1
  O  804  1  0.23420100  0.22906900  0.59191300  1
  O  805  1  0.16277100  0.31264300  0.57248600  1
  O  819  1  0.26315450  0.07993800  0.19059100  1
  O  821  1  0.17265950  0.09926000  0.27438300  1
  O  822  1  0.32595450  0.90975400  0.22739700  1
  O  823  1  0.23519700  0.92915450  0.31106850  1
  O  837  1  0.53200550  0.42333850  0.30951050  1
  O  839  1  0.54468300  0.40396100  0.22569400  1
  O  840  1  0.46166050  0.59349400  0.27250700  1
  O  841  1  0.47398700  0.57404050  0.18886050  1
