# generated using pymatgen
data_SiH40C52(NO)8
_symmetry_space_group_name_H-M   'P 1'
_cell_length_a   26.35330000
_cell_length_b   26.35330000
_cell_length_c   35.62390000
_cell_angle_alpha   90.00000000
_cell_angle_beta   90.00000000
_cell_angle_gamma   120.00000000
_symmetry_Int_Tables_number   1
_chemical_formula_structural   SiH40C52(NO)8
_chemical_formula_sum   'Si3 H120 C156 N24 O24'
_cell_volume   21426.04963437
_cell_formula_units_Z   3
loop_
 _symmetry_equiv_pos_site_id
 _symmetry_equiv_pos_as_xyz
  1  'x, y, z'
loop_
 _atom_site_type_symbol
 _atom_site_label
 _atom_site_symmetry_multiplicity
 _atom_site_fract_x
 _atom_site_fract_y
 _atom_site_fract_z
 _atom_site_occupancy
  C  1  1  0.53016650  0.38393650  0.91891500  1
  C  2  1  0.48731450  0.40087150  0.92207700  1
  C  3  1  0.49718100  0.44841400  0.94467500  1
  C  4  1  0.55010300  0.48019400  0.96510300  1
  C  5  1  0.59478250  0.46605550  0.95952600  1
  C  6  1  0.58496750  0.41862650  0.93646900  1
  C  8  1  0.55088150  0.57927450  0.96655550  1
  C  9  1  0.59552000  0.60882300  0.93945150  1
  C  10  1  0.59704600  0.65366400  0.91756250  1
  C  11  1  0.55379550  0.66984250  0.92197100  1
  C  12  1  0.50616850  0.63701550  0.94621200  1
  C  13  1  0.50479450  0.59217950  0.96841400  1
  C  14  1  0.50442750  0.50252050  0.02766700  1
  C  15  1  0.61725950  0.56436650  0.01980700  1
  C  16  1  0.64883550  0.62612350  0.02492100  1
  C  17  1  0.69017950  0.65203350  0.05388000  1
  C  18  1  0.70016450  0.61661350  0.07882300  1
  C  19  1  0.67073050  0.55543950  0.07338600  1
  C  20  1  0.62994450  0.52966950  0.04421200  1
  C  21  1  0.47260300  0.44128300  0.03458600  1
  C  22  1  0.43472550  0.41812350  0.06544500  1
  C  23  1  0.42844400  0.45558500  0.09084600  1
  C  24  1  0.46147800  0.51667900  0.08510000  1
  C  25  1  0.49893700  0.53978900  0.05402300  1
  C  50  1  0.90153700  0.52072000  0.25282700  1
  C  51  1  0.96140850  0.56067750  0.24639750  1
  C  52  1  0.00438800  0.55789300  0.26787600  1
  C  53  1  0.98856700  0.51508500  0.29640500  1
  C  54  1  0.92880900  0.47149300  0.29999800  1
  C  55  1  0.88557850  0.47434850  0.27837500  1
  C  57  1  0.08751300  0.51529600  0.29598100  1
  C  58  1  0.06758750  0.46190050  0.27631400  1
  C  59  1  0.10614750  0.45247650  0.25428700  1
  C  60  1  0.16552650  0.49637550  0.25078250  1
  C  61  1  0.18423450  0.55157050  0.26736500  1
  C  62  1  0.14580750  0.56088450  0.28987300  1
  C  63  1  0.06957600  0.58390000  0.34854400  1
  C  64  1  0.01983000  0.47119700  0.35890050  1
  C  65  1  0.04916750  0.43936650  0.36614200  1
  C  66  1  0.03531500  0.40279500  0.39762100  1
  C  67  1  0.99260350  0.39799150  0.42337600  1
  C  68  1  0.96450000  0.43090100  0.41724950  1
  C  69  1  0.97792600  0.46696600  0.38552200  1
  C  70  1  0.04139950  0.61778050  0.35085400  1
  C  71  1  0.06330500  0.66745700  0.37405500  1
  C  72  1  0.11430150  0.68503850  0.39549300  1
  C  73  1  0.14088150  0.64986650  0.39480500  1
  C  74  1  0.11876200  0.60003600  0.37191900  1
  C  99  1  0.69176150  0.15490850  0.58642400  1
  C  100  1  0.67379550  0.09492250  0.58300600  1
  C  101  1  0.62812100  0.05325600  0.60520900  1
  C  102  1  0.59972150  0.07070950  0.63171900  1
  C  103  1  0.61376850  0.13009550  0.63206850  1
  C  104  1  0.65934850  0.17186350  0.60947600  1
  C  106  1  0.50199650  0.97069450  0.63496100  1
  C  107  1  0.46714750  0.98720450  0.61370450  1
  C  108  1  0.42022900  0.94587800  0.59210200  1
  C  109  1  0.40724450  0.88702550  0.59059500  1
  C  110  1  0.44486800  0.87151800  0.60907400  1
  C  111  1  0.49143100  0.91269500  0.63127300  1
  C  112  1  0.58965950  0.99604350  0.68809250  1
  C  113  1  0.52647050  0.04605250  0.69424050  1
  C  114  1  0.46550650  0.01803850  0.70190350  1
  C  115  1  0.44373800  0.03590400  0.73199700  1
  C  116  1  0.48244350  0.08128650  0.75602900  1
  C  117  1  0.54326350  0.10822350  0.74951800  1
  C  118  1  0.56491850  0.09097650  0.71905800  1
  C  119  1  0.65177300  0.02669300  0.69102900  1
  C  120  1  0.68034900  0.01250400  0.71887700  1
  C  121  1  0.64723600  0.96782100  0.74480550  1
  C  122  1  0.58564000  0.93617500  0.74192350  1
  C  123  1  0.55724350  0.95020050  0.71398000  1
  C  148  1  0.42698950  0.15910650  0.80981350  1
  C  149  1  0.41432750  0.14130450  0.84768050  1
  C  150  1  0.42750650  0.18217350  0.87628250  1
  C  151  1  0.45463200  0.24293400  0.86897600  1
  C  152  1  0.46571700  0.26044500  0.83090500  1
  C  153  1  0.45248500  0.21958900  0.80232950  1
  C  156  1  0.39208150  0.09605750  0.89921050  1
  C  158  1  0.49447500  0.30619000  0.77954450  1
  C  160  1  0.52340850  0.35456950  0.75236300  1
  C  161  1  0.49367950  0.39224950  0.75034300  1
  C  167  1  0.37145200  0.04835600  0.92700450  1
  C  168  1  0.40787250  0.01720750  0.92604300  1
  C  174  1  0.46960950  0.28444850  0.89797350  1
  C  175  1  0.42563050  0.12052550  0.78201600  1
  C  178  1  0.81692050  0.65183450  0.14199700  1
  C  179  1  0.80454950  0.66094250  0.17923100  1
  C  180  1  0.81870100  0.63716400  0.20971300  1
  C  181  1  0.84566400  0.60280200  0.20517100  1
  C  182  1  0.86077000  0.59623000  0.16807300  1
  C  183  1  0.84638900  0.61978200  0.13756800  1
  C  186  1  0.77419650  0.68154950  0.22850550  1
  C  188  1  0.88722600  0.57185900  0.11851600  1
  C  190  1  0.91026850  0.54421550  0.09293900  1
  C  191  1  0.97640550  0.56793850  0.09886300  1
  C  197  1  0.74615500  0.70438300  0.25391900  1
  C  198  1  0.67996000  0.67685500  0.24598550  1
  C  204  1  0.86018500  0.57948100  0.23631300  1
  C  205  1  0.79096100  0.66330700  0.11081600  1
  C  208  1  0.91800000  0.26921700  0.48047200  1
  C  209  1  0.93579300  0.27650200  0.51841750  1
  C  210  1  0.89473300  0.25279800  0.54729500  1
  C  211  1  0.83384250  0.22131750  0.54016400  1
  C  212  1  0.81621650  0.21237450  0.50207900  1
  C  213  1  0.85726250  0.23605750  0.47322400  1
  C  216  1  0.98130400  0.30150800  0.56982200  1
  C  218  1  0.77053250  0.19336150  0.45058100  1
  C  220  1  0.72229550  0.17347850  0.42324550  1
  C  221  1  0.68218400  0.10625400  0.42350650  1
  C  227  1  0.02930600  0.32856500  0.59741400  1
  C  228  1  0.06373350  0.39603350  0.59425000  1
  C  234  1  0.79247400  0.19793200  0.56942100  1
  C  235  1  0.95683100  0.30425600  0.45208850  1
  C  238  1  0.67714800  0.88250200  0.80759300  1
  C  239  1  0.68597550  0.90500250  0.84460100  1
  C  240  1  0.66266150  0.86798450  0.87553450  1
  C  241  1  0.62942700  0.80646200  0.87183400  1
  C  242  1  0.62326500  0.78372700  0.83506700  1
  C  243  1  0.64614100  0.82075900  0.80407750  1
  C  246  1  0.70513700  0.95740700  0.89318550  1
  C  248  1  0.60080700  0.73114800  0.78634300  1
  C  250  1  0.57503350  0.67942450  0.76156450  1
  C  251  1  0.60021300  0.63865600  0.76931600  1
  C  257  1  0.72478000  0.00906300  0.91758150  1
  C  258  1  0.69534550  0.04516850  0.90707100  1
  C  264  1  0.60790200  0.76961000  0.90355750  1
  C  265  1  0.68983800  0.91904400  0.77564950  1
  C  268  1  0.29504200  0.39850500  0.14403000  1
  C  269  1  0.29894650  0.38543450  0.18199300  1
  C  270  1  0.26966550  0.39758550  0.21006550  1
  C  271  1  0.23563700  0.42410000  0.20212000  1
  C  272  1  0.23091850  0.43606850  0.16394600  1
  C  273  1  0.26010550  0.42384150  0.13591550  1
  C  276  1  0.32017700  0.36260300  0.23392700  1
  C  278  1  0.21620250  0.46598750  0.11227900  1
  C  280  1  0.19831350  0.49589850  0.08481800  1
  C  281  1  0.13107200  0.46631300  0.08126300  1
  C  287  1  0.34654450  0.34195650  0.26222300  1
  C  288  1  0.41408850  0.37906650  0.26242500  1
  C  294  1  0.20705150  0.43762350  0.23056400  1
  C  295  1  0.33272250  0.39706550  0.11663950  1
  C  298  1  0.21828450  0.79465650  0.45961700  1
  C  299  1  0.18834900  0.77423800  0.49443500  1
  C  300  1  0.21844600  0.79092700  0.52858750  1
  C  301  1  0.27963500  0.82798900  0.53054300  1
  C  302  1  0.30924850  0.85067150  0.49624800  1
  C  303  1  0.27938750  0.83447650  0.46215000  1
  C  306  1  0.12810600  0.73081400  0.53891900  1
  C  308  1  0.37136400  0.89241600  0.45315900  1
  C  310  1  0.42779950  0.92571450  0.43340600  1
  C  311  1  0.45968900  0.99146000  0.44352500  1
  C  317  1  0.07296050  0.69394450  0.55933650  1
  C  318  1  0.04618250  0.62833450  0.54979550  1
  C  324  1  0.31019550  0.84324450  0.56487250  1
  C  325  1  0.19243000  0.77091900  0.42406600  1
  H  26  1  0.70938950  0.69616850  0.05852000  1
  H  27  1  0.63912350  0.65323150  0.00994800  1
  H  28  1  0.67621350  0.52906150  0.09208100  1
  H  29  1  0.60645650  0.48482250  0.04310000  1
  H  30  1  0.47765900  0.41223500  0.01828650  1
  H  31  1  0.41284500  0.37382000  0.06987700  1
  H  32  1  0.45803700  0.54473100  0.10341700  1
  H  33  1  0.52280500  0.58445300  0.05138400  1
  H  34  1  0.47029100  0.57032600  0.98635200  1
  H  35  1  0.47386100  0.64748600  0.94914000  1
  H  36  1  0.63101900  0.67576300  0.89918450  1
  H  37  1  0.62925100  0.60031500  0.93642950  1
  H  38  1  0.63462250  0.48922750  0.97238400  1
  H  39  1  0.46392050  0.45774950  0.94702000  1
  H  40  1  0.44829050  0.37837550  0.90810800  1
  H  41  1  0.61732000  0.40820300  0.93359600  1
  H  43  1  0.71046850  0.62136150  0.13377800  1
  H  45  1  0.40538650  0.45646950  0.14401300  1
  H  47  1  0.53005300  0.70703500  0.88228500  1
  H  49  1  0.55111450  0.34275350  0.87988800  1
  H  75  1  0.05784700  0.38109400  0.40232400  1
  H  76  1  0.08272900  0.44355200  0.34964700  1
  H  77  1  0.93386250  0.42862250  0.43588400  1
  H  78  1  0.95731350  0.49098250  0.38269300  1
  H  79  1  0.00328600  0.60608600  0.33685200  1
  H  80  1  0.04185600  0.69079700  0.37526050  1
  H  81  1  0.17579350  0.65941550  0.41185000  1
  H  82  1  0.13890650  0.57539050  0.37307950  1
  H  83  1  0.16155800  0.60126300  0.30178100  1
  H  84  1  0.22661200  0.58469400  0.26417700  1
  H  85  1  0.09051450  0.41311850  0.24086600  1
  H  86  1  0.02533100  0.42804000  0.27890500  1
  H  87  1  0.91541700  0.43858300  0.31928600  1
  H  88  1  0.04705000  0.59012400  0.26382800  1
  H  89  1  0.97392650  0.59394350  0.22736100  1
  H  90  1  0.84233250  0.44450950  0.28287500  1
  H  92  1  0.97166800  0.37893300  0.47730300  1
  H  94  1  0.10582650  0.73390650  0.43534500  1
  H  96  1  0.22899550  0.51874550  0.21256350  1
  H  98  1  0.83950450  0.50044650  0.21431100  1
  H  124  1  0.39962150  0.01423450  0.73713400  1
  H  125  1  0.43566300  0.98275700  0.68677650  1
  H  126  1  0.57218250  0.14082150  0.76690500  1
  H  127  1  0.60946050  0.11113050  0.71586200  1
  H  128  1  0.67746050  0.06267750  0.67496650  1
  H  129  1  0.72482300  0.03760600  0.72187900  1
  H  130  1  0.56106200  0.90498400  0.76148150  1
  H  131  1  0.51235700  0.92855300  0.71438950  1
  H  132  1  0.51734100  0.89941700  0.64431600  1
  H  133  1  0.43781550  0.82974450  0.60700400  1
  H  134  1  0.39605300  0.95935000  0.57702150  1
  H  135  1  0.47421150  0.02915050  0.61438650  1
  H  136  1  0.59293700  0.14443900  0.64962850  1
  H  137  1  0.61907750  0.01069850  0.60346800  1
  H  138  1  0.69565250  0.08150750  0.56553150  1
  H  139  1  0.67116150  0.21510250  0.61169450  1
  H  141  1  0.48512650  0.10707650  0.80899400  1
  H  143  1  0.65918650  0.96799350  0.79901650  1
  H  145  1  0.37519550  0.82821450  0.54923000  1
  H  147  1  0.73380050  0.21985650  0.54940900  1
  H  162  1  0.52284350  0.33707850  0.72443650  1
  H  163  1  0.56906800  0.38219600  0.76080300  1
  H  164  1  0.44793550  0.36552650  0.74184850  1
  H  165  1  0.51627000  0.42720700  0.72976800  1
  H  166  1  0.49554750  0.41216550  0.77758500  1
  H  169  1  0.32566300  0.01657700  0.92101700  1
  H  170  1  0.37377500  0.06573200  0.95521450  1
  H  171  1  0.40461000  0.99740300  0.89856000  1
  H  172  1  0.39146050  0.98263150  0.94720900  1
  H  173  1  0.45387050  0.04823950  0.93203400  1
  H  192  1  0.90288750  0.55185050  0.06380000  1
  H  193  1  0.88639600  0.49699900  0.09792300  1
  H  194  1  0.00116600  0.61513700  0.09389200  1
  H  195  1  0.99167650  0.54661850  0.07925300  1
  H  196  1  0.98494400  0.55902700  0.12741550  1
  H  199  1  0.76753050  0.75182950  0.25032500  1
  H  200  1  0.75212450  0.69548750  0.28306800  1
  H  201  1  0.67258550  0.68679350  0.21742000  1
  H  202  1  0.66087300  0.69458000  0.26554600  1
  H  203  1  0.65772750  0.62935450  0.24956150  1
  H  222  1  0.74004750  0.18746250  0.39499000  1
  H  223  1  0.69634450  0.19402550  0.43018600  1
  H  224  1  0.70720500  0.08473300  0.41655350  1
  H  225  1  0.64743000  0.09353700  0.40273000  1
  H  226  1  0.66198450  0.09118150  0.45106950  1
  H  229  1  0.05908400  0.31166500  0.59267500  1
  H  230  1  0.01172150  0.31642650  0.62585500  1
  H  231  1  0.08380100  0.40960300  0.56653000  1
  H  232  1  0.09842100  0.41422000  0.61534400  1
  H  233  1  0.03473900  0.41387900  0.59893950  1
  H  252  1  0.58313000  0.69331700  0.73220750  1
  H  253  1  0.52770000  0.65517200  0.76603300  1
  H  254  1  0.64756550  0.66201050  0.76492950  1
  H  255  1  0.58027100  0.60126100  0.75022450  1
  H  256  1  0.59084600  0.62226200  0.79811400  1
  H  259  1  0.77225250  0.03656950  0.91493350  1
  H  260  1  0.71471000  0.99525300  0.94686900  1
  H  261  1  0.70637750  0.06147650  0.87832350  1
  H  262  1  0.71060400  0.08262600  0.92595000  1
  H  263  1  0.64777100  0.01839800  0.90960750  1
  H  282  1  0.21679500  0.49630400  0.05726500  1
  H  283  1  0.21588250  0.54125450  0.09381200  1
  H  284  1  0.11251400  0.42087800  0.07219150  1
  H  285  1  0.11989150  0.48965450  0.06053100  1
  H  286  1  0.11151650  0.46724450  0.10811600  1
  H  289  1  0.33333167  0.29641167  0.25604700  1
  H  290  1  0.33017650  0.34352050  0.29015100  1
  H  291  1  0.43194050  0.37658750  0.23525200  1
  H  292  1  0.43170750  0.36260950  0.28392500  1
  H  293  1  0.42826200  0.42483100  0.26862900  1
  H  312  1  0.42074800  0.92101800  0.40306400  1
  H  313  1  0.45551950  0.90741250  0.44104100  1
  H  314  1  0.43283250  0.01077150  0.43598000  1
  H  315  1  0.50099950  0.01435450  0.42815750  1
  H  316  1  0.46925400  0.99766500  0.47355300  1
  H  319  1  0.04178550  0.70817150  0.55194850  1
  H  320  1  0.08071100  0.69976200  0.58958600  1
  H  321  1  0.03599250  0.62076050  0.51989800  1
  H  322  1  0.00571850  0.60275050  0.56566100  1
  H  323  1  0.07659050  0.61313150  0.55717100  1
  N  42  1  0.73168150  0.63948550  0.11061400  1
  N  44  1  0.39144450  0.43394450  0.12073900  1
  N  46  1  0.55825350  0.71620550  0.90249950  1
  N  48  1  0.52000300  0.33730700  0.89712200  1
  N  91  1  0.97889300  0.36327800  0.45429100  1
  N  93  1  0.13447400  0.73205800  0.41909200  1
  N  95  1  0.20300950  0.48713050  0.22939900  1
  N  97  1  0.86040500  0.52796500  0.23455300  1
  N  140  1  0.46239050  0.09848450  0.78581000  1
  N  142  1  0.67289450  0.96013350  0.77547100  1
  N  144  1  0.36375750  0.84773250  0.56790800  1
  N  146  1  0.73961150  0.19526650  0.56734250  1
  N  154  1  0.41326800  0.15259700  0.90850250  1
  N  157  1  0.47201750  0.24946850  0.77039150  1
  N  184  1  0.79904950  0.65061050  0.24040300  1
  N  187  1  0.86233050  0.60275950  0.10670900  1
  N  214  1  0.92447400  0.26926000  0.57943250  1
  N  217  1  0.82746500  0.22463200  0.44117000  1
  N  244  1  0.67481600  0.90195000  0.90572000  1
  N  247  1  0.63044950  0.78659350  0.77375750  1
  N  274  1  0.28391250  0.38298350  0.24255900  1
  N  277  1  0.25116300  0.44407100  0.10380100  1
  N  304  1  0.17996400  0.76336900  0.55597950  1
  N  307  1  0.31980150  0.86095250  0.43551100  1
  O  155  1  0.39191200  0.08601800  0.86144450  1
  O  159  1  0.49172100  0.31602400  0.81703500  1
  O  176  1  0.43087000  0.27078800  0.92648500  1
  O  177  1  0.40507100  0.12374000  0.74774500  1
  O  185  1  0.77589900  0.68935800  0.19039050  1
  O  189  1  0.88799350  0.56648850  0.15669300  1
  O  206  1  0.88595150  0.61611250  0.26576000  1
  O  207  1  0.82087450  0.67789750  0.07792800  1
  O  215  1  0.99137650  0.30825150  0.53190850  1
  O  219  1  0.76052600  0.18389100  0.48832550  1
  O  236  1  0.80377950  0.17050850  0.59763950  1
  O  237  1  0.95223800  0.27820100  0.41846600  1
  O  245  1  0.71416900  0.96234700  0.85518750  1
  O  249  1  0.59515500  0.72634700  0.82454100  1
  O  266  1  0.64438850  0.78397150  0.93345050  1
  O  267  1  0.69961450  0.90016550  0.74247500  1
  O  275  1  0.33163900  0.36321500  0.19634750  1
  O  279  1  0.20164550  0.46202250  0.14948100  1
  O  296  1  0.18199650  0.39860150  0.25893450  1
  O  297  1  0.30930600  0.37662400  0.08227100  1
  O  305  1  0.13062650  0.73485050  0.50057550  1
  O  309  1  0.36775700  0.88783800  0.49139500  1
  O  326  1  0.28949700  0.86340400  0.59245100  1
  O  327  1  0.22862700  0.77590500  0.39544100  1
  Si  7  1  0.55585850  0.53161750  0.99456600  1
  Si  56  1  0.04113850  0.52105550  0.32488300  1
  Si  105  1  0.55423700  0.02088500  0.66205000  1
