# generated using pymatgen
data_H8C14N
_symmetry_space_group_name_H-M   'P 1'
_cell_length_a   26.60480000
_cell_length_b   31.52097533
_cell_length_c   31.52675458
_cell_angle_alpha   79.73357688
_cell_angle_beta   65.04110171
_cell_angle_gamma   65.03960641
_symmetry_Int_Tables_number   1
_chemical_formula_structural   H8C14N
_chemical_formula_sum   'H128 C224 N16'
_cell_volume   21730.78080590
_cell_formula_units_Z   16
loop_
 _symmetry_equiv_pos_site_id
 _symmetry_equiv_pos_as_xyz
  1  'x, y, z'
loop_
 _atom_site_type_symbol
 _atom_site_label
 _atom_site_symmetry_multiplicity
 _atom_site_fract_x
 _atom_site_fract_y
 _atom_site_fract_z
 _atom_site_occupancy
  C  1  1  0.20776500  0.35384750  0.12514350  1
  C  2  1  0.25384100  0.37104700  0.10554900  1
  C  3  1  0.31151350  0.34708350  0.10691750  1
  C  4  1  0.31799500  0.30691050  0.13640450  1
  C  5  1  0.27047150  0.29038250  0.16227650  1
  C  6  1  0.21679300  0.31376700  0.15365000  1
  C  10  1  0.77241550  0.65253800  0.69726700  1
  C  11  1  0.81605550  0.63539700  0.71689900  1
  C  12  1  0.85112750  0.65937950  0.71549450  1
  C  13  1  0.84695450  0.69951150  0.68595650  1
  C  14  1  0.80879250  0.71599750  0.66007250  1
  C  15  1  0.76989500  0.69258550  0.66870950  1
  C  19  1  0.55850700  0.21742850  0.56031950  1
  C  20  1  0.62178750  0.19781450  0.54314150  1
  C  21  1  0.65544900  0.19901550  0.56722650  1
  C  22  1  0.62176150  0.22841150  0.60744950  1
  C  23  1  0.55772200  0.25432150  0.62394650  1
  C  24  1  0.52744200  0.24577400  0.60050200  1
  C  28  1  0.42184800  0.78900300  0.26203900  1
  C  29  1  0.44836750  0.80864200  0.27916300  1
  C  30  1  0.50734650  0.80738200  0.25510300  1
  C  31  1  0.54327900  0.77793950  0.21491650  1
  C  32  1  0.52161950  0.75204550  0.19843250  1
  C  33  1  0.45933450  0.76063650  0.22186750  1
  C  37  1  0.87426200  0.78886100  0.56020600  1
  C  38  1  0.82816200  0.80847450  0.54301950  1
  C  39  1  0.77040500  0.80728500  0.56709600  1
  C  40  1  0.76384150  0.77790200  0.60734200  1
  C  41  1  0.81136100  0.75200750  0.62386550  1
  C  42  1  0.86509400  0.76054700  0.60041800  1
  C  46  1  0.30904900  0.21739600  0.26206000  1
  C  47  1  0.26542150  0.19773800  0.27920000  1
  C  48  1  0.23050100  0.19899250  0.25514750  1
  C  49  1  0.23478000  0.22840850  0.21493150  1
  C  50  1  0.27289550  0.25433200  0.19844500  1
  C  51  1  0.31172500  0.24577600  0.22189000  1
  C  55  1  0.52336950  0.35373050  0.69734750  1
  C  56  1  0.46009500  0.37091950  0.71697250  1
  C  57  1  0.42638450  0.34697850  0.71555550  1
  C  58  1  0.46005750  0.30685700  0.68601300  1
  C  59  1  0.52410150  0.29035700  0.66012100  1
  C  60  1  0.55440750  0.31369950  0.66879250  1
  C  64  1  0.66000400  0.65250100  0.12513100  1
  C  65  1  0.63350300  0.63539950  0.10546150  1
  C  66  1  0.57445900  0.65940150  0.10684650  1
  C  67  1  0.53850650  0.69953000  0.13637700  1
  C  68  1  0.56018150  0.71600150  0.16226750  1
  C  69  1  0.62247450  0.69254950  0.15366950  1
  C  145  1  0.08509350  0.52209350  0.77121150  1
  C  146  1  0.13666600  0.48436600  0.77121900  1
  C  147  1  0.12940450  0.47127050  0.81749650  1
  C  149  1  0.04607450  0.53516900  0.81748700  1
  C  150  1  0.98937550  0.57414650  0.83192850  1
  C  151  1  0.95358450  0.58865550  0.87966450  1
  C  153  1  0.91381250  0.58871700  0.95852500  1
  C  154  1  0.87391100  0.62675250  0.94331250  1
  C  155  1  0.89939750  0.62779800  0.89516200  1
  C  156  1  0.90423300  0.57476000  0.00587600  1
  C  157  1  0.94691850  0.53585400  0.01943000  1
  C  159  1  0.02652150  0.47048750  0.01943050  1
  C  160  1  0.98704650  0.48256500  0.06587100  1
  C  161  1  0.93983650  0.52363750  0.06587250  1
  C  162  1  0.08285250  0.43168500  0.00589000  1
  C  163  1  0.12062550  0.41773100  0.95853900  1
  C  165  1  0.15971050  0.41777050  0.87966850  1
  C  166  1  0.19845200  0.37868950  0.89519250  1
  C  167  1  0.17579000  0.37975150  0.94333950  1
  C  168  1  0.17171900  0.43234100  0.83193500  1
  C  169  1  0.23373100  0.41181650  0.79932450  1
  C  170  1  0.27780950  0.41612400  0.81008200  1
  C  171  1  0.33921600  0.39073300  0.78561100  1
  C  172  1  0.36186650  0.36531000  0.74400400  1
  C  173  1  0.31752550  0.36209700  0.73230100  1
  C  174  1  0.25500600  0.38373200  0.76002900  1
  C  175  1  0.10604350  0.41116000  0.04171500  1
  C  176  1  0.11311100  0.44025850  0.06637550  1
  C  177  1  0.13539900  0.42232150  0.10167350  1
  C  178  1  0.15965050  0.37343450  0.10902750  1
  C  179  1  0.14996300  0.34443700  0.08620000  1
  C  180  1  0.12141350  0.36334550  0.05432350  1
  C  181  1  0.84517650  0.59524850  0.04166350  1
  C  182  1  0.81339000  0.56615700  0.06621400  1
  C  183  1  0.75581000  0.58406400  0.10153300  1
  C  184  1  0.72423950  0.63294150  0.10894750  1
  C  185  1  0.75678850  0.66193150  0.08621450  1
  C  186  1  0.81721200  0.64304150  0.05434050  1
  C  187  1  0.95995400  0.59465950  0.79932050  1
  C  188  1  0.90512700  0.59032950  0.81008550  1
  C  189  1  0.97797250  0.62274150  0.76000950  1
  C  190  1  0.94319450  0.64434600  0.73226600  1
  C  191  1  0.88719450  0.64106350  0.74394350  1
  C  192  1  0.86822350  0.61566050  0.78557450  1
  C  219  1  0.46407700  0.48431650  0.05116150  1
  C  220  1  0.47820650  0.52190250  0.05112750  1
  C  221  1  0.50385100  0.53512550  0.00484950  1
  C  223  1  0.48432550  0.47126550  0.00489250  1
  C  224  1  0.48094400  0.43233450  0.99045450  1
  C  225  1  0.50739000  0.41780000  0.94273200  1
  C  227  1  0.54643050  0.41776600  0.86387100  1
  C  228  1  0.52920100  0.37980550  0.87909850  1
  C  229  1  0.50755900  0.37878150  0.92724850  1
  C  230  1  0.57033100  0.43166400  0.81650600  1
  C  231  1  0.58790200  0.47045200  0.80295400  1
  C  233  1  0.60221800  0.53579300  0.80291700  1
  C  234  1  0.62153350  0.52355750  0.75648050  1
  C  235  1  0.61540200  0.48247550  0.75651050  1
  C  236  1  0.60604200  0.57468600  0.81644400  1
  C  237  1  0.58246400  0.58869400  0.86378200  1
  C  239  1  0.54270050  0.58868400  0.94265100  1
  C  240  1  0.55776600  0.62781800  0.92711700  1
  C  241  1  0.58429800  0.62675800  0.87896800  1
  C  242  1  0.52156000  0.57411600  0.99038600  1
  C  243  1  0.53045800  0.59465150  0.02298250  1
  C  244  1  0.58957050  0.59047250  0.01215650  1
  C  245  1  0.60110100  0.61581400  0.03668700  1
  C  246  1  0.55672650  0.64113650  0.07834950  1
  C  247  1  0.49748800  0.64430000  0.09006600  1
  C  248  1  0.48435000  0.62267900  0.06231600  1
  C  249  1  0.64460000  0.59518450  0.78064350  1
  C  250  1  0.70546450  0.56609150  0.75609850  1
  C  251  1  0.74514550  0.58399900  0.72079500  1
  C  252  1  0.72785400  0.63286950  0.71334050  1
  C  253  1  0.66628950  0.66186900  0.73598600  1
  C  254  1  0.62479850  0.64297700  0.76795700  1
  C  255  1  0.56773750  0.41110750  0.78066650  1
  C  256  1  0.53165250  0.44019100  0.75592900  1
  C  257  1  0.52732000  0.42222950  0.72063950  1
  C  258  1  0.55191900  0.37333400  0.71344400  1
  C  259  1  0.59057600  0.34430500  0.73627500  1
  C  260  1  0.60018100  0.36327200  0.76813200  1
  C  261  1  0.43937950  0.41190000  0.02313500  1
  C  262  1  0.39092500  0.41629700  0.01242400  1
  C  263  1  0.44632000  0.38364650  0.06232150  1
  C  264  1  0.40540200  0.36204050  0.09006550  1
  C  265  1  0.35769000  0.36543000  0.07846900  1
  C  266  1  0.35483200  0.39096600  0.03692000  1
  C  293  1  0.60375800  0.86326850  0.39236650  1
  C  294  1  0.61792650  0.86325550  0.42991650  1
  C  295  1  0.59762050  0.90953950  0.44298050  1
  C  297  1  0.57800800  0.90955100  0.37918400  1
  C  298  1  0.56018950  0.92399800  0.34025500  1
  C  299  1  0.53893450  0.97173950  0.32571150  1
  C  301  1  0.49913300  0.05062350  0.32569650  1
  C  302  1  0.49712400  0.03542000  0.28773300  1
  C  303  1  0.52367750  0.98726300  0.28667200  1
  C  304  1  0.47562000  0.09797550  0.33965650  1
  C  305  1  0.47961700  0.11152200  0.37844700  1
  C  307  1  0.49417050  0.11151550  0.44365750  1
  C  308  1  0.46668500  0.15796350  0.43161250  1
  C  309  1  0.46040500  0.15797200  0.39060800  1
  C  310  1  0.51183550  0.09798000  0.48239200  1
  C  311  1  0.53569250  0.05061500  0.49632600  1
  C  313  1  0.57465900  0.97173450  0.49636250  1
  C  314  1  0.57452750  0.98724600  0.53534400  1
  C  315  1  0.55293800  0.03540200  0.53427500  1
  C  316  1  0.60104300  0.92399300  0.48187900  1
  C  317  1  0.64255200  0.89128950  0.50235150  1
  C  318  1  0.69106050  0.90193050  0.49795950  1
  C  319  1  0.72715550  0.87736250  0.52327150  1
  C  320  1  0.72421900  0.83581750  0.54879050  1
  C  321  1  0.67643300  0.82430700  0.55220400  1
  C  322  1  0.63553350  0.85211750  0.53060250  1
  C  323  1  0.51440650  0.13384200  0.50293500  1
  C  324  1  0.55043500  0.15861500  0.47384800  1
  C  325  1  0.55468350  0.19396450  0.49179750  1
  C  326  1  0.53010200  0.20123400  0.54067400  1
  C  327  1  0.49151400  0.17831900  0.56968000  1
  C  328  1  0.48195600  0.14640050  0.55075150  1
  C  329  1  0.43700300  0.13378800  0.31920800  1
  C  330  1  0.37618050  0.15839350  0.34835750  1
  C  331  1  0.33645250  0.19373950  0.33051150  1
  C  332  1  0.35373000  0.20113050  0.28165350  1
  C  333  1  0.41522350  0.17844600  0.25255200  1
  C  334  1  0.45673750  0.14643050  0.27140350  1
  C  335  1  0.55130550  0.89135350  0.31977050  1
  C  336  1  0.49216700  0.90207350  0.32408850  1
  C  337  1  0.59744600  0.85209050  0.29164950  1
  C  338  1  0.58431750  0.82430050  0.27006350  1
  C  339  1  0.52504250  0.83590150  0.27337950  1
  C  340  1  0.48062150  0.87750600  0.29879400  1
  C  367  1  0.94514000  0.14311100  0.43006200  1
  C  368  1  0.99673400  0.14311750  0.39236650  1
  C  369  1  0.03574750  0.09683400  0.37928700  1
  C  371  1  0.95238000  0.09682300  0.44312200  1
  C  372  1  0.91001900  0.08238200  0.48200000  1
  C  373  1  0.92197100  0.03463200  0.49652000  1
  C  375  1  0.96104600  0.95574950  0.49652450  1
  C  376  1  0.90581600  0.97094250  0.53443450  1
  C  377  1  0.88315450  0.01909850  0.53552150  1
  C  378  1  0.99884950  0.90839250  0.48258450  1
  C  379  1  0.05524500  0.89484800  0.44385400  1
  C  381  1  0.13493900  0.89485150  0.37858650  1
  C  382  1  0.14201500  0.84840200  0.39079100  1
  C  383  1  0.09474850  0.84840150  0.43180850  1
  C  384  1  0.17766000  0.90841150  0.33972850  1
  C  385  1  0.16809500  0.95577350  0.32579150  1
  C  387  1  0.12830900  0.03464950  0.32585350  1
  C  388  1  0.18254400  0.01915250  0.28675850  1
  C  389  1  0.20803450  0.97099500  0.28780600  1
  C  390  1  0.09247350  0.08239450  0.34034350  1
  C  391  1  0.12185300  0.11503250  0.31983850  1
  C  392  1  0.17662950  0.10434250  0.32421950  1
  C  393  1  0.21348800  0.12889550  0.29890450  1
  C  394  1  0.19452250  0.17047550  0.27343550  1
  C  395  1  0.13855750  0.18209000  0.27012200  1
  C  396  1  0.10382800  0.15430850  0.29172050  1
  C  397  1  0.23671200  0.87260950  0.31924150  1
  C  398  1  0.26848500  0.84800400  0.34832800  1
  C  399  1  0.32604700  0.81265700  0.33042400  1
  C  400  1  0.35759000  0.80530000  0.28154600  1
  C  401  1  0.32508450  0.82807100  0.25254500  1
  C  402  1  0.26467100  0.85997150  0.27144550  1
  C  403  1  0.97567200  0.87255000  0.50306500  1
  C  404  1  0.96871450  0.84784950  0.47392550  1
  C  405  1  0.94649250  0.81250100  0.49181300  1
  C  406  1  0.92222050  0.80517450  0.54068550  1
  C  407  1  0.93176300  0.82802500  0.56975400  1
  C  408  1  0.96024500  0.85995100  0.55087800  1
  C  409  1  0.84803050  0.11503450  0.50251750  1
  C  410  1  0.80392300  0.10438800  0.49811900  1
  C  411  1  0.82681000  0.15427050  0.53066650  1
  C  412  1  0.76430900  0.18206300  0.55227200  1
  C  413  1  0.71993950  0.17049350  0.54893350  1
  C  414  1  0.74251950  0.12893250  0.52345850  1
  H  7  1  0.35913250  0.28888150  0.13821050  1
  H  8  1  0.18150950  0.30346500  0.17002800  1
  H  9  1  0.24566350  0.40160850  0.08730250  1
  H  16  1  0.87184650  0.71756400  0.68415000  1
  H  17  1  0.74072500  0.70284950  0.65230050  1
  H  18  1  0.82017400  0.60486600  0.73519900  1
  H  25  1  0.64485400  0.23008250  0.62555950  1
  H  26  1  0.48185300  0.26212550  0.61082150  1
  H  27  1  0.64419900  0.17958650  0.51257550  1
  H  34  1  0.58617500  0.77622500  0.19682000  1
  H  35  1  0.44039950  0.74430450  0.21154350  1
  H  36  1  0.42197550  0.82693200  0.30969100  1
  H  43  1  0.72263850  0.77622800  0.62544800  1
  H  44  1  0.90034200  0.74422350  0.61076750  1
  H  45  1  0.83632800  0.82669600  0.51244600  1
  H  52  1  0.20997750  0.23011600  0.19684100  1
  H  53  1  0.34095050  0.26214000  0.21157800  1
  H  54  1  0.26126450  0.17947900  0.30975400  1
  H  61  1  0.43693800  0.28885200  0.68417800  1
  H  62  1  0.59999000  0.30341600  0.65240700  1
  H  63  1  0.43773850  0.40144167  0.73528533  1
  H  70  1  0.49556800  0.71758150  0.13817650  1
  H  71  1  0.64141350  0.70287000  0.17000100  1
  H  72  1  0.65992600  0.60490600  0.08710900  1
  H  193  1  0.82652800  0.61447050  0.79908550  1
  H  194  1  0.88880500  0.57156650  0.83876650  1
  H  195  1  0.95945750  0.66247800  0.70310700  1
  H  196  1  0.01686800  0.62754150  0.75122250  1
  H  197  1  0.07905750  0.53814150  0.74161750  1
  H  198  1  0.17242100  0.46844950  0.74163050  1
  H  199  1  0.05788750  0.50320050  0.87715950  1
  H  200  1  0.01684000  0.50328200  0.95942100  1
  H  201  1  0.87913550  0.65222100  0.87516600  1
  H  202  1  0.83286850  0.65041300  0.96306700  1
  H  203  1  0.83185700  0.53130700  0.05828100  1
  H  204  1  0.73407700  0.56173100  0.11670100  1
  H  205  1  0.83887600  0.66510100  0.03742700  1
  H  206  1  0.73541100  0.69755300  0.08945800  1
  H  207  1  0.90553200  0.54067000  0.09562100  1
  H  208  1  0.99164950  0.46556050  0.09561950  1
  H  209  1  0.23876500  0.35431500  0.87521900  1
  H  210  1  0.19712700  0.35614850  0.96310250  1
  H  211  1  0.10247750  0.47513250  0.05851450  1
  H  212  1  0.14185100  0.44460150  0.11699450  1
  H  213  1  0.11684700  0.34126300  0.03730000  1
  H  214  1  0.16822900  0.30881150  0.08936050  1
  H  215  1  0.22488550  0.37896000  0.75123600  1
  H  216  1  0.33040650  0.34397200  0.70314900  1
  H  217  1  0.36740150  0.39188450  0.79914250  1
  H  218  1  0.26549200  0.43484550  0.83877450  1
  H  267  1  0.32539950  0.39223500  0.02343500  1
  H  268  1  0.38443550  0.43514400  0.98380100  1
  H  269  1  0.41074950  0.34379500  0.11914800  1
  H  270  1  0.48132250  0.37874350  0.07102950  1
  H  271  1  0.44480850  0.46810950  0.08075650  1
  H  272  1  0.46845100  0.53783150  0.08070750  1
  H  273  1  0.52358000  0.50334700  0.94520300  1
  H  274  1  0.56473750  0.50329450  0.86294250  1
  H  275  1  0.49168350  0.35437950  0.94725050  1
  H  276  1  0.53142500  0.35621050  0.85935750  1
  H  277  1  0.50743600  0.47507100  0.76374300  1
  H  278  1  0.49860400  0.44447500  0.70528700  1
  H  279  1  0.62664700  0.34119550  0.78529950  1
  H  280  1  0.60774100  0.30867500  0.73327600  1
  H  281  1  0.62784900  0.46544250  0.72677050  1
  H  282  1  0.63893050  0.54052500  0.72671700  1
  H  283  1  0.55358450  0.65226700  0.94709000  1
  H  284  1  0.60168450  0.65041650  0.85919850  1
  H  285  1  0.72183900  0.53123650  0.76402850  1
  H  286  1  0.78922050  0.56172350  0.70556350  1
  H  287  1  0.58108250  0.66505600  0.78485400  1
  H  288  1  0.65208750  0.69749550  0.73287650  1
  H  289  1  0.44068200  0.62738050  0.07114450  1
  H  290  1  0.46309750  0.66235900  0.11926000  1
  H  291  1  0.64395900  0.61469000  0.02317300  1
  H  292  1  0.62466900  0.57175350  0.98346550  1
  H  341  1  0.43772200  0.89095650  0.30001650  1
  H  342  1  0.45704550  0.93072400  0.34287300  1
  H  343  1  0.61874400  0.79516450  0.25191850  1
  H  344  1  0.64113050  0.84334800  0.28684600  1
  H  345  1  0.61354300  0.83367500  0.37643600  1
  H  346  1  0.63728000  0.83366100  0.44608500  1
  H  347  1  0.55818150  0.96922550  0.41097750  1
  H  348  1  0.51712550  0.05149750  0.41094550  1
  H  349  1  0.52776500  0.96727700  0.26228100  1
  H  350  1  0.47962250  0.05518450  0.26413450  1
  H  351  1  0.35987550  0.15048700  0.38321700  1
  H  352  1  0.29240800  0.20903100  0.35281400  1
  H  353  1  0.50042250  0.12948700  0.24929500  1
  H  354  1  0.42934550  0.18155400  0.21693700  1
  H  355  1  0.44297150  0.18773400  0.37364900  1
  H  356  1  0.45431200  0.18771850  0.44859150  1
  H  357  1  0.59039400  0.96725400  0.55975400  1
  H  358  1  0.55074850  0.05516200  0.55783400  1
  H  359  1  0.57465150  0.15080200  0.43897200  1
  H  360  1  0.58335000  0.20935100  0.46953600  1
  H  361  1  0.45551450  0.12922150  0.57283750  1
  H  362  1  0.47430950  0.18134300  0.60530400  1
  H  363  1  0.60049450  0.84345700  0.53549600  1
  H  364  1  0.67103750  0.79523150  0.57044150  1
  H  365  1  0.75668350  0.89076250  0.52197950  1
  H  366  1  0.69761350  0.93053350  0.47910850  1
  H  415  1  0.71428150  0.11550850  0.52221450  1
  H  416  1  0.81620450  0.07574000  0.47934800  1
  H  417  1  0.75146400  0.21117500  0.57044900  1
  H  418  1  0.85695600  0.16297500  0.53550400  1
  H  419  1  0.90938250  0.17270400  0.44597300  1
  H  420  1  0.00279100  0.17271800  0.37634700  1
  H  421  1  0.02389150  0.03714950  0.41119150  1
  H  422  1  0.06494250  0.95487100  0.41109200  1
  H  423  1  0.84280550  0.03907050  0.55986550  1
  H  424  1  0.88444300  0.95117100  0.55798300  1
  H  425  1  0.97940400  0.85570600  0.43905400  1
  H  426  1  0.94013900  0.79713100  0.46950800  1
  H  427  1  0.96474450  0.87700050  0.57297950  1
  H  428  1  0.91346900  0.82484700  0.60536800  1
  H  429  1  0.09012550  0.81864450  0.44879050  1
  H  430  1  0.17634450  0.81864250  0.37378250  1
  H  431  1  0.20282550  0.03915250  0.26236150  1
  H  432  1  0.24910250  0.95123750  0.26417350  1
  H  433  1  0.25000600  0.85590900  0.38318200  1
  H  434  1  0.34776400  0.79742850  0.35275550  1
  H  435  1  0.24301100  0.87692400  0.24939200  1
  H  436  1  0.34646900  0.82484500  0.21693100  1
  H  437  1  0.06496050  0.16304300  0.28689600  1
  H  438  1  0.12229100  0.21122400  0.25195900  1
  H  439  1  0.25515350  0.11544900  0.30014700  1
  H  440  1  0.19294600  0.07568950  0.34301650  1
  N  148  1  0.07468150  0.50319950  0.84356950  1
  N  152  1  0.96108000  0.56739150  0.91911350  1
  N  158  1  0.99997100  0.50319700  0.99297700  1
  N  164  1  0.11276250  0.43903450  0.91911450  1
  N  222  1  0.50699950  0.50325250  0.97879150  1
  N  226  1  0.53312050  0.43902950  0.90326950  1
  N  232  1  0.58174750  0.50317100  0.82938800  1
  N  238  1  0.55655950  0.56736050  0.90321350  1
  N  296  1  0.57486150  0.93562950  0.41103650  1
  N  300  1  0.52515800  0.01119300  0.34697600  1
  N  306  1  0.50018250  0.08506000  0.41102400  1
  N  312  1  0.54895950  0.01119550  0.47510950  1
  N  370  1  0.00711350  0.07074450  0.41121450  1
  N  374  1  0.96894850  0.99518300  0.47528200  1
  N  380  1  0.08183600  0.92130800  0.41119300  1
  N  386  1  0.12080250  0.99519050  0.34709250  1
