# generated using pymatgen
data_H24C35N4
_symmetry_space_group_name_H-M   'P 1'
_cell_length_a   21.98930000
_cell_length_b   44.75830000
_cell_length_c   44.75830000
_cell_angle_alpha   60.00000000
_cell_angle_beta   90.00000000
_cell_angle_gamma   90.03410000
_symmetry_Int_Tables_number   1
_chemical_formula_structural   H24C35N4
_chemical_formula_sum   'H288 C420 N48'
_cell_volume   38149.52187265
_cell_formula_units_Z   12
loop_
 _symmetry_equiv_pos_site_id
 _symmetry_equiv_pos_as_xyz
  1  'x, y, z'
loop_
 _atom_site_type_symbol
 _atom_site_label
 _atom_site_symmetry_multiplicity
 _atom_site_fract_x
 _atom_site_fract_y
 _atom_site_fract_z
 _atom_site_occupancy
  C  1  1  0.49550500  0.46838600  0.51883900  1
  C  2  1  0.54603900  0.48733400  0.49829400  1
  C  5  1  0.90079800  0.93432000  0.50174100  1
  C  6  1  0.88433000  0.91729600  0.48347100  1
  C  7  1  0.83634500  0.89331350  0.49472450  1
  C  8  1  0.80326900  0.88424100  0.52535300  1
  C  9  1  0.81692900  0.90352400  0.54186300  1
  C  10  1  0.86492200  0.92753100  0.53073100  1
  C  11  1  0.75118000  0.85806600  0.53833300  1
  C  12  1  0.69592600  0.88194700  0.52571700  1
  C  13  1  0.66172200  0.89033500  0.54745400  1
  C  14  1  0.61241700  0.91339300  0.53492200  1
  C  15  1  0.59566400  0.92971000  0.49978100  1
  C  16  1  0.63156300  0.92344000  0.47734700  1
  C  17  1  0.68081000  0.90032700  0.49005800  1
  C  18  1  0.75376300  0.83231200  0.52524400  1
  C  19  1  0.75212700  0.83292200  0.57736000  1
  C  20  1  0.70040100  0.81205100  0.59410700  1
  C  21  1  0.70278700  0.78421700  0.62813900  1
  C  22  1  0.75780600  0.77551800  0.64681600  1
  C  23  1  0.80917700  0.79652400  0.63127300  1
  C  24  1  0.80652900  0.82417900  0.59716800  1
  C  25  1  0.80829300  0.81378500  0.52869800  1
  C  26  1  0.81014900  0.78560100  0.52309100  1
  C  27  1  0.75716800  0.77411500  0.51394000  1
  C  28  1  0.70270600  0.79258700  0.50979850  1
  C  29  1  0.70101400  0.82061550  0.51576450  1
  C  46  1  0.90047600  0.50156600  0.50303500  1
  C  47  1  0.88398900  0.48327900  0.53832350  1
  C  48  1  0.83608100  0.49454450  0.55106550  1
  C  49  1  0.80311900  0.52520600  0.52953200  1
  C  50  1  0.81677600  0.54172750  0.49373950  1
  C  51  1  0.86469100  0.53058600  0.48085100  1
  C  52  1  0.75106100  0.53815700  0.54274300  1
  C  53  1  0.69575700  0.52554350  0.53148350  1
  C  54  1  0.66160900  0.54727050  0.50133900  1
  C  55  1  0.61223500  0.53475200  0.49082100  1
  C  56  1  0.59535400  0.49962300  0.50966600  1
  C  57  1  0.63124500  0.47718200  0.53836300  1
  C  58  1  0.68056000  0.48988500  0.54875650  1
  C  59  1  0.75368700  0.52504200  0.58158700  1
  C  60  1  0.75202100  0.57717800  0.52887100  1
  C  61  1  0.70032800  0.59390100  0.53302100  1
  C  62  1  0.70267800  0.62794300  0.52679850  1
  C  63  1  0.75771500  0.64663800  0.51686500  1
  C  64  1  0.80911200  0.63110100  0.51145900  1
  C  65  1  0.80642900  0.59701500  0.51785100  1
  C  66  1  0.80823400  0.52851550  0.59665800  1
  C  67  1  0.81014100  0.52292050  0.63044450  1
  C  68  1  0.75718700  0.51376200  0.65109200  1
  C  69  1  0.70268300  0.50964100  0.63676450  1
  C  70  1  0.70095100  0.51559500  0.60277200  1
  C  87  1  0.90126100  0.50291550  0.93440550  1
  C  88  1  0.88486700  0.53820950  0.91738150  1
  C  89  1  0.83690300  0.55094050  0.89341550  1
  C  90  1  0.80379100  0.52939350  0.88433950  1
  C  91  1  0.81740800  0.49360300  0.90360500  1
  C  92  1  0.86534800  0.48072000  0.92761800  1
  C  93  1  0.75164000  0.54257950  0.85823750  1
  C  94  1  0.69642200  0.53129400  0.88217200  1
  C  95  1  0.66220900  0.50114300  0.89061600  1
  C  96  1  0.61289400  0.49061850  0.91369200  1
  C  97  1  0.59614500  0.50946550  0.92998450  1
  C  98  1  0.63211300  0.53816250  0.92370850  1
  C  99  1  0.68137400  0.54855900  0.90057550  1
  C  100  1  0.75420800  0.58142300  0.83250200  1
  C  101  1  0.75246300  0.52869750  0.83309550  1
  C  102  1  0.70069600  0.53280750  0.81227750  1
  C  103  1  0.70290200  0.52655000  0.78447750  1
  C  104  1  0.75790200  0.51668250  0.77564450  1
  C  105  1  0.80936800  0.51130050  0.79654150  1
  C  106  1  0.80681600  0.51771300  0.82422400  1
  C  107  1  0.80867600  0.59653900  0.81387100  1
  C  108  1  0.81050300  0.63033300  0.78568000  1
  C  109  1  0.75750600  0.65092000  0.77424500  1
  C  110  1  0.70307500  0.63655000  0.79277300  1
  C  111  1  0.70144500  0.60255950  0.82082150  1
  C  128  1  0.40097300  0.02492800  0.45776500  1
  C  129  1  0.38451500  0.04195150  0.47603050  1
  C  130  1  0.33658700  0.06593600  0.46476600  1
  C  131  1  0.30355300  0.07500900  0.43413250  1
  C  132  1  0.31724600  0.05576000  0.41759850  1
  C  133  1  0.36516900  0.03174600  0.42874750  1
  C  134  1  0.25144800  0.10113300  0.42119400  1
  C  135  1  0.19621200  0.07719900  0.43384150  1
  C  136  1  0.16201400  0.06878550  0.41211450  1
  C  137  1  0.11266200  0.04572600  0.42464900  1
  C  138  1  0.09582400  0.02944550  0.45978100  1
  C  139  1  0.13176000  0.03570250  0.48221750  1
  C  140  1  0.18105000  0.05882450  0.46950000  1
  C  141  1  0.25404400  0.12689400  0.43427100  1
  C  142  1  0.25235100  0.12626900  0.38217100  1
  C  143  1  0.20061400  0.14709950  0.36545250  1
  C  144  1  0.20293600  0.17494500  0.33142400  1
  C  145  1  0.25794400  0.18373750  0.31271350  1
  C  146  1  0.30936500  0.16281450  0.32823350  1
  C  147  1  0.30673200  0.13511100  0.36231900  1
  C  148  1  0.30854600  0.14547100  0.43082650  1
  C  149  1  0.31032900  0.17368100  0.43639700  1
  C  150  1  0.25732600  0.18510200  0.44556600  1
  C  151  1  0.20288800  0.16657550  0.44971850  1
  C  152  1  0.20125800  0.13854200  0.44375450  1
  C  169  1  0.40040400  0.45764500  0.45649200  1
  C  170  1  0.38396900  0.47589900  0.42120000  1
  C  171  1  0.33602300  0.46462200  0.40847800  1
  C  172  1  0.30294800  0.43398600  0.43003800  1
  C  173  1  0.31659100  0.41748000  0.46582800  1
  C  174  1  0.36454000  0.42864000  0.47869500  1
  C  175  1  0.25090000  0.42099150  0.41684350  1
  C  176  1  0.19561400  0.43361900  0.42808100  1
  C  177  1  0.16136600  0.41188600  0.45820200  1
  C  178  1  0.11201900  0.42441250  0.46871250  1
  C  179  1  0.09523800  0.45954350  0.44985950  1
  C  180  1  0.13118800  0.48198200  0.42116400  1
  C  181  1  0.18047000  0.46927200  0.41077700  1
  C  182  1  0.25359700  0.43404400  0.37801200  1
  C  183  1  0.25187800  0.38196100  0.43076800  1
  C  184  1  0.20018000  0.36521600  0.42661300  1
  C  185  1  0.20253100  0.33117300  0.43283500  1
  C  186  1  0.25756200  0.31251900  0.44275800  1
  C  187  1  0.30894600  0.32807850  0.44818200  1
  C  188  1  0.30625900  0.36215100  0.44182600  1
  C  189  1  0.30814600  0.43061100  0.36293200  1
  C  190  1  0.31004200  0.43617650  0.32915600  1
  C  191  1  0.25709800  0.44533200  0.30851500  1
  C  192  1  0.20260800  0.44947000  0.32283700  1
  C  193  1  0.20087100  0.44350950  0.35683150  1
  C  210  1  0.40117800  0.45631700  0.02512450  1
  C  211  1  0.38463800  0.42103100  0.04212400  1
  C  212  1  0.33665600  0.40830750  0.06610050  1
  C  213  1  0.30362100  0.42986600  0.07517000  1
  C  214  1  0.31735500  0.46565150  0.05591650  1
  C  215  1  0.36534600  0.47851900  0.03191550  1
  C  216  1  0.25148600  0.41667550  0.10130750  1
  C  217  1  0.19627600  0.42792050  0.07738650  1
  C  218  1  0.16212500  0.45807100  0.06893500  1
  C  219  1  0.11284600  0.46858800  0.04585200  1
  C  220  1  0.09603000  0.44971300  0.02959050  1
  C  221  1  0.13190200  0.42099400  0.03590500  1
  C  222  1  0.18112500  0.41060100  0.05904400  1
  C  223  1  0.25411000  0.37784700  0.12708800  1
  C  224  1  0.25238200  0.43059950  0.12641550  1
  C  225  1  0.20058000  0.42647700  0.14723000  1
  C  226  1  0.20282400  0.43269300  0.17505600  1
  C  227  1  0.25783500  0.44258750  0.18387450  1
  C  228  1  0.30930600  0.44800350  0.16296200  1
  C  229  1  0.30674600  0.44161100  0.13526800  1
  C  230  1  0.30861000  0.36277250  0.14564600  1
  C  231  1  0.31045200  0.32898100  0.17383100  1
  C  232  1  0.25747200  0.30833950  0.18529350  1
  C  233  1  0.20301800  0.32267000  0.16680800  1
  C  234  1  0.20135000  0.35666150  0.13876950  1
  C  251  1  0.75848700  0.68346800  0.74313400  1
  C  253  1  0.80079100  0.71679300  0.68583750  1
  C  254  1  0.76192700  0.74478900  0.67919700  1
  C  256  1  0.71970600  0.71143150  0.73592650  1
  C  258  1  0.84209500  0.71583400  0.66020600  1
  C  262  1  0.75821500  0.74299400  0.51252100  1
  C  264  1  0.80066700  0.68574950  0.53650050  1
  C  265  1  0.76179400  0.67904000  0.51517800  1
  C  267  1  0.71943300  0.73571550  0.49180250  1
  C  269  1  0.84201400  0.66018100  0.56309000  1
  C  273  1  0.75829700  0.51232550  0.68363650  1
  C  275  1  0.80075400  0.53636050  0.71687350  1
  C  276  1  0.76186300  0.51503800  0.74490350  1
  C  278  1  0.71951900  0.49159650  0.71164050  1
  C  280  1  0.84203300  0.56302400  0.71580500  1
  C  284  1  0.25847200  0.27580100  0.21641250  1
  C  286  1  0.30079200  0.24253650  0.27369200  1
  C  287  1  0.26198700  0.21449000  0.28034500  1
  C  289  1  0.21975800  0.24778450  0.22363200  1
  C  291  1  0.34205800  0.24355350  0.29930850  1
  C  295  1  0.25831000  0.21619750  0.44703450  1
  C  297  1  0.30056500  0.27351800  0.42302500  1
  C  298  1  0.26168700  0.28014300  0.44439600  1
  C  300  1  0.21949400  0.22340100  0.46778700  1
  C  302  1  0.34181700  0.29917250  0.39639550  1
  C  306  1  0.25820400  0.44681100  0.27594900  1
  C  308  1  0.30062800  0.42284250  0.24266050  1
  C  309  1  0.26181000  0.44419400  0.21463500  1
  C  311  1  0.21948500  0.46756900  0.24794950  1
  C  313  1  0.34185400  0.39620100  0.24369000  1
  C  317  1  0.95061700  0.95800600  0.49119800  1
  C  319  1  0.99592900  0.00743900  0.49094850  1
  C  320  1  0.04650800  0.00577900  0.47208300  1
  C  322  1  0.00149700  0.95672900  0.47257700  1
  C  324  1  0.98684800  0.03448800  0.50030900  1
  C  328  1  0.95021800  0.49100800  0.48988600  1
  C  330  1  0.99541600  0.49073400  0.44070100  1
  C  331  1  0.04595500  0.47183800  0.46122700  1
  C  333  1  0.00106200  0.47236350  0.50978100  1
  C  335  1  0.98629400  0.50009550  0.40429250  1
  C  339  1  0.95103100  0.48976200  0.95809400  1
  C  341  1  0.99617300  0.44057300  0.00754450  1
  C  342  1  0.04680100  0.46108000  0.00589500  1
  C  344  1  0.00193800  0.50965200  0.95683600  1
  C  346  1  0.98699000  0.40416100  0.03458450  1
  C  350  1  0.45070200  0.00121550  0.46833550  1
  C  352  1  0.49587800  0.95179200  0.46855100  1
  C  353  1  0.54642500  0.95339450  0.48747350  1
  C  355  1  0.50151200  0.00241300  0.48704550  1
  C  357  1  0.48674000  0.92478950  0.45912450  1
  C  361  1  0.45019700  0.46820600  0.46962900  1
  C  364  1  0.50104400  0.48689100  0.44971800  1
  C  366  1  0.48639600  0.45897100  0.55526600  1
  C  370  1  0.45099200  0.46945350  0.00144450  1
  C  372  1  0.49633800  0.51864200  0.95202800  1
  C  373  1  0.54685900  0.49810500  0.95366400  1
  C  375  1  0.50181300  0.44954400  0.00269450  1
  C  377  1  0.48730600  0.55506850  0.92501250  1
  C  757  1  0.49550500  0.24496400  0.18370500  1
  C  758  1  0.54603900  0.26391200  0.16316000  1
  C  761  1  0.90079800  0.71089800  0.16660700  1
  C  762  1  0.88433000  0.69387400  0.14833700  1
  C  763  1  0.83634500  0.66989150  0.15959050  1
  C  764  1  0.80326900  0.66081900  0.19021900  1
  C  765  1  0.81692900  0.68010200  0.20672900  1
  C  766  1  0.86492200  0.70410900  0.19559700  1
  C  767  1  0.75118000  0.63464400  0.20319900  1
  C  768  1  0.69592600  0.65852500  0.19058300  1
  C  769  1  0.66172200  0.66691300  0.21232000  1
  C  770  1  0.61241700  0.68997100  0.19978800  1
  C  771  1  0.59566400  0.70628800  0.16464700  1
  C  772  1  0.63156300  0.70001800  0.14221300  1
  C  773  1  0.68081000  0.67690500  0.15492400  1
  C  774  1  0.75376300  0.60889000  0.19011000  1
  C  775  1  0.75212700  0.60950000  0.24222600  1
  C  776  1  0.70040100  0.58862900  0.25897300  1
  C  777  1  0.70278700  0.56079500  0.29300500  1
  C  778  1  0.75780600  0.55209600  0.31168200  1
  C  779  1  0.80917700  0.57310200  0.29613900  1
  C  780  1  0.80652900  0.60075700  0.26203400  1
  C  781  1  0.80829300  0.59036300  0.19356400  1
  C  782  1  0.81014900  0.56217900  0.18795700  1
  C  783  1  0.75716800  0.55069300  0.17880600  1
  C  784  1  0.70270600  0.56916500  0.17466450  1
  C  785  1  0.70101400  0.59719350  0.18063050  1
  C  802  1  0.90047600  0.27814400  0.16790100  1
  C  803  1  0.88398900  0.25985700  0.20318950  1
  C  804  1  0.83608100  0.27112250  0.21593150  1
  C  805  1  0.80311900  0.30178400  0.19439800  1
  C  806  1  0.81677600  0.31830550  0.15860550  1
  C  807  1  0.86469100  0.30716400  0.14571700  1
  C  808  1  0.75106100  0.31473500  0.20760900  1
  C  809  1  0.69575700  0.30212150  0.19634950  1
  C  810  1  0.66160900  0.32384850  0.16620500  1
  C  811  1  0.61223500  0.31133000  0.15568700  1
  C  812  1  0.59535400  0.27620100  0.17453200  1
  C  813  1  0.63124500  0.25376000  0.20322900  1
  C  814  1  0.68056000  0.26646300  0.21362250  1
  C  815  1  0.75368700  0.30162000  0.24645300  1
  C  816  1  0.75202100  0.35375600  0.19373700  1
  C  817  1  0.70032800  0.37047900  0.19788700  1
  C  818  1  0.70267800  0.40452100  0.19166450  1
  C  819  1  0.75771500  0.42321600  0.18173100  1
  C  820  1  0.80911200  0.40767900  0.17632500  1
  C  821  1  0.80642900  0.37359300  0.18271700  1
  C  822  1  0.80823400  0.30509350  0.26152400  1
  C  823  1  0.81014100  0.29949850  0.29531050  1
  C  824  1  0.75718700  0.29034000  0.31595800  1
  C  825  1  0.70268300  0.28621900  0.30163050  1
  C  826  1  0.70095100  0.29217300  0.26763800  1
  C  843  1  0.90126100  0.27949350  0.59927150  1
  C  844  1  0.88486700  0.31478750  0.58224750  1
  C  845  1  0.83690300  0.32751850  0.55828150  1
  C  846  1  0.80379100  0.30597150  0.54920550  1
  C  847  1  0.81740800  0.27018100  0.56847100  1
  C  848  1  0.86534800  0.25729800  0.59248400  1
  C  849  1  0.75164000  0.31915750  0.52310350  1
  C  850  1  0.69642200  0.30787200  0.54703800  1
  C  851  1  0.66220900  0.27772100  0.55548200  1
  C  852  1  0.61289400  0.26719650  0.57855800  1
  C  853  1  0.59614500  0.28604350  0.59485050  1
  C  854  1  0.63211300  0.31474050  0.58857490  1
  C  855  1  0.68137400  0.32513700  0.56544150  1
  C  856  1  0.75420800  0.35800100  0.49736800  1
  C  857  1  0.75246300  0.30527550  0.49796150  1
  C  858  1  0.70069600  0.30938550  0.47714350  1
  C  859  1  0.70290200  0.30312800  0.44934350  1
  C  860  1  0.75790200  0.29326050  0.44051050  1
  C  861  1  0.80936800  0.28787850  0.46140750  1
  C  862  1  0.80681600  0.29429100  0.48909000  1
  C  863  1  0.80867600  0.37311700  0.47873700  1
  C  864  1  0.81050300  0.40691100  0.45054600  1
  C  865  1  0.75750600  0.42749800  0.43911100  1
  C  866  1  0.70307500  0.41312800  0.45763900  1
  C  867  1  0.70144500  0.37913750  0.48568750  1
  C  884  1  0.40097300  0.80150600  0.12263140  1
  C  885  1  0.38451500  0.81852950  0.14089690  1
  C  886  1  0.33658700  0.84251400  0.12963240  1
  C  887  1  0.30355300  0.85158700  0.09899890  1
  C  888  1  0.31724600  0.83233800  0.08246490  1
  C  889  1  0.36516900  0.80832400  0.09361390  1
  C  890  1  0.25144800  0.87771100  0.08606040  1
  C  891  1  0.19621200  0.85377700  0.09870790  1
  C  892  1  0.16201400  0.84536350  0.07698090  1
  C  893  1  0.11266200  0.82230400  0.08951540  1
  C  894  1  0.09582400  0.80602350  0.12464740  1
  C  895  1  0.13176000  0.81228050  0.14708390  1
  C  896  1  0.18105000  0.83540250  0.13436640  1
  C  897  1  0.25404400  0.90347180  0.09913720  1
  C  898  1  0.25235100  0.90284680  0.04703760  1
  C  899  1  0.20061400  0.92367730  0.03031910  1
  C  900  1  0.20293600  0.95152280  0.99629060  1
  C  901  1  0.25794400  0.96031530  0.97758010  1
  C  902  1  0.30936500  0.93939230  0.99310010  1
  C  903  1  0.30673200  0.91168880  0.02718560  1
  C  904  1  0.30854600  0.92204880  0.09569270  1
  C  905  1  0.31032900  0.95025880  0.10126320  1
  C  906  1  0.25732600  0.96167980  0.11043220  1
  C  907  1  0.20288800  0.94315330  0.11458470  1
  C  908  1  0.20125800  0.91511980  0.10862070  1
  C  925  1  0.40040400  0.23422300  0.12135800  1
  C  926  1  0.38396900  0.25247700  0.08606600  1
  C  927  1  0.33602300  0.24120000  0.07334400  1
  C  928  1  0.30294800  0.21056400  0.09490400  1
  C  929  1  0.31659100  0.19405800  0.13069400  1
  C  930  1  0.36454000  0.20521800  0.14356100  1
  C  931  1  0.25090000  0.19756950  0.08170950  1
  C  932  1  0.19561400  0.21019700  0.09294700  1
  C  933  1  0.16136600  0.18846400  0.12306800  1
  C  934  1  0.11201900  0.20099050  0.13357850  1
  C  935  1  0.09523800  0.23612150  0.11472550  1
  C  936  1  0.13118800  0.25856000  0.08603000  1
  C  937  1  0.18047000  0.24585000  0.07564300  1
  C  938  1  0.25359700  0.21062200  0.04287800  1
  C  939  1  0.25187800  0.15853900  0.09563400  1
  C  940  1  0.20018000  0.14179400  0.09147900  1
  C  941  1  0.20253100  0.10775100  0.09770100  1
  C  942  1  0.25756200  0.08909700  0.10762400  1
  C  943  1  0.30894600  0.10465650  0.11304800  1
  C  944  1  0.30625900  0.13872900  0.10669200  1
  C  945  1  0.30814600  0.20718900  0.02779800  1
  C  946  1  0.31004200  0.21275450  0.99402200  1
  C  947  1  0.25709800  0.22191000  0.97338100  1
  C  948  1  0.20260800  0.22604800  0.98770300  1
  C  949  1  0.20087100  0.22008750  0.02169750  1
  C  966  1  0.40117800  0.23289500  0.68999090  1
  C  967  1  0.38463800  0.19760900  0.70699040  1
  C  968  1  0.33665600  0.18488550  0.73096690  1
  C  969  1  0.30362100  0.20644400  0.74003640  1
  C  970  1  0.31735500  0.24222950  0.72078290  1
  C  971  1  0.36534600  0.25509700  0.69678190  1
  C  972  1  0.25148600  0.19325350  0.76617390  1
  C  973  1  0.19627600  0.20449850  0.74225290  1
  C  974  1  0.16212500  0.23464900  0.73380140  1
  C  975  1  0.11284600  0.24516600  0.71071840  1
  C  976  1  0.09603000  0.22629100  0.69445690  1
  C  977  1  0.13190200  0.19757200  0.70077100  1
  C  978  1  0.18112500  0.18717900  0.72391040  1
  C  979  1  0.25411000  0.15442500  0.79195440  1
  C  980  1  0.25238200  0.20717750  0.79128188  1
  C  981  1  0.20058000  0.20305500  0.81209600  1
  C  982  1  0.20282400  0.20927100  0.83992200  1
  C  983  1  0.25783500  0.21916550  0.84874050  1
  C  984  1  0.30930600  0.22458150  0.82782800  1
  C  985  1  0.30674600  0.21818900  0.80013400  1
  C  986  1  0.30861000  0.13935050  0.81051240  1
  C  987  1  0.31045200  0.10555900  0.83869740  1
  C  988  1  0.25747200  0.08491750  0.85015990  1
  C  989  1  0.20301800  0.09924800  0.83167440  1
  C  990  1  0.20135000  0.13323950  0.80363590  1
  C  1007  1  0.75848700  0.46004600  0.40800000  1
  C  1009  1  0.80079100  0.49337100  0.35070350  1
  C  1010  1  0.76192700  0.52136700  0.34406300  1
  C  1012  1  0.71970600  0.48800950  0.40079250  1
  C  1014  1  0.84209500  0.49241200  0.32507200  1
  C  1018  1  0.75821500  0.51957200  0.17738700  1
  C  1020  1  0.80066700  0.46232750  0.20136650  1
  C  1021  1  0.76179400  0.45561800  0.18004400  1
  C  1023  1  0.71943300  0.51229350  0.15666850  1
  C  1025  1  0.84201400  0.43675900  0.22795600  1
  C  1029  1  0.75829700  0.28890350  0.34850250  1
  C  1031  1  0.80075400  0.31293850  0.38173950  1
  C  1032  1  0.76186300  0.29161600  0.40976950  1
  C  1034  1  0.71951900  0.26817450  0.37650650  1
  C  1036  1  0.84203300  0.33960200  0.38067100  1
  C  1040  1  0.25847200  0.05237900  0.88127890  1
  C  1042  1  0.30079200  0.01911450  0.93855840  1
  C  1043  1  0.26198700  0.99106775  0.94521165  1
  C  1045  1  0.21975800  0.02436250  0.88849840  1
  C  1047  1  0.34205800  0.02013150  0.96417490  1
  C  1051  1  0.25831000  0.99277525  0.11190075  1
  C  1053  1  0.30056500  0.05009600  0.08789100  1
  C  1054  1  0.26168700  0.05672100  0.10926200  1
  C  1056  1  0.21949400  0.99997875  0.13265325  1
  C  1058  1  0.34181700  0.07575050  0.06126150  1
  C  1062  1  0.25820400  0.22338900  0.94081500  1
  C  1064  1  0.30062800  0.19942050  0.90752650  1
  C  1065  1  0.26181000  0.22077200  0.87950100  1
  C  1067  1  0.21948500  0.24414700  0.91281550  1
  C  1069  1  0.34185400  0.17277900  0.90855600  1
  C  1073  1  0.95061700  0.73458400  0.15606400  1
  C  1075  1  0.99592900  0.78401700  0.15581490  1
  C  1076  1  0.04650800  0.78235700  0.13694940  1
  C  1078  1  0.00149700  0.73330700  0.13744300  1
  C  1080  1  0.98684800  0.81106600  0.16517540  1
  C  1084  1  0.95021800  0.26758600  0.15475200  1
  C  1086  1  0.99541600  0.26731200  0.10556700  1
  C  1087  1  0.04595500  0.24841600  0.12609300  1
  C  1089  1  0.00106200  0.24894150  0.17464700  1
  C  1091  1  0.98629400  0.27667350  0.06915850  1
  C  1095  1  0.95103100  0.26634000  0.62296000  1
  C  1097  1  0.99617300  0.21715100  0.67241050  1
  C  1098  1  0.04680100  0.23765800  0.67076140  1
  C  1100  1  0.00193800  0.28623000  0.62170240  1
  C  1102  1  0.98699000  0.18073900  0.69945050  1
  C  1106  1  0.45070200  0.77779350  0.13320190  1
  C  1108  1  0.49587800  0.72837000  0.13341700  1
  C  1109  1  0.54642500  0.72997250  0.15233950  1
  C  1111  1  0.50151200  0.77899100  0.15191190  1
  C  1113  1  0.48674000  0.70136750  0.12399050  1
  C  1117  1  0.45019700  0.24478400  0.13449500  1
  C  1120  1  0.50104400  0.26346900  0.11458400  1
  C  1122  1  0.48639600  0.23554900  0.22013200  1
  C  1126  1  0.45099200  0.24603150  0.66631090  1
  C  1128  1  0.49633800  0.29522000  0.61689440  1
  C  1129  1  0.54685900  0.27468300  0.61853000  1
  C  1131  1  0.50181300  0.22612200  0.66756050  1
  C  1133  1  0.48730600  0.33164650  0.58987890  1
  H  30  1  0.66501000  0.76904000  0.63830600  1
  H  31  1  0.66063500  0.81590100  0.58083200  1
  H  32  1  0.84983200  0.79089800  0.64408000  1
  H  33  1  0.84647100  0.83646950  0.58633950  1
  H  34  1  0.84729500  0.81973200  0.53705000  1
  H  35  1  0.85053300  0.77280800  0.52694900  1
  H  36  1  0.66251900  0.78420200  0.50505000  1
  H  37  1  0.65936600  0.83093900  0.51525300  1
  H  38  1  0.70587300  0.89688300  0.47276900  1
  H  39  1  0.62343200  0.93643400  0.45137200  1
  H  40  1  0.58871100  0.91811800  0.55182300  1
  H  41  1  0.67277300  0.88008300  0.57288000  1
  H  42  1  0.79284100  0.89938400  0.56314900  1
  H  43  1  0.82578500  0.88258400  0.47990300  1
  H  44  1  0.90621100  0.92265800  0.46117800  1
  H  45  1  0.87406300  0.93950700  0.54462000  1
  H  71  1  0.66491000  0.63808000  0.53182650  1
  H  72  1  0.66054000  0.58061900  0.54242350  1
  H  73  1  0.84974300  0.64395200  0.50422450  1
  H  74  1  0.84636700  0.58622350  0.51635900  1
  H  75  1  0.84723900  0.53686100  0.58235750  1
  H  76  1  0.85056500  0.52676500  0.63937600  1
  H  77  1  0.66250000  0.50486600  0.64990300  1
  H  78  1  0.65928500  0.51507550  0.59297100  1
  H  79  1  0.70559500  0.47259300  0.56949200  1
  H  80  1  0.62304400  0.45121000  0.55135100  1
  H  81  1  0.58855900  0.55165500  0.46919250  1
  H  82  1  0.67272700  0.57269300  0.48615650  1
  H  83  1  0.79277200  0.56304600  0.47660300  1
  H  84  1  0.82549700  0.47970600  0.57661100  1
  H  85  1  0.90579200  0.46096400  0.55524300  1
  H  86  1  0.87386800  0.54449900  0.45498850  1
  H  112  1  0.66511600  0.53161700  0.76931400  1
  H  113  1  0.66094500  0.54219800  0.81618800  1
  H  114  1  0.84998600  0.50413900  0.79085700  1
  H  115  1  0.84680900  0.51626300  0.83645500  1
  H  116  1  0.84771200  0.58229000  0.81980300  1
  H  117  1  0.85087800  0.63930350  0.77285450  1
  H  118  1  0.66286700  0.64964500  0.78446100  1
  H  119  1  0.65980800  0.59273500  0.83120000  1
  H  120  1  0.70646200  0.56930200  0.89710800  1
  H  121  1  0.62400000  0.55115400  0.93669300  1
  H  122  1  0.58915100  0.46899000  0.91843400  1
  H  123  1  0.67322300  0.48596500  0.88036500  1
  H  124  1  0.79328200  0.47645850  0.89947050  1
  H  125  1  0.82637500  0.57649000  0.88270000  1
  H  126  1  0.90676800  0.55513800  0.92274550  1
  H  127  1  0.87446700  0.45485900  0.93956800  1
  H  153  1  0.16512600  0.19006600  0.32128550  1
  H  154  1  0.16083400  0.14319100  0.37874000  1
  H  155  1  0.35002100  0.16851900  0.31541100  1
  H  156  1  0.34672600  0.12292400  0.37313400  1
  H  157  1  0.34757400  0.13956400  0.42247300  1
  H  158  1  0.35072100  0.18648900  0.43258350  1
  H  159  1  0.16267600  0.17488000  0.45451500  1
  H  160  1  0.15961800  0.12817300  0.44429300  1
  H  161  1  0.20609600  0.06229100  0.48678200  1
  H  162  1  0.12353400  0.02275100  0.50818450  1
  H  163  1  0.08895300  0.04099000  0.40775400  1
  H  164  1  0.17311200  0.07901650  0.38669250  1
  H  165  1  0.29318000  0.05989750  0.39631050  1
  H  166  1  0.32600400  0.07664300  0.47960150  1
  H  167  1  0.40634400  0.03657600  0.49833900  1
  H  168  1  0.37431400  0.01978150  0.41485050  1
  H  194  1  0.16478100  0.32101950  0.42778900  1
  H  195  1  0.16041000  0.37847900  0.41719500  1
  H  196  1  0.34958400  0.31526600  0.45536400  1
  H  197  1  0.34622600  0.37299300  0.44322850  1
  H  198  1  0.34713800  0.42227500  0.37722700  1
  H  199  1  0.35046600  0.43237650  0.32020050  1
  H  200  1  0.16244200  0.45425800  0.30969600  1
  H  201  1  0.15920100  0.44404300  0.36662150  1
  H  202  1  0.20555000  0.48655900  0.39003900  1
  H  203  1  0.12299700  0.50794900  0.40814650  1
  H  204  1  0.08828600  0.40751550  0.49033850  1
  H  205  1  0.17243900  0.38646800  0.47340500  1
  H  206  1  0.29248000  0.39620000  0.48298200  1
  H  207  1  0.32548000  0.47943900  0.38292800  1
  H  208  1  0.40584200  0.49820250  0.40426150  1
  H  209  1  0.37364600  0.41476000  0.50456200  1
  H  235  1  0.16504400  0.42758600  0.19024200  1
  H  236  1  0.16085800  0.41701200  0.14336700  1
  H  237  1  0.34992600  0.45518000  0.16864700  1
  H  238  1  0.34673300  0.44306100  0.12302950  1
  H  239  1  0.34762900  0.37706600  0.13970700  1
  H  240  1  0.35083000  0.32004700  0.18663950  1
  H  241  1  0.16282100  0.30953050  0.17514550  1
  H  242  1  0.15970600  0.36645100  0.12842050  1
  H  243  1  0.20615600  0.38984800  0.06253300  1
  H  244  1  0.12371100  0.40796500  0.02296400  1
  H  245  1  0.08917600  0.49023100  0.04108600  1
  H  246  1  0.17322200  0.47328300  0.07914100  1
  H  247  1  0.29327500  0.48280350  0.06003950  1
  H  248  1  0.32605000  0.38276150  0.07681800  1
  H  249  1  0.40650600  0.40409500  0.03677600  1
  H  250  1  0.37453300  0.50438100  0.01995350  1
  H  257  1  0.68943200  0.71039550  0.75371950  1
  H  259  1  0.86258000  0.69036100  0.67025200  1
  H  260  1  0.87877400  0.73445800  0.65370250  1
  H  261  1  0.81691100  0.72183800  0.63685000  1
  H  268  1  0.68910900  0.75346200  0.47505800  1
  H  270  1  0.86247900  0.67027150  0.57849250  1
  H  271  1  0.87870900  0.65370700  0.55097100  1
  H  272  1  0.81687100  0.63680200  0.58046050  1
  H  279  1  0.68920100  0.47482350  0.71065200  1
  H  281  1  0.86245500  0.57843900  0.69030000  1
  H  282  1  0.87876400  0.55096950  0.73438450  1
  H  283  1  0.81684900  0.58037400  0.72180500  1
  H  290  1  0.18951600  0.24878000  0.20584500  1
  H  292  1  0.36248200  0.26905550  0.28925750  1
  H  293  1  0.37878800  0.22498500  0.30579300  1
  H  294  1  0.31686000  0.23750700  0.32267500  1
  H  301  1  0.18922200  0.20559800  0.48455400  1
  H  303  1  0.36230400  0.28913200  0.38096100  1
  H  304  1  0.37849800  0.30570900  0.40848200  1
  H  305  1  0.31659100  0.32250800  0.37905850  1
  H  312  1  0.18920200  0.48432600  0.24896000  1
  H  314  1  0.36224500  0.38076300  0.26919100  1
  H  315  1  0.37860300  0.40827600  0.22511200  1
  H  316  1  0.31663200  0.37886750  0.23766450  1
  H  323  1  0.00615600  0.93812800  0.46590600  1
  H  325  1  0.94191400  0.03245600  0.51157100  1
  H  326  1  0.99076300  0.05997350  0.47739250  1
  H  327  1  0.02063800  0.03196000  0.51923300  1
  H  334  1  0.00575800  0.46570300  0.53504900  1
  H  336  1  0.94138600  0.51137500  0.39506500  1
  H  337  1  0.99011000  0.47717750  0.40172450  1
  H  338  1  0.02012400  0.51900850  0.38789450  1
  H  345  1  0.00666800  0.53492350  0.93823450  1
  H  347  1  0.94204600  0.39494400  0.03254150  1
  H  348  1  0.99086400  0.40158550  0.06007350  1
  H  349  1  0.02075600  0.38776350  0.03205450  1
  H  356  1  0.50622800  0.02099900  0.49373600  1
  H  358  1  0.44182600  0.92685500  0.44783500  1
  H  359  1  0.49055800  0.89928300  0.48201700  1
  H  360  1  0.52055800  0.92734400  0.44020200  1
  H  365  1  0.50571000  0.49359800  0.42443500  1
  H  367  1  0.44147000  0.44767950  0.56449750  1
  H  368  1  0.49027600  0.48186600  0.55787150  1
  H  369  1  0.52019200  0.44005100  0.57163400  1
  H  376  1  0.50643800  0.42426200  0.02127900  1
  H  378  1  0.44240200  0.56430750  0.92705750  1
  H  379  1  0.49118500  0.55767200  0.89951150  1
  H  380  1  0.52114500  0.57143300  0.92757000  1
  H  786  1  0.66501000  0.54561800  0.30317200  1
  H  787  1  0.66063500  0.59247900  0.24569800  1
  H  788  1  0.84983200  0.56747600  0.30894600  1
  H  789  1  0.84647100  0.61304750  0.25120550  1
  H  790  1  0.84729500  0.59631000  0.20191600  1
  H  791  1  0.85053300  0.54938600  0.19181500  1
  H  792  1  0.66251900  0.56078000  0.16991600  1
  H  793  1  0.65936600  0.60751700  0.18011900  1
  H  794  1  0.70587300  0.67346100  0.13763500  1
  H  795  1  0.62343200  0.71301200  0.11623800  1
  H  796  1  0.58871100  0.69469600  0.21668940  1
  H  797  1  0.67277300  0.65666100  0.23774600  1
  H  798  1  0.79284100  0.67596200  0.22801540  1
  H  799  1  0.82578500  0.65916200  0.14476900  1
  H  800  1  0.90621100  0.69923600  0.12604400  1
  H  801  1  0.87406300  0.71608500  0.20948640  1
  H  827  1  0.66491000  0.41465800  0.19669250  1
  H  828  1  0.66054000  0.35719700  0.20728950  1
  H  829  1  0.84974300  0.42053000  0.16909050  1
  H  830  1  0.84636700  0.36280150  0.18122500  1
  H  831  1  0.84723900  0.31343900  0.24722350  1
  H  832  1  0.85056500  0.30334300  0.30424200  1
  H  833  1  0.66250000  0.28144400  0.31476900  1
  H  834  1  0.65928500  0.29165350  0.25783700  1
  H  835  1  0.70559500  0.24917100  0.23435800  1
  H  836  1  0.62304400  0.22778800  0.21621700  1
  H  837  1  0.58855900  0.32823300  0.13405850  1
  H  838  1  0.67272700  0.34927100  0.15102250  1
  H  839  1  0.79277200  0.33962400  0.14146900  1
  H  840  1  0.82549700  0.25628400  0.24147700  1
  H  841  1  0.90579200  0.23754200  0.22010900  1
  H  842  1  0.87386800  0.32107700  0.11985450  1
  H  868  1  0.66511600  0.30819500  0.43418000  1
  H  869  1  0.66094500  0.31877600  0.48105400  1
  H  870  1  0.84998600  0.28071700  0.45572300  1
  H  871  1  0.84680900  0.29284100  0.50132100  1
  H  872  1  0.84771200  0.35886800  0.48466900  1
  H  873  1  0.85087800  0.41588150  0.43772050  1
  H  874  1  0.66286700  0.42622300  0.44932700  1
  H  875  1  0.65980800  0.36931300  0.49606600  1
  H  876  1  0.70646200  0.34588000  0.56197440  1
  H  877  1  0.62400000  0.32773200  0.60155940  1
  H  878  1  0.58915100  0.24556800  0.58330000  1
  H  879  1  0.67322300  0.26254300  0.54523100  1
  H  880  1  0.79328200  0.25303650  0.56433650  1
  H  881  1  0.82637500  0.35306800  0.54756640  1
  H  882  1  0.90676800  0.33171600  0.58761190  1
  H  883  1  0.87446700  0.23143700  0.60443400  1
  H  909  1  0.16512600  0.96664380  0.98615210  1
  H  910  1  0.16083400  0.91976880  0.04360660  1
  H  911  1  0.35002100  0.94509680  0.98027760  1
  H  912  1  0.34672600  0.89950200  0.03800040  1
  H  913  1  0.34757400  0.91614180  0.08733920  1
  H  914  1  0.35072100  0.96306680  0.09744970  1
  H  915  1  0.16267600  0.95145780  0.11938120  1
  H  916  1  0.15961800  0.90475080  0.10915920  1
  H  917  1  0.20609600  0.83886900  0.15164838  1
  H  918  1  0.12353400  0.79932900  0.17305090  1
  H  919  1  0.08895300  0.81756800  0.07262000  1
  H  920  1  0.17311200  0.85559450  0.05155890  1
  H  921  1  0.29318000  0.83647550  0.06117650  1
  H  922  1  0.32600400  0.85322100  0.14446788  1
  H  923  1  0.40634400  0.81315400  0.16320540  1
  H  924  1  0.37431400  0.79635950  0.07971650  1
  H  950  1  0.16478100  0.09759750  0.09265500  1
  H  951  1  0.16041000  0.15505700  0.08206100  1
  H  952  1  0.34958400  0.09184400  0.12023000  1
  H  953  1  0.34622600  0.14957100  0.10809450  1
  H  954  1  0.34713800  0.19885300  0.04209300  1
  H  955  1  0.35046600  0.20895450  0.98506650  1
  H  956  1  0.16244200  0.23083600  0.97456200  1
  H  957  1  0.15920100  0.22062100  0.03148750  1
  H  958  1  0.20555000  0.26313700  0.05490500  1
  H  959  1  0.12299700  0.28452700  0.07301250  1
  H  960  1  0.08828600  0.18409350  0.15520450  1
  H  961  1  0.17243900  0.16304600  0.13827100  1
  H  962  1  0.29248000  0.17277800  0.14784800  1
  H  963  1  0.32548000  0.25601700  0.04779400  1
  H  964  1  0.40584200  0.27478050  0.06912750  1
  H  965  1  0.37364600  0.19133800  0.16942800  1
  H  991  1  0.16504400  0.20416400  0.85510800  1
  H  992  1  0.16085800  0.19359000  0.80823300  1
  H  993  1  0.34992600  0.23175800  0.83351300  1
  H  994  1  0.34673300  0.21963900  0.78789550  1
  H  995  1  0.34762900  0.15364400  0.80457340  1
  H  996  1  0.35083000  0.09662500  0.85150590  1
  H  997  1  0.16282100  0.08610850  0.84001190  1
  H  998  1  0.15970600  0.14302900  0.79328690  1
  H  999  1  0.20615600  0.16642600  0.72739900  1
  H  1000  1  0.12371100  0.18454300  0.68783000  1
  H  1001  1  0.08917600  0.26680900  0.70595240  1
  H  1002  1  0.17322200  0.24986100  0.74400738  1
  H  1003  1  0.29327500  0.25938150  0.72490590  1
  H  1004  1  0.32605000  0.15933950  0.74168440  1
  H  1005  1  0.40650600  0.18067300  0.70164200  1
  H  1006  1  0.37453300  0.28095900  0.68481990  1
  H  1013  1  0.68943200  0.48697350  0.41858590  1
  H  1015  1  0.86258000  0.46693900  0.33511800  1
  H  1016  1  0.87877400  0.51103600  0.31856850  1
  H  1017  1  0.81691100  0.49841600  0.30171600  1
  H  1024  1  0.68910900  0.53004000  0.13992400  1
  H  1026  1  0.86247900  0.44684950  0.24335850  1
  H  1027  1  0.87870900  0.43028500  0.21583700  1
  H  1028  1  0.81687100  0.41338000  0.24532650  1
  H  1035  1  0.68920100  0.25140150  0.37551800  1
  H  1037  1  0.86245500  0.35501700  0.35516600  1
  H  1038  1  0.87876400  0.32754750  0.39925050  1
  H  1039  1  0.81684900  0.35695200  0.38667100  1
  H  1046  1  0.18951600  0.02535800  0.87071100  1
  H  1048  1  0.36248200  0.04563350  0.95412388  1
  H  1049  1  0.37878800  0.00156300  0.97065940  1
  H  1050  1  0.31686000  0.01408500  0.98754100  1
  H  1057  1  0.18922200  0.98217580  0.14942020  1
  H  1059  1  0.36230400  0.06571000  0.04582700  1
  H  1060  1  0.37849800  0.08228700  0.07334800  1
  H  1061  1  0.31659100  0.09908600  0.04392450  1
  H  1068  1  0.18920200  0.26090400  0.91382600  1
  H  1070  1  0.36224500  0.15734100  0.93405700  1
  H  1071  1  0.37860300  0.18485400  0.88997800  1
  H  1072  1  0.31663200  0.15544550  0.90253050  1
  H  1079  1  0.00615600  0.71470600  0.13077200  1
  H  1081  1  0.94191400  0.80903400  0.17643740  1
  H  1082  1  0.99076300  0.83655150  0.14225890  1
  H  1083  1  0.02063800  0.80853800  0.18409938  1
  H  1090  1  0.00575800  0.24228100  0.19991500  1
  H  1092  1  0.94138600  0.28795300  0.05993100  1
  H  1093  1  0.99011000  0.25375550  0.06659050  1
  H  1094  1  0.02012400  0.29558650  0.05276050  1
  H  1101  1  0.00666800  0.31150150  0.60310090  1
  H  1103  1  0.94204600  0.17152200  0.69740750  1
  H  1104  1  0.99086400  0.17816350  0.72493990  1
  H  1105  1  0.02075600  0.16434150  0.69692050  1
  H  1112  1  0.50622800  0.79757700  0.15860240  1
  H  1114  1  0.44182600  0.70343300  0.11270100  1
  H  1115  1  0.49055800  0.67586100  0.14688300  1
  H  1116  1  0.52055800  0.70392200  0.10506800  1
  H  1121  1  0.50571000  0.27017600  0.08930100  1
  H  1123  1  0.44147000  0.22425750  0.22936350  1
  H  1124  1  0.49027600  0.25844400  0.22273750  1
  H  1125  1  0.52019200  0.21662900  0.23650000  1
  H  1132  1  0.50643800  0.20084000  0.68614500  1
  H  1134  1  0.44240200  0.34088550  0.59192390  1
  H  1135  1  0.49118500  0.33425000  0.56437750  1
  H  1136  1  0.52114500  0.34801100  0.59243640  1
  N  252  1  0.79655200  0.68785200  0.71729050  1
  N  255  1  0.72270600  0.74050800  0.70456400  1
  N  263  1  0.79634700  0.71720400  0.53397300  1
  N  266  1  0.72250200  0.70435100  0.49410600  1
  N  274  1  0.79640700  0.53382300  0.68795100  1
  N  277  1  0.72260100  0.49391450  0.74069450  1
  N  285  1  0.29652000  0.27147200  0.24224050  1
  N  288  1  0.22280000  0.21870950  0.25498950  1
  N  296  1  0.29634000  0.24206100  0.42554350  1
  N  299  1  0.22247200  0.25476300  0.46549900  1
  N  307  1  0.29627200  0.42533550  0.27160750  1
  N  310  1  0.22257700  0.46529200  0.21887200  1
  N  318  1  0.95107600  0.98358300  0.49926400  1
  N  321  1  0.04641400  0.98039300  0.46380400  1
  N  329  1  0.95063500  0.49907150  0.45624300  1
  N  332  1  0.04591000  0.46357200  0.49488900  1
  N  340  1  0.95139100  0.45612100  0.98367300  1
  N  343  1  0.04679200  0.49475000  0.98051200  1
  N  351  1  0.45112000  0.97567000  0.46022500  1
  N  354  1  0.54635900  0.97874100  0.49581100  1
  N  362  1  0.45067000  0.46008200  0.50328900  1
  N  363  1  0.54594000  0.49566200  0.46461400  1
  N  371  1  0.45149800  0.50310400  0.97588800  1
  N  374  1  0.54672100  0.46443050  0.97902850  1
  N  1008  1  0.79655200  0.46443000  0.38215650  1
  N  1011  1  0.72270600  0.51708600  0.36943000  1
  N  1019  1  0.79634700  0.49378200  0.19883900  1
  N  1022  1  0.72250200  0.48092900  0.15897200  1
  N  1030  1  0.79640700  0.31040100  0.35281700  1
  N  1033  1  0.72260100  0.27049250  0.40556050  1
  N  1041  1  0.29652000  0.04805000  0.90710690  1
  N  1044  1  0.22280000  0.99528725  0.91985615  1
  N  1052  1  0.29634000  0.01863900  0.09040950  1
  N  1055  1  0.22247200  0.03134100  0.13036500  1
  N  1063  1  0.29627200  0.20191350  0.93647350  1
  N  1066  1  0.22257700  0.24187000  0.88373800  1
  N  1074  1  0.95107600  0.76016100  0.16413040  1
  N  1077  1  0.04641400  0.75697100  0.12867000  1
  N  1085  1  0.95063500  0.27564950  0.12110900  1
  N  1088  1  0.04591000  0.24015000  0.15975500  1
  N  1096  1  0.95139100  0.23269900  0.64853900  1
  N  1099  1  0.04679200  0.27132800  0.64537840  1
  N  1107  1  0.45112000  0.75224800  0.12509100  1
  N  1110  1  0.54635900  0.75531900  0.16067740  1
  N  1118  1  0.45067000  0.23666000  0.16815500  1
  N  1119  1  0.54594000  0.27224000  0.12948000  1
  N  1127  1  0.45149800  0.27968200  0.64075440  1
  N  1130  1  0.54672100  0.24100850  0.64389450  1
