# generated using pymatgen
data_LaH12C24(NO)6
_symmetry_space_group_name_H-M   'P 1'
_cell_length_a   4.44437217
_cell_length_b   18.94984377
_cell_length_c   29.64026211
_cell_angle_alpha   89.99993062
_cell_angle_beta   91.22605564
_cell_angle_gamma   89.99970021
_symmetry_Int_Tables_number   1
_chemical_formula_structural   LaH12C24(NO)6
_chemical_formula_sum   'La4 H48 C96 N24 O24'
_cell_volume   2495.73605275
_cell_formula_units_Z   4
loop_
 _symmetry_equiv_pos_site_id
 _symmetry_equiv_pos_as_xyz
  1  'x, y, z'
loop_
 _atom_site_type_symbol
 _atom_site_label
 _atom_site_symmetry_multiplicity
 _atom_site_fract_x
 _atom_site_fract_y
 _atom_site_fract_z
 _atom_site_occupancy
  La  La1  1  0.67620016  0.89353636  0.48224058  1.0
  La  La2  1  0.82380543  0.39353324  0.01775710  1.0
  La  La3  1  0.32380267  0.10646444  0.51775847  1.0
  La  La4  1  0.17620104  0.60646389  0.98224342  1.0
  H  H1  1  0.78591667  0.67945809  0.50104033  1.0
  H  H2  1  0.11183047  0.50773352  0.58390942  1.0
  H  H3  1  0.54134788  0.58264504  0.60893286  1.0
  H  H4  1  0.59284897  0.70496882  0.58161997  1.0
  H  H5  1  0.48166799  0.81770050  0.33024093  1.0
  H  H6  1  0.84280042  0.89530828  0.23115188  1.0
  H  H7  1  0.57240276  0.95954840  0.29243925  1.0
  H  H8  1  0.75740221  0.94931366  0.37187638  1.0
  H  H9  1  0.49713588  0.67117932  0.11303322  1.0
  H  H10  1  0.15209048  0.66143443  0.22181239  1.0
  H  H11  1  0.41782009  0.56347951  0.18225734  1.0
  H  H12  1  0.21464816  0.52222547  0.10691843  1.0
  H  H13  1  0.71407894  0.17945721  0.99895801  1.0
  H  H14  1  0.38817266  0.00773067  0.91609177  1.0
  H  H15  1  0.95865482  0.08264153  0.89106843  1.0
  H  H16  1  0.90714374  0.20496520  0.91837883  1.0
  H  H17  1  0.01832495  0.31770037  0.16975795  1.0
  H  H18  1  0.65719364  0.39531034  0.26884563  1.0
  H  H19  1  0.92758594  0.45954823  0.20755671  1.0
  H  H20  1  0.74258866  0.44931063  0.12811976  1.0
  H  H21  1  0.00286072  0.17118284  0.38696602  1.0
  H  H22  1  0.34789557  0.16143601  0.27818859  1.0
  H  H23  1  0.08218518  0.06348020  0.31774461  1.0
  H  H24  1  0.28536318  0.02222752  0.39308272  1.0
  H  H25  1  0.21408223  0.32054079  0.49895743  1.0
  H  H26  1  0.88816061  0.49226735  0.41609063  1.0
  H  H27  1  0.45864505  0.41735518  0.39106685  1.0
  H  H28  1  0.40714512  0.29503101  0.41837836  1.0
  H  H29  1  0.51832729  0.18229949  0.66975920  1.0
  H  H30  1  0.15720680  0.10469152  0.76884604  1.0
  H  H31  1  0.42759491  0.04045134  0.70755784  1.0
  H  H32  1  0.24258083  0.05068547  0.62812140  1.0
  H  H33  1  0.50286065  0.32881805  0.88696748  1.0
  H  H34  1  0.84790647  0.33856420  0.77818844  1.0
  H  H35  1  0.58217893  0.43651841  0.81774412  1.0
  H  H36  1  0.78535623  0.47777305  0.89308241  1.0
  H  H37  1  0.28592725  0.82053962  0.00104404  1.0
  H  H38  1  0.61184500  0.99226715  0.08390950  1.0
  H  H39  1  0.04136236  0.91735522  0.10893333  1.0
  H  H40  1  0.09286441  0.79503082  0.08162295  1.0
  H  H41  1  0.98167272  0.68230162  0.83024336  1.0
  H  H42  1  0.34280503  0.60469388  0.73115491  1.0
  H  H43  1  0.07241250  0.54045462  0.79244291  1.0
  H  H44  1  0.25741691  0.55068932  0.87187996  1.0
  H  H45  1  0.99714247  0.82881913  0.61303343  1.0
  H  H46  1  0.65209186  0.83856827  0.72181234  1.0
  H  H47  1  0.91781641  0.93652076  0.68225537  1.0
  H  H48  1  0.71464478  0.97777299  0.60691615  1.0
  C  C1  1  0.22039665  0.77226374  0.52092526  1.0
  C  C2  1  0.18574711  0.70087534  0.54033056  1.0
  C  C3  1  0.95035486  0.65839740  0.52516024  1.0
  C  C4  1  0.92103440  0.58827737  0.54022811  1.0
  C  C5  1  0.12940630  0.56213026  0.57244001  1.0
  C  C6  1  0.36445622  0.60475535  0.58722786  1.0
  C  C7  1  0.39849183  0.67357642  0.57111478  1.0
  C  C8  1  0.69619882  0.54210592  0.51885321  1.0
  C  C9  1  0.25774231  0.88070211  0.40202067  1.0
  C  C10  1  0.13453741  0.88526309  0.35552841  1.0
  C  C11  1  0.29247824  0.85142899  0.32144390  1.0
  C  C12  1  0.17695930  0.85192740  0.27649531  1.0
  C  C13  1  0.91432872  0.88936363  0.26630875  1.0
  C  C14  1  0.75795751  0.92434904  0.30093785  1.0
  C  C15  1  0.87386168  0.92260597  0.34503434  1.0
  C  C16  1  0.34805316  0.81330212  0.24377769  1.0
  C  C17  1  0.65636834  0.72740593  0.19452980  1.0
  C  C18  1  0.71551329  0.56305163  0.06452899  1.0
  C  C19  1  0.83324915  0.58935562  0.10834700  1.0
  C  C20  1  0.67981784  0.64383799  0.13038557  1.0
  C  C21  1  0.80912447  0.67169187  0.17047331  1.0
  C  C22  1  0.07405355  0.64350913  0.18876211  1.0
  C  C23  1  0.23194722  0.59086117  0.16556282  1.0
  C  C24  1  0.10239321  0.56323808  0.12574617  1.0
  C  C25  1  0.27958896  0.27226184  0.97907119  1.0
  C  C26  1  0.31424768  0.20087280  0.95966787  1.0
  C  C27  1  0.54963750  0.15839648  0.97483880  1.0
  C  C28  1  0.57896623  0.08827579  0.95977195  1.0
  C  C29  1  0.37059759  0.06212742  0.92756091  1.0
  C  C30  1  0.13554252  0.10475212  0.91277217  1.0
  C  C31  1  0.10150385  0.17357451  0.92888407  1.0
  C  C32  1  0.80380065  0.04210461  0.98114668  1.0
  C  C33  1  0.24227601  0.38070109  0.09797744  1.0
  C  C34  1  0.36545752  0.38526086  0.14446933  1.0
  C  C35  1  0.20751508  0.35142790  0.17855515  1.0
  C  C36  1  0.32303413  0.35192831  0.22350342  1.0
  C  C37  1  0.58566093  0.38936418  0.23368938  1.0
  C  C38  1  0.74203687  0.42434913  0.19905917  1.0
  C  C39  1  0.62612985  0.42260322  0.15496308  1.0
  C  C40  1  0.15193514  0.31330422  0.25622127  1.0
  C  C41  1  0.84361807  0.22740949  0.30546996  1.0
  C  C42  1  0.78450489  0.06305809  0.43547092  1.0
  C  C43  1  0.66675528  0.08936009  0.39165389  1.0
  C  C44  1  0.82017865  0.14384125  0.36961411  1.0
  C  C45  1  0.69086834  0.17169388  0.32952678  1.0
  C  C46  1  0.42593876  0.14351067  0.31123866  1.0
  C  C47  1  0.26805664  0.09086246  0.33443874  1.0
  C  C48  1  0.39761153  0.06324022  0.37425528  1.0
  C  C49  1  0.77958994  0.22773556  0.47907223  1.0
  C  C50  1  0.81424746  0.29912473  0.45966766  1.0
  C  C51  1  0.04963885  0.34160206  0.47483814  1.0
  C  C52  1  0.07895935  0.41172211  0.45977090  1.0
  C  C53  1  0.87058608  0.43787056  0.42755976  1.0
  C  C54  1  0.63553763  0.39524543  0.41277126  1.0
  C  C55  1  0.60150456  0.32642260  0.42888312  1.0
  C  C56  1  0.30379993  0.45789300  0.48114555  1.0
  C  C57  1  0.74224857  0.11929875  0.59797885  1.0
  C  C58  1  0.86545500  0.11473774  0.64447077  1.0
  C  C59  1  0.70751733  0.14857118  0.67855581  1.0
  C  C60  1  0.82304308  0.14807286  0.72350400  1.0
  C  C61  1  0.08567534  0.11063645  0.73368946  1.0
  C  C62  1  0.24204145  0.07565122  0.69905993  1.0
  C  C63  1  0.12612956  0.07739419  0.65496397  1.0
  C  C64  1  0.65194828  0.18669752  0.75622157  1.0
  C  C65  1  0.34363004  0.27259359  0.80547035  1.0
  C  C66  1  0.28449151  0.43694701  0.93547176  1.0
  C  C67  1  0.16675000  0.41064238  0.89165398  1.0
  C  C68  1  0.32018156  0.35615947  0.86961534  1.0
  C  C69  1  0.19087512  0.32830592  0.82952717  1.0
  C  C70  1  0.92594652  0.35648940  0.81123863  1.0
  C  C71  1  0.76805373  0.40913656  0.83443804  1.0
  C  C72  1  0.89760943  0.43675956  0.87425477  1.0
  C  C73  1  0.72042415  0.72773443  0.02093041  1.0
  C  C74  1  0.68576110  0.79912375  0.04033404  1.0
  C  C75  1  0.45036987  0.84160098  0.02516340  1.0
  C  C76  1  0.42104388  0.91172108  0.04022972  1.0
  C  C77  1  0.62941777  0.93787038  0.07244068  1.0
  C  C78  1  0.86447168  0.89524574  0.08722943  1.0
  C  C79  1  0.89850556  0.82642167  0.07111761  1.0
  C  C80  1  0.19620608  0.95789219  0.01885474  1.0
  C  C81  1  0.75774022  0.61929798  0.90202261  1.0
  C  C82  1  0.63454602  0.61473969  0.85553107  1.0
  C  C83  1  0.79248426  0.64857410  0.82144562  1.0
  C  C84  1  0.67696172  0.64807538  0.77649760  1.0
  C  C85  1  0.41433413  0.61063963  0.76631116  1.0
  C  C86  1  0.25795987  0.57565359  0.80094113  1.0
  C  C87  1  0.37387261  0.57739724  0.84503729  1.0
  C  C88  1  0.84805960  0.68669998  0.74377965  1.0
  C  C89  1  0.15637129  0.77259568  0.69453068  1.0
  C  C90  1  0.21549935  0.93694463  0.56452737  1.0
  C  C91  1  0.33324774  0.91064234  0.60834514  1.0
  C  C92  1  0.17982029  0.85616074  0.63038520  1.0
  C  C93  1  0.30912846  0.82830844  0.67047365  1.0
  C  C94  1  0.57405241  0.85649289  0.68876177  1.0
  C  C95  1  0.73194222  0.90913908  0.66556143  1.0
  C  C96  1  0.60239185  0.93676075  0.62574383  1.0
  N  N1  1  0.70812542  0.47218041  0.52945949  1.0
  N  N2  1  0.49130018  0.57013815  0.48943281  1.0
  N  N3  1  0.60531015  0.78393688  0.26051095  1.0
  N  N4  1  0.78109247  0.74693937  0.23515560  1.0
  N  N5  1  0.41776014  0.76187256  0.17575551  1.0
  N  N6  1  0.28214405  0.81227663  0.19866211  1.0
  N  N7  1  0.79187870  0.97217844  0.97054107  1.0
  N  N8  1  0.00869781  0.07013789  0.01056733  1.0
  N  N9  1  0.89467865  0.28393768  0.23948855  1.0
  N  N10  1  0.71889553  0.24694269  0.26484399  1.0
  N  N11  1  0.08222482  0.26187657  0.32424339  1.0
  N  N12  1  0.21783212  0.31228123  0.30133707  1.0
  N  N13  1  0.29186257  0.52781921  0.47054047  1.0
  N  N14  1  0.50869280  0.42986133  0.51056650  1.0
  N  N15  1  0.39469272  0.21606291  0.73948898  1.0
  N  N16  1  0.21890666  0.25306013  0.76484475  1.0
  N  N17  1  0.58223723  0.23812632  0.82424428  1.0
  N  N18  1  0.71785485  0.18772215  0.80133723  1.0
  N  N19  1  0.20813875  0.02781859  0.02946039  1.0
  N  N20  1  0.99131176  0.92986021  0.98943410  1.0
  N  N21  1  0.10531257  0.71606571  0.76051267  1.0
  N  N22  1  0.28109604  0.75306328  0.73515666  1.0
  N  N23  1  0.91776406  0.73812913  0.67575718  1.0
  N  N24  1  0.78215072  0.68772488  0.69866418  1.0
  O  O1  1  0.02443966  0.79459946  0.49195559  1.0
  O  O2  1  0.45034665  0.80852692  0.53367464  1.0
  O  O3  1  0.12598077  0.91345393  0.43466687  1.0
  O  O4  1  0.50182437  0.84662851  0.40826346  1.0
  O  O5  1  0.46316513  0.58507446  0.05015978  1.0
  O  O6  1  0.87998139  0.51986529  0.04178785  1.0
  O  O7  1  0.47554307  0.29459834  0.00804131  1.0
  O  O8  1  0.04964097  0.30852426  0.96632018  1.0
  O  O9  1  0.37401966  0.41345003  0.06533247  1.0
  O  O10  1  0.99816468  0.34662204  0.09173262  1.0
  O  O11  1  0.03685205  0.08508183  0.44983899  1.0
  O  O12  1  0.62005004  0.01987156  0.45821490  1.0
  O  O13  1  0.97554204  0.20540153  0.50804297  1.0
  O  O14  1  0.54964407  0.19147409  0.46632137  1.0
  O  O15  1  0.87400910  0.08654792  0.56533284  1.0
  O  O16  1  0.49816410  0.15337240  0.59173641  1.0
  O  O17  1  0.53683883  0.41492272  0.94983964  1.0
  O  O18  1  0.12002322  0.48013371  0.95821289  1.0
  O  O19  1  0.52446806  0.70540030  0.99195906  1.0
  O  O20  1  0.95036743  0.69147213  0.03368097  1.0
  O  O21  1  0.62599000  0.58654856  0.93466778  1.0
  O  O22  1  0.00184370  0.65337564  0.90826682  1.0
  O  O23  1  0.96315304  0.91491997  0.55015993  1.0
  O  O24  1  0.37996442  0.98013063  0.54178474  1.0
