# generated using pymatgen
data_CdH10C11NO4
_symmetry_space_group_name_H-M   'P 1'
_cell_length_a   9.31454000
_cell_length_b   15.44190000
_cell_length_c   21.09697000
_cell_angle_alpha   90.12309000
_cell_angle_beta   90.11091000
_cell_angle_gamma   83.57045000
_symmetry_Int_Tables_number   1
_chemical_formula_structural   CdH10C11NO4
_chemical_formula_sum   'Cd8 H80 C88 N8 O32'
_cell_volume   3015.36846909
_cell_formula_units_Z   8
loop_
 _symmetry_equiv_pos_site_id
 _symmetry_equiv_pos_as_xyz
  1  'x, y, z'
loop_
 _atom_site_type_symbol
 _atom_site_label
 _atom_site_symmetry_multiplicity
 _atom_site_fract_x
 _atom_site_fract_y
 _atom_site_fract_z
 _atom_site_occupancy
  Cd  Cd1  1  0.68488000  0.60595000  0.81302000  1.0
  Cd  Cd2  1  0.85183000  0.92269000  0.02127000  1.0
  Cd  Cd3  1  0.81436000  0.89466000  0.31261000  1.0
  Cd  Cd4  1  0.64865000  0.57757000  0.52149000  1.0
  Cd  Cd5  1  0.31512000  0.39405000  0.18697000  1.0
  Cd  Cd6  1  0.14816000  0.07731000  0.97873000  1.0
  Cd  Cd7  1  0.18564000  0.10534000  0.68739000  1.0
  Cd  Cd8  1  0.35135000  0.42243000  0.47851000  1.0
  H  H1  1  0.88889000  0.71893000  0.23257000  1.0
  H  H2  1  0.11812000  0.93167000  0.25279000  1.0
  H  H3  1  0.71789000  0.67629000  0.95226000  1.0
  H  H4  1  0.58378000  0.69484000  0.05535000  1.0
  H  H5  1  0.26178000  0.54684000  0.97478000  1.0
  H  H6  1  0.41255000  0.53094000  0.87621000  1.0
  H  H7  1  0.22604000  0.60315000  0.07988000  1.0
  H  H8  1  0.38327000  0.61421000  0.12443000  1.0
  H  H9  1  0.21595000  0.76312000  0.04760000  1.0
  H  H10  1  0.37157000  0.77260000  0.09246000  1.0
  H  H11  1  0.28897000  0.87938000  0.16632000  1.0
  H  H12  1  0.04675000  0.65849000  0.14381000  1.0
  H  H13  1  0.24298000  0.81914000  0.76104000  1.0
  H  H14  1  0.98053000  0.82602000  0.75011000  1.0
  H  H15  1  0.95283000  0.88333000  0.82186000  1.0
  H  H16  1  0.12374000  0.70322000  0.80757000  1.0
  H  H17  1  0.12159000  0.69521000  0.92223000  1.0
  H  H18  1  0.30735000  0.80111000  0.93849000  1.0
  H  H19  1  0.32823000  0.73973000  0.86763000  1.0
  H  H20  1  0.37203000  0.88298000  0.84050000  1.0
  H  H21  1  0.61067000  0.78163000  0.73242000  1.0
  H  H22  1  0.38098000  0.56929000  0.75257000  1.0
  H  H23  1  0.78067000  0.82454000  0.45128000  1.0
  H  H24  1  0.91533000  0.80558000  0.55443000  1.0
  H  H25  1  0.23765000  0.95307000  0.47460000  1.0
  H  H26  1  0.08630000  0.96933000  0.37594000  1.0
  H  H27  1  0.27440000  0.89631000  0.57905000  1.0
  H  H28  1  0.11727000  0.88698000  0.62382000  1.0
  H  H29  1  0.28133000  0.73611000  0.54759000  1.0
  H  H30  1  0.12576000  0.72829000  0.59273000  1.0
  H  H31  1  0.20920000  0.62142000  0.66629000  1.0
  H  H32  1  0.45200000  0.84183000  0.64371000  1.0
  H  H33  1  0.25730000  0.68087000  0.26132000  1.0
  H  H34  1  0.52105000  0.67148000  0.25091000  1.0
  H  H35  1  0.54609000  0.61512000  0.32317000  1.0
  H  H36  1  0.37683000  0.79523000  0.30755000  1.0
  H  H37  1  0.38048000  0.80465000  0.42252000  1.0
  H  H38  1  0.19385000  0.69945000  0.43887000  1.0
  H  H39  1  0.17271000  0.76066000  0.36809000  1.0
  H  H40  1  0.12763000  0.61734000  0.34075000  1.0
  H  H41  1  0.11110000  0.28107000  0.76743000  1.0
  H  H42  1  0.88187000  0.06833000  0.74721000  1.0
  H  H43  1  0.28211000  0.32371000  0.04774000  1.0
  H  H44  1  0.41622000  0.30516000  0.94465000  1.0
  H  H45  1  0.73822000  0.45316000  0.02522000  1.0
  H  H46  1  0.58745000  0.46906000  0.12379000  1.0
  H  H47  1  0.77396000  0.39685000  0.92012000  1.0
  H  H48  1  0.61673000  0.38579000  0.87557000  1.0
  H  H49  1  0.78405000  0.23688000  0.95240000  1.0
  H  H50  1  0.62843000  0.22740000  0.90754000  1.0
  H  H51  1  0.71103000  0.12063000  0.83368000  1.0
  H  H52  1  0.95325000  0.34151000  0.85619000  1.0
  H  H53  1  0.75701000  0.18086000  0.23896000  1.0
  H  H54  1  0.01947000  0.17398000  0.24989000  1.0
  H  H55  1  0.04717000  0.11667000  0.17814000  1.0
  H  H56  1  0.87626000  0.29678000  0.19242000  1.0
  H  H57  1  0.87841000  0.30479000  0.07777000  1.0
  H  H58  1  0.69264000  0.19889000  0.06151000  1.0
  H  H59  1  0.67176000  0.26027000  0.13237000  1.0
  H  H60  1  0.62797000  0.11702000  0.15950000  1.0
  H  H61  1  0.38933000  0.21837000  0.26758000  1.0
  H  H62  1  0.61902000  0.43071000  0.24742000  1.0
  H  H63  1  0.21933000  0.17546000  0.54872000  1.0
  H  H64  1  0.08467000  0.19442000  0.44557000  1.0
  H  H65  1  0.76235000  0.04693000  0.52540000  1.0
  H  H66  1  0.91370000  0.03067000  0.62406000  1.0
  H  H67  1  0.72559000  0.10370000  0.42095000  1.0
  H  H68  1  0.88273000  0.11303000  0.37618000  1.0
  H  H69  1  0.71867000  0.26389000  0.45240000  1.0
  H  H70  1  0.87424000  0.27171000  0.40727000  1.0
  H  H71  1  0.79080000  0.37858000  0.33371000  1.0
  H  H72  1  0.54799000  0.15817000  0.35629000  1.0
  H  H73  1  0.74270000  0.31913000  0.73868000  1.0
  H  H74  1  0.47895000  0.32852000  0.74909000  1.0
  H  H75  1  0.45390000  0.38488000  0.67683000  1.0
  H  H76  1  0.62316000  0.20477000  0.69245000  1.0
  H  H77  1  0.61952000  0.19535000  0.57748000  1.0
  H  H78  1  0.80615000  0.30055000  0.56113000  1.0
  H  H79  1  0.82729000  0.23934000  0.63191000  1.0
  H  H80  1  0.87237000  0.38266000  0.65925000  1.0
  C  C1  1  0.97946000  0.75182000  0.21619000  1.0
  C  C2  1  0.10886000  0.87044000  0.22828000  1.0
  C  C3  1  0.61652000  0.64868000  0.95986000  1.0
  C  C4  1  0.54085000  0.65875000  0.01659000  1.0
  C  C5  1  0.40910000  0.62360000  0.02342000  1.0
  C  C6  1  0.36195000  0.57680000  0.97195000  1.0
  C  C7  1  0.44434000  0.56804000  0.91685000  1.0
  C  C8  1  0.32072000  0.63940000  0.08271000  1.0
  C  C9  1  0.27495000  0.73796000  0.09029000  1.0
  C  C10  1  0.18135000  0.76491000  0.14641000  1.0
  C  C11  1  0.20184000  0.84148000  0.17937000  1.0
  C  C12  1  0.06752000  0.71932000  0.16636000  1.0
  C  C13  1  0.16876000  0.95079000  0.74960000  1.0
  C  C14  1  0.17531000  0.86819000  0.78933000  1.0
  C  C15  1  0.02749000  0.83491000  0.79694000  1.0
  C  C16  1  0.04319000  0.74864000  0.83303000  1.0
  C  C17  1  0.90870000  0.70098000  0.83241000  1.0
  C  C18  1  0.10830000  0.75966000  0.89915000  1.0
  C  C19  1  0.25865000  0.79149000  0.89207000  1.0
  C  C20  1  0.25905000  0.87556000  0.85189000  1.0
  C  C21  1  0.01058000  0.81668000  0.94418000  1.0
  C  C22  1  0.20766000  0.95540000  0.89164000  1.0
  C  C23  1  0.51993000  0.74873000  0.71600000  1.0
  C  C24  1  0.39024000  0.63036000  0.72808000  1.0
  C  C25  1  0.88229000  0.85187000  0.45911000  1.0
  C  C26  1  0.95827000  0.84162000  0.51583000  1.0
  C  C27  1  0.09024000  0.87655000  0.52285000  1.0
  C  C28  1  0.13732000  0.92329000  0.47157000  1.0
  C  C29  1  0.05468000  0.93225000  0.41646000  1.0
  C  C30  1  0.17894000  0.86083000  0.58214000  1.0
  C  C31  1  0.22306000  0.76224000  0.59019000  1.0
  C  C32  1  0.31716000  0.73556000  0.64629000  1.0
  C  C33  1  0.29674000  0.65921000  0.67925000  1.0
  C  C34  1  0.43136000  0.78110000  0.66622000  1.0
  C  C35  1  0.32886000  0.54861000  0.24963000  1.0
  C  C36  1  0.32414000  0.63133000  0.28951000  1.0
  C  C37  1  0.47292000  0.66353000  0.29752000  1.0
  C  C38  1  0.45763000  0.75031000  0.33322000  1.0
  C  C39  1  0.59140000  0.79869000  0.33247000  1.0
  C  C40  1  0.39293000  0.74011000  0.39936000  1.0
  C  C41  1  0.24216000  0.70869000  0.39241000  1.0
  C  C42  1  0.24075000  0.62450000  0.35210000  1.0
  C  C43  1  0.49185000  0.68326000  0.44396000  1.0
  C  C44  1  0.29308000  0.54471000  0.39164000  1.0
  C  C45  1  0.02054000  0.24818000  0.78380000  1.0
  C  C46  1  0.89114000  0.12956000  0.77172000  1.0
  C  C47  1  0.38348000  0.35132000  0.04013000  1.0
  C  C48  1  0.45915000  0.34125000  0.98341000  1.0
  C  C49  1  0.59089000  0.37640000  0.97658000  1.0
  C  C50  1  0.63805000  0.42320000  0.02805000  1.0
  C  C51  1  0.55566000  0.43196000  0.08314000  1.0
  C  C52  1  0.67928000  0.36060000  0.91729000  1.0
  C  C53  1  0.72505000  0.26204000  0.90971000  1.0
  C  C54  1  0.81865000  0.23509000  0.85358000  1.0
  C  C55  1  0.79815000  0.15852000  0.82063000  1.0
  C  C56  1  0.93248000  0.28068000  0.83364000  1.0
  C  C57  1  0.83124000  0.04921000  0.25039000  1.0
  C  C58  1  0.82469000  0.13181000  0.21067000  1.0
  C  C59  1  0.97251000  0.16509000  0.20306000  1.0
  C  C60  1  0.95681000  0.25136000  0.16697000  1.0
  C  C61  1  0.09130000  0.29902000  0.16759000  1.0
  C  C62  1  0.89170000  0.24034000  0.10085000  1.0
  C  C63  1  0.74135000  0.20851000  0.10793000  1.0
  C  C64  1  0.74094000  0.12444000  0.14811000  1.0
  C  C65  1  0.98942000  0.18332000  0.05582000  1.0
  C  C66  1  0.79234000  0.04460000  0.10836000  1.0
  C  C67  1  0.48007000  0.25127000  0.28400000  1.0
  C  C68  1  0.60975000  0.36964000  0.27192000  1.0
  C  C69  1  0.11771000  0.14813000  0.54089000  1.0
  C  C70  1  0.04173000  0.15838000  0.48416000  1.0
  C  C71  1  0.90975000  0.12345000  0.47714000  1.0
  C  C72  1  0.86268000  0.07671000  0.52843000  1.0
  C  C73  1  0.94531000  0.06775000  0.58354000  1.0
  C  C74  1  0.82105000  0.13917000  0.41786000  1.0
  C  C75  1  0.77694000  0.23776000  0.40981000  1.0
  C  C76  1  0.68284000  0.26444000  0.35371000  1.0
  C  C77  1  0.70326000  0.34079000  0.32075000  1.0
  C  C78  1  0.56863000  0.21890000  0.33378000  1.0
  C  C79  1  0.67114000  0.45139000  0.75036000  1.0
  C  C80  1  0.67586000  0.36867000  0.71049000  1.0
  C  C81  1  0.52708000  0.33647000  0.70247000  1.0
  C  C82  1  0.54236000  0.24969000  0.66678000  1.0
  C  C83  1  0.40860000  0.20131000  0.66753000  1.0
  C  C84  1  0.60707000  0.25989000  0.60064000  1.0
  C  C85  1  0.75784000  0.29131000  0.60759000  1.0
  C  C86  1  0.75925000  0.37550000  0.64790000  1.0
  C  C87  1  0.50814000  0.31674000  0.55604000  1.0
  C  C88  1  0.70692000  0.45529000  0.60836000  1.0
  N  N1  1  0.99881000  0.82657000  0.24673000  1.0
  N  N2  1  0.56863000  0.60423000  0.91036000  1.0
  N  N3  1  0.50078000  0.67409000  0.74646000  1.0
  N  N4  1  0.93013000  0.89630000  0.40981000  1.0
  N  N5  1  0.00119000  0.17343000  0.75327000  1.0
  N  N6  1  0.43136000  0.39577000  0.08963000  1.0
  N  N7  1  0.49922000  0.32591000  0.25354000  1.0
  N  N8  1  0.06987000  0.10370000  0.59019000  1.0
  O  O1  1  0.90125000  0.63723000  0.87015000  1.0
  O  O2  1  0.81268000  0.72298000  0.79031000  1.0
  O  O3  1  0.87302000  0.82676000  0.93728000  1.0
  O  O4  1  0.07060000  0.85319000  0.99051000  1.0
  O  O5  1  0.08190000  0.99543000  0.88651000  1.0
  O  O6  1  0.29962000  0.97859000  0.93321000  1.0
  O  O7  1  0.06471000  0.96894000  0.71094000  1.0
  O  O8  1  0.27306000  0.99775000  0.75556000  1.0
  O  O9  1  0.59957000  0.86120000  0.37140000  1.0
  O  O10  1  0.68539000  0.77893000  0.28910000  1.0
  O  O11  1  0.62840000  0.67084000  0.43521000  1.0
  O  O12  1  0.43446000  0.64929000  0.49204000  1.0
  O  O13  1  0.42034000  0.50664000  0.38770000  1.0
  O  O14  1  0.20026000  0.51956000  0.43187000  1.0
  O  O15  1  0.43487000  0.52897000  0.21227000  1.0
  O  O16  1  0.22235000  0.50306000  0.25404000  1.0
  O  O17  1  0.09874000  0.36277000  0.12985000  1.0
  O  O18  1  0.18732000  0.27702000  0.20969000  1.0
  O  O19  1  0.12697000  0.17324000  0.06272000  1.0
  O  O20  1  0.92940000  0.14681000  0.00949000  1.0
  O  O21  1  0.91810000  0.00457000  0.11349000  1.0
  O  O22  1  0.70038000  0.02141000  0.06679000  1.0
  O  O23  1  0.93529000  0.03106000  0.28906000  1.0
  O  O24  1  0.72694000  0.00226000  0.24443000  1.0
  O  O25  1  0.40043000  0.13880000  0.62860000  1.0
  O  O26  1  0.31461000  0.22107000  0.71090000  1.0
  O  O27  1  0.37160000  0.32916000  0.56479000  1.0
  O  O28  1  0.56553000  0.35071000  0.50796000  1.0
  O  O29  1  0.57966000  0.49336000  0.61230000  1.0
  O  O30  1  0.79974000  0.48044000  0.56813000  1.0
  O  O31  1  0.56512000  0.47103000  0.78773000  1.0
  O  O32  1  0.77764000  0.49695000  0.74596000  1.0
