# generated using pymatgen
data_H24C43(NO)8
_symmetry_space_group_name_H-M   'P 1'
_cell_length_a   17.95040000
_cell_length_b   31.09100482
_cell_length_c   53.54990000
_cell_angle_alpha   90.00000000
_cell_angle_beta   90.00280000
_cell_angle_gamma   90.00000000
_symmetry_Int_Tables_number   1
_chemical_formula_structural   H24C43(NO)8
_chemical_formula_sum   'H144 C258 N48 O48'
_cell_volume   29885.98350096
_cell_formula_units_Z   6
loop_
 _symmetry_equiv_pos_site_id
 _symmetry_equiv_pos_as_xyz
  1  'x, y, z'
loop_
 _atom_site_type_symbol
 _atom_site_label
 _atom_site_symmetry_multiplicity
 _atom_site_fract_x
 _atom_site_fract_y
 _atom_site_fract_z
 _atom_site_occupancy
  C  1  1  0.94857100  0.04732700  0.00965700  1
  C  2  1  0.95032700  0.09291000  0.00946200  1
  C  3  1  0.09183200  0.09285700  0.00954100  1
  C  4  1  0.09352000  0.04727000  0.00975900  1
  C  5  1  0.16498300  0.02681000  0.00981300  1
  C  6  1  0.23347900  0.05002000  0.00965000  1
  C  7  1  0.22844900  0.09540400  0.00944500  1
  C  8  1  0.15920900  0.11634000  0.00940400  1
  C  9  1  0.88298100  0.11643200  0.00930300  1
  C  10  1  0.81369500  0.09554000  0.00933300  1
  C  11  1  0.80859100  0.05016000  0.00953600  1
  C  12  1  0.87705200  0.02692000  0.00969400  1
  C  13  1  0.52100300  0.49592400  0.98546300  1
  C  14  1  0.51965000  0.45033900  0.98619500  1
  C  15  1  0.52006600  0.45080500  0.03358900  1
  C  16  1  0.52081300  0.49639700  0.03396400  1
  C  17  1  0.51988600  0.42758600  0.05627100  1
  C  18  1  0.52031300  0.44881700  0.07939100  1
  C  19  1  0.52091000  0.49421300  0.08083900  1
  C  20  1  0.02113300  0.01713700  0.05801000  1
  C  21  1  0.02241400  0.01610900  0.96165900  1
  C  22  1  0.52229800  0.49270500  0.93862700  1
  C  23  1  0.52048300  0.44733500  0.94044000  1
  C  24  1  0.51910400  0.42662100  0.96370100  1
  C  37  1  0.02101500  0.02172300  0.00982000  1
  C  38  1  0.51915400  0.42587500  0.00997800  1
  C  41  1  0.02110400  0.11755300  0.00940600  1
  C  44  1  0.02068200  0.01553100  0.10425600  1
  C  45  1  0.73878800  0.02928700  0.00955000  1
  C  46  1  0.02650000  0.01311200  0.91539000  1
  C  50  1  0.30326700  0.02913400  0.00965300  1
  C  52  1  0.49711800  0.45517600  0.67616900  1
  C  53  1  0.42788200  0.43324400  0.67601600  1
  C  54  1  0.35716800  0.50401300  0.67606200  1
  C  55  1  0.92624000  0.02819900  0.67570000  1
  C  56  1  0.92127100  0.07415100  0.67649900  1
  C  57  1  0.85249500  0.09693100  0.67487900  1
  C  58  1  0.78730700  0.07191300  0.67192400  1
  C  59  1  0.79043700  0.02685700  0.67111200  1
  C  60  1  0.42631200  0.38780300  0.67593500  1
  C  61  1  0.49231500  0.36362300  0.67602900  1
  C  62  1  0.56291700  0.38378300  0.67620100  1
  C  63  1  0.56350200  0.42963500  0.67625300  1
  C  64  1  0.04011800  0.01734000  0.65226800  1
  C  65  1  0.10913500  0.03944400  0.65310300  1
  C  66  1  0.10737600  0.03930800  0.70050100  1
  C  67  1  0.03834100  0.01712600  0.70076100  1
  C  68  1  0.14217000  0.05061500  0.72323700  1
  C  69  1  0.10979400  0.04020300  0.74630000  1
  C  70  1  0.04112600  0.01805700  0.74764200  1
  C  71  1  0.50613400  0.50659000  0.72448100  1
  C  72  1  0.50698900  0.50768000  0.62813100  1
  C  73  1  0.04461100  0.01979500  0.60544100  1
  C  74  1  0.11354700  0.04157500  0.60733200  1
  C  75  1  0.14517000  0.05111200  0.63064700  1
  C  88  1  0.49927900  0.50420000  0.67629600  1
  C  89  1  0.14571900  0.05130400  0.67696600  1
  C  92  1  0.35551700  0.45629900  0.67594500  1
  C  95  1  0.50878000  0.50720100  0.77072000  1
  C  96  1  0.62916900  0.35935800  0.67626600  1
  C  97  1  0.50946800  0.51120200  0.58186300  1
  C  101  1  0.84876600  0.14222800  0.67593500  1
  C  103  1  0.11084600  0.02557300  0.34300900  1
  C  104  1  0.67836400  0.50189700  0.34265800  1
  C  105  1  0.60752400  0.43117300  0.34273800  1
  C  106  1  0.53830100  0.45312400  0.34291000  1
  C  107  1  0.47187700  0.42762500  0.34296800  1
  C  108  1  0.47243600  0.38177200  0.34285900  1
  C  109  1  0.54302600  0.36159300  0.34269900  1
  C  110  1  0.60905700  0.38574100  0.34264700  1
  C  111  1  0.24729900  0.02381600  0.34262200  1
  C  112  1  0.25060200  0.06890600  0.34265000  1
  C  113  1  0.18508500  0.09414800  0.34286700  1
  C  114  1  0.11599700  0.07153500  0.34304200  1
  C  115  1  0.99743900  0.01510500  0.31901800  1
  C  116  1  0.92975400  0.03858100  0.31976500  1
  C  117  1  0.93030100  0.03810400  0.36716400  1
  C  118  1  0.99831100  0.01492600  0.36752400  1
  C  119  1  0.89558100  0.04978700  0.38985100  1
  C  120  1  0.92721600  0.03893400  0.41296800  1
  C  121  1  0.99500800  0.01593300  0.41440600  1
  C  122  1  0.52929800  0.50442200  0.39113800  1
  C  123  1  0.52715500  0.50426100  0.29479200  1
  C  124  1  0.99193500  0.01611100  0.27218000  1
  C  125  1  0.92479200  0.03970600  0.27400600  1
  C  126  1  0.89443600  0.05073600  0.29727600  1
  C  139  1  0.53623900  0.50215100  0.34295300  1
  C  140  1  0.89334500  0.05104700  0.34355800  1
  C  143  1  0.67993500  0.45418900  0.34262000  1
  C  146  1  0.52713800  0.50549000  0.43738100  1
  C  147  1  0.18867100  0.13948600  0.34287100  1
  C  148  1  0.52068800  0.50378200  0.24852500  1
  C  152  1  0.40620900  0.35732500  0.34288000  1
  C  154  1  0.51601600  0.50570200  0.14974200  1
  C  155  1  0.54615800  0.47473500  0.16618600  1
  C  156  1  0.54192900  0.47957200  0.19229500  1
  C  157  1  0.00637600  0.01563900  0.20325700  1
  C  158  1  0.97483700  0.04700900  0.18706800  1
  C  161  1  0.97943400  0.04210300  0.16044100  1
  C  170  1  0.02627000  0.00980200  0.81657800  1
  C  171  1  0.05774900  0.04031400  0.83303200  1
  C  172  1  0.05256900  0.03578900  0.85914400  1
  C  173  1  0.51577600  0.50014700  0.86971300  1
  C  174  1  0.48447700  0.46866900  0.85354500  1
  C  177  1  0.48953000  0.47338100  0.82691600  1
  C  186  1  0.51468400  0.51269100  0.48307600  1
  C  187  1  0.45316000  0.51309300  0.49951700  1
  C  188  1  0.46252400  0.51277200  0.52562700  1
  C  189  1  0.53428200  0.51250800  0.53637800  1
  C  190  1  0.59714200  0.51261400  0.52020800  1
  C  193  1  0.58753500  0.51279100  0.49357900  1
  C  202  1  0.60139300  0.04444900  0.00961300  1
  C  203  1  0.56012900  0.08299600  0.01076000  1
  C  204  1  0.48182000  0.08296300  0.01077200  1
  C  205  1  0.44065300  0.04438200  0.00962500  1
  C  206  1  0.98094300  0.50498800  0.00834500  1
  C  209  1  0.06121000  0.50502000  0.00834700  1
  C  218  1  0.67560000  0.28320000  0.67637800  1
  C  219  1  0.63875700  0.24317200  0.67737700  1
  C  220  1  0.67828500  0.20414300  0.67717200  1
  C  221  1  0.75675100  0.20309200  0.67601000  1
  C  222  1  0.79540200  0.24305400  0.67495700  1
  C  225  1  0.75488000  0.28305500  0.67514700  1
  C  234  1  0.28010500  0.20060500  0.34292300  1
  C  235  1  0.35856000  0.20196600  0.34405600  1
  C  236  1  0.39766400  0.24113500  0.34405300  1
  C  237  1  0.36037600  0.28100900  0.34289900  1
  C  238  1  0.28110900  0.28057600  0.34165300  1
  C  241  1  0.24102500  0.24042600  0.34168300  1
  C  250  1  0.44858200  0.54736700  0.00947800  1
  C  251  1  0.45033500  0.59295200  0.00934000  1
  C  252  1  0.59183900  0.59289800  0.00942200  1
  C  253  1  0.59352700  0.54731200  0.00958300  1
  C  254  1  0.66499000  0.52685000  0.00964100  1
  C  255  1  0.73348900  0.55005900  0.00954300  1
  C  256  1  0.72846100  0.59544200  0.00939400  1
  C  257  1  0.65922500  0.61638000  0.00934200  1
  C  258  1  0.38298500  0.61647400  0.00923600  1
  C  259  1  0.31370100  0.59557700  0.00927300  1
  C  260  1  0.30859900  0.55019700  0.00942000  1
  C  261  1  0.37706400  0.52695900  0.00951500  1
  C  262  1  0.02099100  0.99586900  0.98566100  1
  C  263  1  0.01960900  0.95028700  0.98640300  1
  C  264  1  0.02006000  0.95077900  0.03380000  1
  C  265  1  0.02081400  0.99637400  0.03416700  1
  C  266  1  0.01990900  0.92757000  0.05648600  1
  C  267  1  0.02037300  0.94881100  0.07960300  1
  C  268  1  0.02097200  0.99420900  0.08104600  1
  C  269  1  0.52110400  0.51715200  0.05780800  1
  C  270  1  0.52238900  0.51617500  0.96146300  1
  C  271  1  0.02234900  0.99263700  0.93882300  1
  C  272  1  0.02047200  0.94726700  0.94064400  1
  C  273  1  0.01904900  0.92656300  0.96391000  1
  C  286  1  0.52102300  0.52176500  0.00962400  1
  C  287  1  0.01911200  0.92583900  0.01019200  1
  C  290  1  0.52111300  0.61759300  0.00930800  1
  C  293  1  0.52059700  0.51553100  0.10404800  1
  C  294  1  0.23880000  0.52932000  0.00944400  1
  C  295  1  0.52634100  0.51318300  0.91519600  1
  C  299  1  0.80327500  0.52916900  0.00955800  1
  C  301  1  0.99818800  0.95553600  0.67603100  1
  C  302  1  0.92898100  0.93381300  0.67412000  1
  C  303  1  0.85892600  0.00474900  0.67313400  1
  C  304  1  0.42469100  0.52766700  0.67624400  1
  C  305  1  0.41962700  0.57362800  0.67631500  1
  C  306  1  0.35054900  0.59626200  0.67621600  1
  C  307  1  0.28500200  0.57104200  0.67603600  1
  C  308  1  0.28824400  0.52595200  0.67596700  1
  C  309  1  0.92707000  0.88839400  0.67353800  1
  C  310  1  0.99273500  0.86401100  0.67474000  1
  C  311  1  0.06334500  0.88394300  0.67646600  1
  C  312  1  0.06427200  0.92978900  0.67705400  1
  C  313  1  0.53805100  0.51711000  0.65213300  1
  C  314  1  0.60706900  0.53926200  0.65286900  1
  C  315  1  0.60615500  0.53924900  0.70026000  1
  C  316  1  0.53741400  0.51680800  0.70063600  1
  C  317  1  0.64105100  0.55080200  0.72294200  1
  C  318  1  0.60898700  0.54041600  0.74606300  1
  C  319  1  0.54061000  0.51799800  0.74751000  1
  C  320  1  0.00665100  0.00694000  0.72454600  1
  C  321  1  0.00934100  0.00795000  0.62822100  1
  C  322  1  0.54220500  0.51940700  0.60529700  1
  C  323  1  0.61113400  0.54122000  0.60711200  1
  C  324  1  0.64288600  0.55088600  0.63037600  1
  C  337  1  0.00067800  0.00456300  0.67632200  1
  C  338  1  0.64400000  0.55125900  0.67665100  1
  C  341  1  0.85707000  0.95707700  0.67217100  1
  C  344  1  0.00921400  0.00720700  0.77084300  1
  C  345  1  0.12926600  0.85927700  0.67739000  1
  C  346  1  0.01163900  0.01167900  0.58204600  1
  C  350  1  0.34695900  0.64160000  0.67627300  1
  C  352  1  0.61086600  0.52557000  0.34280500  1
  C  353  1  0.17834300  0.00190300  0.34279800  1
  C  354  1  0.10750900  0.93117800  0.34287300  1
  C  355  1  0.03828500  0.95313000  0.34310400  1
  C  356  1  0.97186200  0.92762800  0.34315800  1
  C  357  1  0.97242400  0.88177500  0.34298100  1
  C  358  1  0.04301400  0.86159600  0.34276200  1
  C  359  1  0.10904100  0.88574700  0.34271900  1
  C  360  1  0.74732100  0.52381300  0.34254600  1
  C  361  1  0.75062300  0.56890400  0.34258500  1
  C  362  1  0.68510300  0.59414600  0.34273800  1
  C  363  1  0.61601400  0.57153100  0.34284100  1
  C  364  1  0.49748000  0.51508400  0.31879200  1
  C  365  1  0.42979400  0.53856000  0.31952600  1
  C  366  1  0.43030500  0.53812300  0.36692100  1
  C  367  1  0.49830600  0.51494300  0.36729500  1
  C  368  1  0.39557900  0.54983100  0.38960300  1
  C  369  1  0.42721500  0.53900100  0.41272300  1
  C  370  1  0.49500700  0.51599800  0.41417000  1
  C  371  1  0.02929900  0.00438000  0.39136700  1
  C  372  1  0.02709600  0.00430600  0.29501100  1
  C  373  1  0.49199700  0.51604600  0.27195600  1
  C  374  1  0.42485600  0.53964400  0.27376900  1
  C  375  1  0.39448700  0.55069900  0.29703100  1
  C  388  1  0.03621700  0.00215400  0.34317300  1
  C  389  1  0.39336200  0.55105000  0.34330900  1
  C  392  1  0.17991800  0.95419100  0.34273100  1
  C  395  1  0.02716000  0.00541200  0.43761400  1
  C  396  1  0.68868700  0.63948000  0.34276000  1
  C  397  1  0.02061600  0.00386500  0.24874200  1
  C  401  1  0.90619800  0.85732800  0.34298500  1
  C  403  1  0.01604100  0.00572400  0.14995400  1
  C  404  1  0.04616900  0.97477300  0.16641200  1
  C  405  1  0.04190000  0.97963000  0.19252100  1
  C  406  1  0.50643200  0.51558000  0.20304200  1
  C  407  1  0.47487600  0.54696500  0.18687000  1
  C  410  1  0.47943800  0.54207900  0.16024100  1
  C  419  1  0.52580600  0.50985400  0.81641400  1
  C  420  1  0.55718100  0.54041900  0.83285300  1
  C  421  1  0.55203500  0.53589700  0.85896300  1
  C  422  1  0.01613400  0.00009200  0.86989300  1
  C  423  1  0.98476800  0.96865500  0.85371200  1
  C  426  1  0.98991600  0.97335500  0.82708200  1
  C  435  1  0.01523500  0.01276300  0.48330600  1
  C  436  1  0.95396600  0.01325100  0.49985500  1
  C  437  1  0.96374400  0.01305300  0.52595000  1
  C  438  1  0.03568700  0.01282200  0.53656800  1
  C  439  1  0.09827500  0.01277900  0.52029400  1
  C  442  1  0.08824800  0.01286500  0.49368700  1
  C  451  1  0.10140500  0.54447200  0.00957600  1
  C  452  1  0.06014000  0.58302000  0.01072700  1
  C  453  1  0.98183500  0.58298800  0.01073900  1
  C  454  1  0.94066400  0.54440500  0.00959000  1
  C  455  1  0.48093300  0.00496500  0.00836700  1
  C  458  1  0.56120000  0.00500000  0.00837100  1
  C  467  1  0.17492500  0.78300700  0.67662100  1
  C  468  1  0.13772800  0.74309800  0.67767200  1
  C  469  1  0.17693000  0.70395900  0.67762000  1
  C  470  1  0.25538500  0.70266600  0.67644000  1
  C  471  1  0.29435800  0.74252000  0.67520500  1
  C  474  1  0.25417800  0.78263700  0.67529300  1
  C  483  1  0.78011100  0.70060400  0.34289300  1
  C  484  1  0.85856300  0.70196400  0.34404200  1
  C  485  1  0.89766400  0.74113600  0.34406600  1
  C  486  1  0.86037300  0.78101000  0.34292700  1
  C  487  1  0.78111300  0.78057600  0.34166600  1
  C  490  1  0.74102700  0.74042600  0.34167000  1
  H  25  1  0.52106100  0.42851900  0.92475400  1
  H  26  1  0.51832900  0.39368900  0.96409300  1
  H  27  1  0.51930600  0.39464800  0.05612100  1
  H  28  1  0.52004100  0.43041000  0.09523800  1
  H  29  1  0.02138400  0.05004900  0.05850900  1
  H  30  1  0.02384500  0.04899300  0.96087500  1
  H  31  1  0.66690300  0.49394600  0.00973700  1
  H  32  1  0.27543400  0.11405500  0.00930800  1
  H  33  1  0.15835700  0.14927800  0.00923200  1
  H  34  1  0.37507000  0.49405900  0.00962400  1
  H  35  1  0.88389400  0.14937000  0.00915300  1
  H  36  1  0.76673700  0.11421300  0.00920000  1
  H  39  1  0.46923400  0.40567600  0.01009800  1
  H  40  1  0.56796700  0.40479200  0.01000300  1
  H  42  1  0.02105200  0.13840300  0.02586700  1
  H  43  1  0.02119700  0.13799500  0.99277100  1
  H  47  1  0.03952000  0.04413900  0.91466600  1
  H  48  1  0.02302500  0.04742600  0.10434700  1
  H  49  1  0.23788400  0.49744600  0.00944800  1
  H  51  1  0.80419700  0.49729400  0.00962500  1
  H  76  1  0.14151000  0.05135300  0.59167000  1
  H  77  1  0.19495100  0.06719000  0.63111000  1
  H  78  1  0.19206200  0.06660200  0.72317400  1
  H  79  1  0.13754100  0.04906700  0.76218600  1
  H  80  1  0.45665800  0.49024100  0.72498700  1
  H  81  1  0.45698900  0.49191000  0.62735100  1
  H  82  1  0.96950300  0.09145700  0.67822100  1
  H  83  1  0.73612700  0.08618700  0.67040200  1
  H  84  1  0.23927000  0.50905000  0.67582900  1
  H  85  1  0.61383000  0.44510300  0.67637200  1
  H  86  1  0.37645900  0.37177900  0.67582000  1
  H  87  1  0.48782200  0.33080600  0.67596500  1
  H  90  1  0.20089300  0.03634600  0.67717000  1
  H  91  1  0.15312700  0.08624100  0.67703400  1
  H  93  1  0.32428900  0.44586800  0.69241500  1
  H  94  1  0.32479600  0.44609300  0.65931900  1
  H  98  1  0.45643100  0.50218000  0.58112900  1
  H  99  1  0.45978100  0.49240600  0.77081500  1
  H  100  1  0.67738200  0.37488600  0.67625700  1
  H  102  1  0.89592400  0.15864200  0.67731000  1
  H  127  1  0.89628000  0.04884700  0.25832500  1
  H  128  1  0.84543400  0.06759800  0.29767500  1
  H  129  1  0.84646200  0.06655000  0.38970900  1
  H  130  1  0.89976000  0.04826000  0.42882000  1
  H  131  1  0.57853500  0.48783500  0.39164200  1
  H  132  1  0.57577900  0.48711800  0.29401200  1
  H  133  1  0.42156800  0.44312100  0.34307000  1
  H  134  1  0.54750900  0.32877300  0.34260700  1
  H  135  1  0.65888700  0.36969800  0.34251600  1
  H  136  1  0.06764800  0.08898300  0.34319400  1
  H  137  1  0.79627200  0.50688900  0.34243700  1
  H  138  1  0.30208800  0.08304800  0.34250100  1
  H  141  1  0.88802000  0.08610600  0.34368700  1
  H  142  1  0.83730800  0.03718900  0.34358400  1
  H  144  1  0.71117200  0.44381300  0.35910200  1
  H  145  1  0.71061600  0.44389600  0.32600400  1
  H  149  1  0.56071500  0.48175600  0.24779500  1
  H  150  1  0.57383600  0.48839500  0.43747400  1
  H  151  1  0.14132400  0.15588200  0.34289900  1
  H  153  1  0.35793700  0.37279900  0.34297900  1
  H  159  1  0.56317100  0.45584200  0.20344000  1
  H  160  1  0.57088600  0.44760800  0.15917400  1
  H  175  1  0.07760000  0.05824900  0.87029400  1
  H  176  1  0.08615600  0.06621500  0.82602200  1
  H  191  1  0.41630800  0.51400300  0.53677200  1
  H  192  1  0.40010300  0.51429300  0.49250300  1
  H  207  1  0.45475000  0.11195000  0.01162000  1
  H  208  1  0.58712500  0.11200700  0.01160000  1
  H  223  1  0.64858100  0.17601500  0.67782200  1
  H  224  1  0.58174700  0.24199200  0.67816900  1
  H  239  1  0.45468100  0.24017700  0.34488900  1
  H  240  1  0.38857800  0.17396300  0.34489700  1
  H  274  1  0.02105900  0.92844800  0.92496100  1
  H  275  1  0.01825200  0.89362700  0.96430600  1
  H  276  1  0.01933000  0.89463100  0.05634100  1
  H  277  1  0.02012500  0.93041000  0.09545300  1
  H  278  1  0.52135000  0.55006200  0.05831300  1
  H  279  1  0.52378500  0.54905900  0.96068500  1
  H  280  1  0.16690000  0.99390700  0.00994200  1
  H  281  1  0.77544600  0.61409300  0.00930700  1
  H  282  1  0.65837300  0.64931900  0.00921900  1
  H  283  1  0.87505400  0.99402300  0.00983700  1
  H  284  1  0.38389400  0.64940900  0.00913500  1
  H  285  1  0.26674300  0.61424800  0.00918900  1
  H  288  1  0.96918300  0.90565000  0.01032000  1
  H  289  1  0.06791200  0.90474300  0.01021700  1
  H  291  1  0.52105800  0.63839000  0.02579400  1
  H  292  1  0.52120900  0.63809100  0.99269800  1
  H  296  1  0.53936000  0.54421200  0.91446400  1
  H  297  1  0.52290500  0.54742800  0.10414200  1
  H  298  1  0.73786300  0.99741600  0.00959700  1
  H  300  1  0.30419700  0.99726200  0.00975700  1
  H  325  1  0.63904700  0.55094300  0.59142900  1
  H  326  1  0.69266200  0.56698300  0.63077000  1
  H  327  1  0.69073100  0.56700300  0.72279100  1
  H  328  1  0.63670600  0.54951200  0.76190800  1
  H  329  1  0.95699900  0.99075500  0.72495000  1
  H  330  1  0.95935300  0.99220200  0.62734300  1
  H  331  1  0.46801100  0.59104500  0.67643000  1
  H  332  1  0.23352600  0.58519800  0.67594700  1
  H  333  1  0.74170300  0.01010300  0.66902400  1
  H  334  1  0.11464400  0.94508900  0.67818400  1
  H  335  1  0.87724300  0.87253500  0.67208900  1
  H  336  1  0.98800500  0.83122000  0.67418400  1
  H  339  1  0.69927100  0.53641800  0.67677400  1
  H  340  1  0.65118600  0.58621100  0.67667300  1
  H  342  1  0.82134600  0.94599900  0.68742800  1
  H  343  1  0.83105700  0.94772000  0.65450300  1
  H  347  1  0.95858400  0.00266500  0.58136200  1
  H  348  1  0.96023800  0.99238900  0.77090500  1
  H  349  1  0.17749300  0.87456100  0.67896100  1
  H  351  1  0.39429600  0.65800600  0.67634300  1
  H  376  1  0.39634800  0.54876900  0.25808400  1
  H  377  1  0.34548400  0.56755900  0.29742300  1
  H  378  1  0.34646700  0.56659700  0.38945300  1
  H  379  1  0.39975400  0.54834800  0.42857000  1
  H  380  1  0.07854200  0.98779900  0.39186200  1
  H  381  1  0.07572300  0.98716200  0.29422300  1
  H  382  1  0.92155200  0.94312400  0.34329600  1
  H  383  1  0.04749800  0.82877900  0.34261500  1
  H  384  1  0.15887200  0.86970400  0.34254000  1
  H  385  1  0.56766400  0.58897700  0.34295500  1
  H  386  1  0.29625000  0.00689200  0.34246000  1
  H  387  1  0.80211000  0.58304600  0.34249300  1
  H  390  1  0.38803700  0.58610800  0.34343100  1
  H  391  1  0.33732500  0.53719000  0.34333600  1
  H  393  1  0.21124000  0.94378700  0.35918800  1
  H  394  1  0.21051100  0.94393100  0.32609000  1
  H  398  1  0.06066300  0.98185200  0.24801000  1
  H  399  1  0.07376000  0.98822700  0.43769100  1
  H  400  1  0.64133600  0.65587700  0.34275900  1
  H  402  1  0.85792600  0.87279800  0.34311200  1
  H  408  1  0.06313300  0.95590600  0.20367300  1
  H  409  1  0.07091300  0.94764300  0.15941000  1
  H  424  1  0.57700500  0.55838600  0.87010600  1
  H  425  1  0.58550700  0.56634300  0.82583700  1
  H  440  1  0.91770800  0.01436400  0.53717300  1
  H  441  1  0.90080500  0.01445300  0.49293100  1
  H  456  1  0.95476500  0.61197400  0.01158200  1
  H  457  1  0.08713700  0.61202900  0.01156000  1
  H  472  1  0.14698300  0.67592500  0.67841700  1
  H  473  1  0.08071000  0.74209200  0.67849400  1
  H  488  1  0.95468100  0.74017800  0.34491500  1
  H  489  1  0.88858300  0.67396300  0.34487300  1
  N  162  1  0.93915100  0.08214100  0.19902000  1
  N  163  1  0.94643500  0.07112000  0.14335100  1
  N  168  1  0.51820100  0.49570600  0.12526700  1
  N  169  1  0.99586200  0.01964800  0.22802500  1
  N  178  1  0.44962200  0.43327900  0.86551700  1
  N  179  1  0.46247600  0.44235300  0.80984400  1
  N  184  1  0.04008100  0.01589100  0.79208700  1
  N  185  1  0.51502700  0.49291700  0.89448300  1
  N  194  1  0.66765700  0.51288100  0.53217800  1
  N  195  1  0.64759800  0.51477900  0.47650500  1
  N  200  1  0.49859600  0.51659900  0.45860000  1
  N  201  1  0.54550800  0.51572400  0.56114900  1
  N  210  1  0.93741300  0.46718000  0.00699100  1
  N  211  1  0.10480800  0.46723100  0.00707300  1
  N  216  1  0.67599200  0.04970000  0.00959400  1
  N  217  1  0.36604400  0.04955900  0.00963300  1
  N  226  1  0.87388200  0.24039100  0.67346500  1
  N  227  1  0.78945600  0.32384300  0.67399700  1
  N  232  1  0.63011300  0.31775300  0.67635400  1
  N  233  1  0.78665000  0.16331000  0.67549100  1
  N  242  1  0.24616700  0.32124200  0.34026600  1
  N  243  1  0.16253600  0.23752200  0.34043700  1
  N  248  1  0.25068000  0.16067900  0.34291500  1
  N  249  1  0.40545000  0.31572300  0.34288400  1
  N  411  1  0.43921700  0.58209100  0.19883700  1
  N  412  1  0.44643300  0.57112000  0.14316500  1
  N  417  1  0.01824200  0.99571100  0.12547900  1
  N  418  1  0.49595000  0.51957400  0.22781000  1
  N  427  1  0.94969400  0.93333300  0.86567600  1
  N  428  1  0.96291000  0.94233000  0.81000300  1
  N  433  1  0.53971900  0.51593000  0.79193700  1
  N  434  1  0.01528000  0.99285500  0.89466600  1
  N  443  1  0.16895900  0.01299700  0.53215200  1
  N  444  1  0.14807800  0.01479600  0.47652700  1
  N  449  1  0.99884800  0.01665400  0.45884700  1
  N  450  1  0.04746900  0.01613800  0.56130000  1
  N  459  1  0.43740200  0.96715700  0.00700200  1
  N  460  1  0.60479800  0.96721100  0.00708400  1
  N  465  1  0.17600500  0.54972400  0.00953600  1
  N  466  1  0.86605700  0.54958600  0.00957900  1
  N  475  1  0.37281600  0.73967300  0.67373400  1
  N  476  1  0.28900700  0.82333400  0.67387600  1
  N  481  1  0.12980000  0.81770200  0.67644500  1
  N  482  1  0.28492700  0.66277300  0.67635800  1
  N  491  1  0.74616900  0.82124600  0.34028100  1
  N  492  1  0.66254100  0.73752500  0.34042200  1
  N  497  1  0.75069200  0.66067600  0.34285600  1
  N  498  1  0.90544500  0.81572400  0.34294200  1
  O  164  1  0.96985600  0.11767800  0.19489300  1
  O  165  1  0.97350400  0.10829500  0.14417100  1
  O  166  1  0.87042700  0.08424700  0.19497500  1
  O  167  1  0.87669100  0.07242800  0.14459400  1
  O  180  1  0.38096400  0.43085700  0.86139600  1
  O  181  1  0.39317900  0.43731300  0.81067100  1
  O  182  1  0.48082800  0.39785400  0.86149500  1
  O  183  1  0.49536300  0.40681800  0.81110800  1
  O  196  1  0.70562600  0.47976500  0.52805500  1
  O  197  1  0.68980400  0.48265000  0.47733000  1
  O  198  1  0.70518700  0.54619600  0.52815800  1
  O  199  1  0.68446100  0.54898800  0.47777100  1
  O  212  1  0.94511500  0.44680400  0.98694100  1
  O  213  1  0.09717300  0.44290900  0.02558700  1
  O  214  1  0.94512400  0.44271000  0.02543400  1
  O  215  1  0.09710600  0.44668500  0.98708200  1
  O  228  1  0.90017400  0.25468100  0.65341300  1
  O  229  1  0.82982100  0.33209300  0.69250900  1
  O  230  1  0.90687700  0.25641200  0.69190000  1
  O  231  1  0.82390600  0.33057400  0.65399700  1
  O  244  1  0.21181000  0.32753500  0.32019600  1
  O  245  1  0.12995000  0.25349500  0.35896800  1
  O  246  1  0.20554700  0.32966100  0.35868600  1
  O  247  1  0.13548200  0.25164900  0.32046000  1
  O  413  1  0.46992100  0.61763100  0.19471900  1
  O  414  1  0.47352400  0.60828800  0.14399500  1
  O  415  1  0.37048300  0.58420400  0.19481100  1
  O  416  1  0.37668800  0.57244500  0.14442400  1
  O  429  1  0.88104300  0.93100800  0.86151200  1
  O  430  1  0.89360200  0.93734100  0.81079100  1
  O  431  1  0.98076200  0.89785700  0.86169300  1
  O  432  1  0.99572300  0.90677900  0.81131400  1
  O  445  1  0.20673200  0.97980300  0.52804000  1
  O  446  1  0.19028300  0.98266300  0.47734100  1
  O  447  1  0.20655300  0.04626300  0.52807200  1
  O  448  1  0.18495200  0.04900500  0.47772800  1
  O  461  1  0.44510800  0.94680000  0.98694200  1
  O  462  1  0.59716200  0.94287300  0.02559000  1
  O  463  1  0.44511500  0.94267400  0.02543600  1
  O  464  1  0.59710000  0.94668500  0.98708600  1
  O  477  1  0.39925700  0.75378000  0.65365900  1
  O  478  1  0.32977600  0.83174100  0.69226400  1
  O  479  1  0.40587500  0.75573200  0.69214500  1
  O  480  1  0.32313000  0.82971800  0.65377500  1
  O  493  1  0.71185500  0.82755000  0.32020600  1
  O  494  1  0.62995000  0.75347100  0.35895800  1
  O  495  1  0.70551300  0.82964800  0.35869500  1
  O  496  1  0.63549100  0.75168000  0.32044900  1
