# generated using pymatgen
data_ZnH15(C9O2)3
_symmetry_space_group_name_H-M   'P 1'
_cell_length_a   7.89391000
_cell_length_b   14.65516000
_cell_length_c   28.16266000
_cell_angle_alpha   90.58420000
_cell_angle_beta   89.98870000
_cell_angle_gamma   89.93833000
_symmetry_Int_Tables_number   1
_chemical_formula_structural   ZnH15(C9O2)3
_chemical_formula_sum   'Zn4 H60 C108 O24'
_cell_volume   3257.86864877
_cell_formula_units_Z   4
loop_
 _symmetry_equiv_pos_site_id
 _symmetry_equiv_pos_as_xyz
  1  'x, y, z'
loop_
 _atom_site_type_symbol
 _atom_site_label
 _atom_site_symmetry_multiplicity
 _atom_site_fract_x
 _atom_site_fract_y
 _atom_site_fract_z
 _atom_site_occupancy
  Zn  Zn0  1  0.31329000  0.54367000  0.84411000  1
  Zn  Zn1  1  0.18812000  0.03881000  0.34377000  1
  Zn  Zn2  1  0.81132000  0.95653000  0.65619000  1
  Zn  Zn3  1  0.69541000  0.45669000  0.15604000  1
  H  H4  1  0.55995000  0.67139000  0.56131000  1
  H  H5  1  0.78220000  0.56191000  0.43380000  1
  H  H6  1  0.73621000  0.39445000  0.55819000  1
  H  H7  1  0.27962000  0.60358000  0.69096000  1
  H  H8  1  0.37151000  0.61286000  0.60694000  1
  H  H9  1  0.78555000  0.42928000  0.63648000  1
  H  H10  1  0.69162000  0.42159000  0.72080000  1
  H  H11  1  0.53331000  0.93501000  0.49473000  1
  H  H12  1  0.64524000  0.79937000  0.53274000  1
  H  H13  1  0.58130000  0.64654000  0.40149000  1
  H  H14  1  0.46688000  0.78559000  0.36343000  1
  H  H15  1  0.11295000  0.35037000  0.37240000  1
  H  H16  1  0.98028000  0.47925000  0.41634000  1
  H  H17  1  0.74251000  0.28713000  0.51107000  1
  H  H18  1  0.87071000  0.15955000  0.46539000  1
  H  H19  1  0.94687000  0.17476000  0.06051000  1
  H  H20  1  0.71956000  0.06551000  0.93380000  1
  H  H21  1  0.76856000  0.89852000  0.05835000  1
  H  H22  1  0.22404000  0.10655000  0.19113000  1
  H  H23  1  0.13301000  0.11755000  0.10698000  1
  H  H24  1  0.71958000  0.93329000  0.13525000  1
  H  H25  1  0.81363000  0.92308000  0.21954000  1
  H  H26  1  0.96708000  0.43816000  0.99388000  1
  H  H27  1  0.85794000  0.30226000  0.03223000  1
  H  H28  1  0.92410000  0.14887000  0.90127000  1
  H  H29  1  0.03787000  0.28785000  0.86296000  1
  H  H30  1  0.38565000  0.85475000  0.87357000  1
  H  H31  1  0.52109000  0.98327000  0.91695000  1
  H  H32  1  0.75946000  0.79106000  0.01146000  1
  H  H33  1  0.62938000  0.66367000  0.96636000  1
  H  H34  1  0.05409000  0.82662000  0.93972000  1
  H  H35  1  0.28168000  0.93573000  0.06634000  1
  H  H36  1  0.23156000  0.10314000  0.94194000  1
  H  H37  1  0.77442000  0.89221000  0.81001000  1
  H  H38  1  0.86758000  0.88319000  0.89391000  1
  H  H39  1  0.27820000  0.06833000  0.86400000  1
  H  H40  1  0.18179000  0.07648000  0.77986000  1
  H  H41  1  0.03644000  0.56277000  0.00679000  1
  H  H42  1  0.14423000  0.69874000  0.96816000  1
  H  H43  1  0.07811000  0.85251000  0.09910000  1
  H  H44  1  0.96750000  0.71299000  0.13771000  1
  H  H45  1  0.61818000  0.14470000  0.12652000  1
  H  H46  1  0.48023000  0.01714000  0.08314000  1
  H  H47  1  0.24384000  0.21084000  0.98906000  1
  H  H48  1  0.37678000  0.33741000  0.03412000  1
  H  H49  1  0.44613000  0.32538000  0.43876000  1
  H  H50  1  0.22295000  0.43506000  0.56608000  1
  H  H51  1  0.26715000  0.60180000  0.44141000  1
  H  H52  1  0.72180000  0.39595000  0.30796000  1
  H  H53  1  0.63147000  0.38391000  0.39214000  1
  H  H54  1  0.21501000  0.56702000  0.36451000  1
  H  H55  1  0.30773000  0.57768000  0.28010000  1
  H  H56  1  0.46666000  0.06130000  0.50667000  1
  H  H57  1  0.35925000  0.19720000  0.46773000  1
  H  H58  1  0.42452000  0.35168000  0.59838000  1
  H  H59  1  0.53418000  0.21241000  0.63738000  1
  H  H60  1  0.88848000  0.64611000  0.62657000  1
  H  H61  1  0.02314000  0.51733000  0.58296000  1
  H  H62  1  0.26178000  0.70934000  0.48853000  1
  H  H63  1  0.13236000  0.83708000  0.53381000  1
  C  C64  1  0.64126000  0.53126000  0.56563000  1
  C  C65  1  0.61815000  0.61467000  0.54220000  1
  C  C66  1  0.66643000  0.62651000  0.49439000  1
  C  C67  1  0.74538000  0.55387000  0.47069000  1
  C  C68  1  0.77255000  0.46974000  0.49318000  1
  C  C69  1  0.71789000  0.45948000  0.54068000  1
  C  C70  1  0.42844000  0.51171000  0.76170000  1
  C  C71  1  0.47989000  0.51186000  0.71083000  1
  C  C72  1  0.38967000  0.56553000  0.67852000  1
  C  C73  1  0.44290000  0.57105000  0.63157000  1
  C  C74  1  0.58598000  0.52235000  0.61550000  1
  C  C75  1  0.67384000  0.46712000  0.64797000  1
  C  C76  1  0.62193000  0.46228000  0.69523000  1
  C  C77  1  0.40474000  0.95057000  0.40508000  1
  C  C78  1  0.48890000  0.86907000  0.42657000  1
  C  C79  1  0.54349000  0.87240000  0.47397000  1
  C  C80  1  0.60683000  0.79474000  0.49566000  1
  C  C81  1  0.61976000  0.71157000  0.47020000  1
  C  C82  1  0.57345000  0.71000000  0.42178000  1
  C  C83  1  0.50803000  0.78748000  0.40028000  1
  C  C84  1  0.07994000  0.17155000  0.38914000  1
  C  C85  1  0.00072000  0.24756000  0.41650000  1
  C  C86  1  0.03121000  0.33812000  0.40280000  1
  C  C87  1  0.95647000  0.40977000  0.42758000  1
  C  C88  1  0.85374000  0.39364000  0.46764000  1
  C  C89  1  0.82567000  0.30202000  0.48133000  1
  C  C90  1  0.89622000  0.22995000  0.45578000  1
  C  C91  1  0.86465000  0.03492000  0.06520000  1
  C  C92  1  0.88775000  0.11809000  0.04164000  1
  C  C93  1  0.83767000  0.12976000  0.99400000  1
  C  C94  1  0.75739000  0.05737000  0.97060000  1
  C  C95  1  0.73038000  0.97344000  0.99327000  1
  C  C96  1  0.78674000  0.96326000  0.04058000  1
  C  C97  1  0.07816000  0.01076000  0.26076000  1
  C  C98  1  0.02503000  0.01363000  0.21011000  1
  C  C99  1  0.11464000  0.06859000  0.17829000  1
  C  C100  1  0.06208000  0.07496000  0.13133000  1
  C  C101  1  0.91989000  0.02604000  0.11495000  1
  C  C102  1  0.83151000  0.97041000  0.14707000  1
  C  C103  1  0.88309000  0.96445000  0.19427000  1
  C  C104  1  0.09598000  0.45404000  0.90476000  1
  C  C105  1  0.01327000  0.37197000  0.92595000  1
  C  C106  1  0.95831000  0.37533000  0.97329000  1
  C  C107  1  0.89618000  0.29769000  0.99512000  1
  C  C108  1  0.88416000  0.21455000  0.96969000  1
  C  C109  1  0.93114000  0.21265000  0.92134000  1
  C  C110  1  0.99608000  0.29012000  0.89976000  1
  C  C111  1  0.41931000  0.67584000  0.89024000  1
  C  C112  1  0.49776000  0.75185000  0.91771000  1
  C  C113  1  0.46780000  0.84237000  0.90387000  1
  C  C114  1  0.54407000  0.91383000  0.92831000  1
  C  C115  1  0.64770000  0.89757000  0.96815000  1
  C  C116  1  0.67539000  0.80603000  0.98196000  1
  C  C117  1  0.60346000  0.73406000  0.95676000  1
  C  C118  1  0.13614000  0.96651000  0.93497000  1
  C  C119  1  0.11313000  0.88332000  0.95857000  1
  C  C120  1  0.16324000  0.87162000  0.00619000  1
  C  C121  1  0.24366000  0.94398000  0.02956000  1
  C  C122  1  0.27064000  0.02797000  0.00692000  1
  C  C123  1  0.21408000  0.03821000  0.95961000  1
  C  C124  1  0.91986000  0.98590000  0.73932000  1
  C  C125  1  0.97235000  0.98502000  0.79007000  1
  C  C126  1  0.88378000  0.93074000  0.82240000  1
  C  C127  1  0.93761000  0.92557000  0.86929000  1
  C  C128  1  0.07983000  0.97503000  0.88523000  1
  C  C129  1  0.16644000  0.03051000  0.85265000  1
  C  C130  1  0.11362000  0.03529000  0.80550000  1
  C  C131  1  0.90826000  0.54785000  0.09610000  1
  C  C132  1  0.99116000  0.62934000  0.07468000  1
  C  C133  1  0.04523000  0.62575000  0.02727000  1
  C  C134  1  0.10637000  0.70347000  0.00530000  1
  C  C135  1  0.11759000  0.78678000  0.03061000  1
  C  C136  1  0.07168000  0.78874000  0.07903000  1
  C  C137  1  0.00833000  0.71113000  0.10082000  1
  C  C138  1  0.58915000  0.32403000  0.10999000  1
  C  C139  1  0.50763000  0.24861000  0.08265000  1
  C  C140  1  0.53585000  0.15780000  0.09635000  1
  C  C141  1  0.45786000  0.08678000  0.07194000  1
  C  C142  1  0.35401000  0.10358000  0.03219000  1
  C  C143  1  0.32771000  0.19538000  0.01856000  1
  C  C144  1  0.40143000  0.26690000  0.04376000  1
  C  C145  1  0.36268000  0.46519000  0.43429000  1
  C  C146  1  0.38719000  0.38200000  0.45779000  1
  C  C147  1  0.33903000  0.37046000  0.50560000  1
  C  C148  1  0.25954000  0.44304000  0.52918000  1
  C  C149  1  0.23174000  0.52700000  0.50659000  1
  C  C150  1  0.28588000  0.53700000  0.45911000  1
  C  C151  1  0.57173000  0.48993000  0.23836000  1
  C  C152  1  0.52041000  0.48765000  0.28921000  1
  C  C153  1  0.61169000  0.43324000  0.32093000  1
  C  C154  1  0.55956000  0.42632000  0.36790000  1
  C  C155  1  0.41657000  0.47447000  0.38444000  1
  C  C156  1  0.32718000  0.53014000  0.35252000  1
  C  C157  1  0.37809000  0.53643000  0.30527000  1
  C  C158  1  0.59259000  0.04587000  0.59612000  1
  C  C159  1  0.51082000  0.12795000  0.57455000  1
  C  C160  1  0.45757000  0.12439000  0.52706000  1
  C  C161  1  0.39688000  0.20213000  0.50488000  1
  C  C162  1  0.38523000  0.28564000  0.53003000  1
  C  C163  1  0.43111000  0.28773000  0.57846000  1
  C  C164  1  0.49384000  0.21010000  0.60046000  1
  C  C165  1  0.92016000  0.82450000  0.60985000  1
  C  C166  1  0.00121000  0.74897000  0.58257000  1
  C  C167  1  0.97092000  0.65839000  0.59633000  1
  C  C168  1  0.04677000  0.58683000  0.57179000  1
  C  C169  1  0.15018000  0.60304000  0.53193000  1
  C  C170  1  0.17814000  0.69461000  0.51816000  1
  C  C171  1  0.10675000  0.76671000  0.54351000  1
  O  O172  1  0.29810000  0.56074000  0.77384000  1
  O  O173  1  0.50903000  0.46786000  0.79281000  1
  O  O174  1  0.41731000  0.02778000  0.42400000  1
  O  O175  1  0.31703000  0.93478000  0.36670000  1
  O  O176  1  0.21735000  0.18504000  0.36682000  1
  O  O177  1  0.00790000  0.09294000  0.38824000  1
  O  O178  1  0.20040000  0.06447000  0.27399000  1
  O  O179  1  0.00672000  0.95963000  0.29054000  1
  O  O180  1  0.08246000  0.53099000  0.92399000  1
  O  O181  1  0.18378000  0.43906000  0.86632000  1
  O  O182  1  0.28403000  0.68932000  0.86678000  1
  O  O183  1  0.49074000  0.59707000  0.89027000  1
  O  O184  1  0.79948000  0.93098000  0.72610000  1
  O  O185  1  0.99149000  0.03664000  0.70937000  1
  O  O186  1  0.91692000  0.47146000  0.07604000  1
  O  O187  1  0.82511000  0.56244000  0.13545000  1
  O  O188  1  0.72813000  0.31021000  0.13140000  1
  O  O189  1  0.51631000  0.40250000  0.11175000  1
  O  O190  1  0.70046000  0.43959000  0.22588000  1
  O  O191  1  0.49295000  0.53660000  0.20818000  1
  O  O192  1  0.58305000  0.96945000  0.57614000  1
  O  O193  1  0.67543000  0.06026000  0.63552000  1
  O  O194  1  0.78102000  0.81050000  0.63114000  1
  O  O195  1  0.99231000  0.90303000  0.61180000  1
