# generated using pymatgen
data_H27C39N5
_symmetry_space_group_name_H-M   'P 1'
_cell_length_a   39.17073611
_cell_length_b   39.17073611
_cell_length_c   39.17073611
_cell_angle_alpha   86.06630727
_cell_angle_beta   86.06630727
_cell_angle_gamma   86.06630727
_symmetry_Int_Tables_number   1
_chemical_formula_structural   H27C39N5
_chemical_formula_sum   'H162 C234 N30'
_cell_volume   59695.23857577
_cell_formula_units_Z   6
loop_
 _symmetry_equiv_pos_site_id
 _symmetry_equiv_pos_as_xyz
  1  'x, y, z'
loop_
 _atom_site_type_symbol
 _atom_site_label
 _atom_site_symmetry_multiplicity
 _atom_site_fract_x
 _atom_site_fract_y
 _atom_site_fract_z
 _atom_site_occupancy
  C  2  1  0.36396267  0.60495467  0.01684667  1
  C  3  1  0.40078000  0.65085400  0.99520300  1
  C  4  1  0.42465300  0.59121700  0.00082900  1
  C  5  1  0.40777500  0.66472800  0.96144700  1
  C  6  1  0.41226667  0.70004200  0.95489833  1
  C  7  1  0.40981767  0.72249867  0.98197267  1
  C  8  1  0.40292500  0.70824800  0.01577700  1
  C  9  1  0.39863700  0.67298600  0.02231300  1
  C  10  1  0.33503133  0.60568400  0.99718467  1
  C  11  1  0.30328033  0.59549167  0.01221600  1
  C  12  1  0.29957967  0.58425833  0.04738500  1
  C  13  1  0.32880700  0.58371300  0.06687900  1
  C  14  1  0.36044467  0.59400133  0.05190300  1
  C  15  1  0.42732700  0.56549533  0.97710267  1
  C  16  1  0.45543667  0.54103700  0.97643933  1
  C  17  1  0.48153567  0.54157900  0.99966233  1
  C  18  1  0.47885700  0.56760000  0.02322300  1
  C  19  1  0.45068567  0.59196133  0.02392700  1
  C  32  1  0.51020067  0.51844733  0.99880600  1
  C  33  1  0.26888300  0.57315700  0.06304700  1
  C  34  1  0.41281567  0.75774000  0.97647333  1
  C  39  1  0.02643333  0.35629333  0.60303633  1
  C  40  1  0.00479133  0.39311200  0.64893667  1
  C  41  1  0.01041700  0.41698400  0.58929800  1
  C  42  1  0.97103600  0.40010867  0.66281033  1
  C  43  1  0.96449000  0.40460833  0.69812367  1
  C  44  1  0.99156333  0.40215300  0.72057967  1
  C  45  1  0.02536633  0.39525833  0.70632833  1
  C  46  1  0.03190233  0.39096833  0.67106733  1
  C  47  1  0.00677067  0.32736267  0.60376667  1
  C  48  1  0.02180233  0.29561033  0.59357533  1
  C  49  1  0.05696900  0.29191067  0.58233933  1
  C  50  1  0.07646400  0.32113733  0.58179267  1
  C  51  1  0.06149000  0.35277567  0.59208233  1
  C  52  1  0.98668867  0.41966067  0.56357867  1
  C  53  1  0.98602533  0.44777033  0.53912033  1
  C  54  1  0.00925100  0.47386800  0.53966100  1
  C  55  1  0.03279500  0.47118733  0.56569767  1
  C  56  1  0.03351500  0.44301667  0.59004333  1
  C  69  1  0.00839733  0.50253200  0.51652867  1
  C  70  1  0.07263133  0.26121467  0.57123700  1
  C  71  1  0.98606700  0.40516033  0.75582067  1
  C  76  1  0.61262233  0.01876400  0.35437667  1
  C  77  1  0.65852300  0.99711933  0.39119367  1
  C  78  1  0.59888633  0.00274633  0.41506833  1
  C  79  1  0.67239667  0.96336433  0.39818800  1
  C  80  1  0.70770933  0.95681733  0.40268633  1
  C  81  1  0.73016533  0.98389133  0.40023233  1
  C  82  1  0.71591567  0.01769333  0.39333600  1
  C  83  1  0.68065467  0.02422967  0.38904967  1
  C  84  1  0.61334833  0.99909933  0.32544733  1
  C  85  1  0.60315500  0.01412900  0.29369500  1
  C  86  1  0.59192267  0.04929733  0.28999300  1
  C  87  1  0.59137700  0.06879367  0.31921933  1
  C  88  1  0.60166867  0.05382033  0.35085700  1
  C  89  1  0.57316367  0.97902100  0.41774333  1
  C  90  1  0.54870633  0.97835933  0.44585433  1
  C  91  1  0.54925100  0.00158000  0.47195400  1
  C  92  1  0.57528667  0.02512700  0.46927133  1
  C  93  1  0.59963167  0.02584567  0.44109967  1
  C  106  1  0.52611667  0.00072833  0.50061600  1
  C  107  1  0.58081033  0.06495567  0.25930100  1
  C  108  1  0.76540833  0.97839167  0.40323400  1
  C  113  1  0.65554000  0.39786033  0.98307367  1
  C  114  1  0.61851700  0.35181300  0.00440700  1
  C  115  1  0.59434400  0.41137233  0.99718467  1
  C  116  1  0.60956267  0.33963733  0.03837200  1
  C  117  1  0.60602067  0.30439533  0.04657500  1
  C  118  1  0.61156833  0.28042033  0.02098233  1
  C  119  1  0.62037767  0.29283000  0.98694933  1
  C  120  1  0.62350167  0.32806967  0.97872567  1
  C  121  1  0.68354667  0.39621533  0.00409100  1
  C  122  1  0.71567433  0.40717233  0.99095433  1
  C  123  1  0.72051533  0.42019500  0.95645667  1
  C  124  1  0.69234300  0.42166067  0.93550833  1
  C  125  1  0.66039033  0.41039100  0.94855967  1
  C  126  1  0.59171633  0.43729567  0.02069700  1
  C  127  1  0.56361500  0.46175967  0.02119933  1
  C  128  1  0.53751033  0.46104467  0.99800700  1
  C  129  1  0.54015867  0.43479333  0.97469300  1
  C  130  1  0.56830500  0.41040900  0.97415500  1
  C  143  1  0.50885000  0.48419267  0.99874233  1
  C  144  1  0.75123767  0.43302000  0.94331433  1
  C  145  1  0.61064633  0.24535867  0.02872700  1
  C  150  1  0.99266400  0.64787167  0.39593933  1
  C  151  1  0.01398600  0.61084367  0.34989233  1
  C  152  1  0.00677233  0.58667567  0.40945500  1
  C  153  1  0.04794867  0.60188600  0.33771233  1
  C  154  1  0.05614533  0.59833967  0.30247000  1
  C  155  1  0.03054967  0.60389767  0.27849867  1
  C  156  1  0.99651800  0.61270567  0.29091333  1
  C  157  1  0.98830200  0.61582933  0.32615467  1
  C  158  1  0.01368533  0.67587500  0.39428967  1
  C  159  1  0.00055433  0.70800433  0.40524833  1
  C  160  1  0.96605867  0.71285033  0.41827800  1
  C  161  1  0.94510767  0.68467700  0.41975133  1
  C  162  1  0.95815100  0.65272667  0.40847133  1
  C  163  1  0.03028667  0.58404533  0.43537600  1
  C  164  1  0.03079067  0.55594633  0.45983900  1
  C  165  1  0.00759767  0.52984100  0.45912733  1
  C  166  1  0.98427767  0.53249200  0.43288033  1
  C  167  1  0.98373933  0.56063700  0.40849567  1
  C  180  1  0.00833367  0.50118100  0.48227533  1
  C  181  1  0.95293000  0.74356800  0.43112000  1
  C  182  1  0.03828467  0.60296200  0.24343733  1
  C  187  1  0.40552833  0.98499433  0.64595233  1
  C  188  1  0.35948067  0.00632067  0.60892767  1
  C  189  1  0.41904200  0.99910767  0.58475733  1
  C  190  1  0.34730100  0.04028667  0.59997433  1
  C  191  1  0.31205967  0.04848267  0.59642667  1
  C  192  1  0.28808800  0.02288700  0.60197200  1
  C  193  1  0.30050300  0.98885433  0.61078167  1
  C  194  1  0.33574133  0.98063933  0.61391233  1
  C  195  1  0.40387867  0.00600867  0.67396167  1
  C  196  1  0.41483300  0.99287033  0.70608867  1
  C  197  1  0.42785033  0.95837067  0.71093200  1
  C  198  1  0.42932600  0.93742500  0.68275500  1
  C  199  1  0.41805967  0.95047867  0.65080167  1
  C  200  1  0.44496400  0.02262100  0.58212900  1
  C  201  1  0.46942900  0.02312367  0.55402833  1
  C  202  1  0.46871267  0.99993433  0.52792100  1
  C  203  1  0.44246500  0.97661433  0.53057167  1
  C  204  1  0.41808133  0.97607467  0.55871900  1
  C  217  1  0.49186267  0.00066800  0.49926333  1
  C  218  1  0.44067233  0.94522433  0.74165433  1
  C  219  1  0.25302667  0.03062367  0.60104167  1
  C  668  1  0.44933833  0.91859167  0.87091100  1
  C  669  1  0.44953900  0.87241633  0.91652967  1
  C  670  1  0.47151467  0.92794833  0.92641100  1
  C  671  1  0.42288400  0.86654100  0.94189200  1
  C  672  1  0.41539133  0.83289400  0.95349867  1
  C  673  1  0.43449433  0.80420500  0.94013967  1
  C  674  1  0.46089633  0.81027933  0.91447433  1
  C  675  1  0.46844867  0.84394533  0.90288700  1
  C  676  1  0.41514033  0.92580400  0.86209667  1
  C  677  1  0.40786900  0.93742167  0.82836633  1
  C  678  1  0.43454100  0.94150067  0.80257033  1
  C  679  1  0.46883767  0.93473867  0.81166067  1
  C  680  1  0.47612667  0.92339133  0.84542700  1
  C  681  1  0.45165800  0.95525833  0.94115367  1
  C  682  1  0.46631067  0.97665300  0.96284933  1
  C  683  1  0.50127300  0.97135300  0.97006200  1
  C  684  1  0.52109900  0.94419700  0.95497800  1
  C  685  1  0.50635000  0.92255800  0.93360200  1
  C  702  1  0.88049700  0.44166700  0.91667200  1
  C  703  1  0.92611800  0.44186567  0.87049933  1
  C  704  1  0.93599833  0.46383900  0.92603267  1
  C  705  1  0.95148167  0.41521333  0.86462200  1
  C  706  1  0.96308433  0.40771700  0.83097567  1
  C  707  1  0.94972300  0.42682033  0.80228667  1
  C  708  1  0.92406100  0.45322467  0.80836233  1
  C  709  1  0.91247533  0.46077833  0.84202933  1
  C  710  1  0.87167800  0.40747000  0.92388300  1
  C  711  1  0.83794467  0.40020133  0.93549300  1
  C  712  1  0.81215333  0.42687733  0.93957333  1
  C  713  1  0.82124867  0.46117233  0.93281900  1
  C  714  1  0.85501700  0.46845800  0.92147200  1
  C  715  1  0.95073933  0.44398233  0.95334333  1
  C  716  1  0.97243667  0.45863300  0.97473833  1
  C  717  1  0.97965567  0.49359400  0.96943233  1
  C  718  1  0.96456567  0.51342333  0.94228200  1
  C  719  1  0.94318833  0.49867467  0.92064400  1
  C  736  1  0.92625867  0.87282533  0.43975500  1
  C  737  1  0.88008533  0.91844600  0.43995167  1
  C  738  1  0.93561733  0.92832700  0.46192567  1
  C  739  1  0.87420867  0.94380667  0.41329567  1
  C  740  1  0.84056167  0.95541167  0.40580167  1
  C  741  1  0.81187267  0.94205867  0.42491067  1
  C  742  1  0.81794733  0.91639267  0.45131100  1
  C  743  1  0.85161367  0.90480433  0.45886300  1
  C  744  1  0.93346900  0.86400433  0.40555767  1
  C  745  1  0.94508767  0.83027433  0.39829200  1
  C  746  1  0.94917600  0.80448500  0.42496800  1
  C  747  1  0.94241267  0.81358033  0.45926200  1
  C  748  1  0.93105900  0.84734600  0.46654600  1
  C  749  1  0.96292733  0.94306867  0.44206900  1
  C  750  1  0.98432167  0.96476533  0.45672100  1
  C  751  1  0.97902200  0.97197767  0.49168433  1
  C  752  1  0.95186367  0.95689467  0.51151067  1
  C  753  1  0.93022600  0.93551767  0.49676133  1
  C  770  1  0.13864067  0.08428733  0.55962100  1
  C  771  1  0.09332567  0.13071333  0.55889000  1
  C  772  1  0.08272067  0.07476400  0.53839033  1
  C  773  1  0.06830633  0.13820900  0.58544367  1
  C  774  1  0.05755700  0.17243933  0.59156967  1
  C  775  1  0.07168367  0.20001033  0.57151900  1
  C  776  1  0.09641500  0.19229767  0.54455833  1
  C  777  1  0.10713600  0.15810400  0.53839400  1
  C  778  1  0.14827367  0.07775833  0.59361800  1
  C  779  1  0.18222433  0.06645033  0.60026433  1
  C  780  1  0.20736100  0.06139033  0.57302467  1
  C  781  1  0.19773067  0.06854600  0.53906633  1
  C  782  1  0.16369500  0.07956000  0.53239900  1
  C  783  1  0.06774667  0.04771833  0.55844500  1
  C  784  1  0.04588667  0.02636600  0.54395233  1
  C  785  1  0.03872267  0.03147767  0.50896667  1
  C  786  1  0.05402100  0.05838067  0.48894633  1
  C  787  1  0.07558300  0.07995567  0.50352333  1
  C  804  1  0.09195500  0.56153700  0.12905500  1
  C  805  1  0.13838233  0.56080667  0.08374300  1
  C  806  1  0.08243467  0.54030433  0.07313700  1
  C  807  1  0.14587800  0.58736000  0.05872200  1
  C  808  1  0.18010900  0.59348467  0.04797033  1
  C  809  1  0.20767967  0.57343500  0.06209733  1
  C  810  1  0.19996833  0.54647833  0.08683333  1
  C  811  1  0.16577400  0.54031333  0.09755467  1
  C  812  1  0.08542400  0.59553567  0.13868433  1
  C  813  1  0.07410500  0.60218300  0.17263300  1
  C  814  1  0.06905167  0.57494467  0.19777267  1
  C  815  1  0.07621067  0.54098433  0.18814500  1
  C  816  1  0.08722800  0.53431733  0.15411067  1
  C  817  1  0.05538900  0.56035767  0.05816133  1
  C  818  1  0.03403633  0.54586233  0.03630233  1
  C  819  1  0.03914400  0.51087533  0.02914567  1
  C  820  1  0.06605233  0.49085933  0.04443833  1
  C  821  1  0.08763000  0.50543800  0.06599700  1
  C  838  1  0.56921067  0.13097200  0.08237033  1
  C  839  1  0.56847633  0.08565900  0.12879667  1
  C  840  1  0.54797800  0.07505400  0.07284800  1
  C  841  1  0.59502933  0.06063867  0.13629400  1
  C  842  1  0.60115633  0.04989100  0.17052467  1
  C  843  1  0.58110200  0.06401467  0.19809333  1
  C  844  1  0.55414367  0.08874700  0.19038133  1
  C  845  1  0.54798067  0.09946767  0.15618667  1
  C  846  1  0.60320867  0.14060300  0.07584433  1
  C  847  1  0.60985700  0.17455400  0.06453800  1
  C  848  1  0.58262000  0.19969533  0.05948767  1
  C  849  1  0.54866000  0.19006467  0.06663033  1
  C  850  1  0.54199100  0.15602833  0.07764467  1
  C  851  1  0.56803133  0.06007900  0.04580167  1
  C  852  1  0.55354000  0.03821900  0.02445100  1
  C  853  1  0.51855367  0.03105467  0.02956067  1
  C  854  1  0.49853333  0.04635633  0.05646333  1
  C  855  1  0.51311100  0.06791500  0.07803900  1
  H  20  1  0.40934622  0.64914622  0.94143122  1
  H  21  1  0.40088700  0.72347700  0.03615100  1
  H  22  1  0.39368933  0.66352067  0.04701100  1
  H  23  1  0.41682633  0.70926300  0.93003767  1
  H  24  1  0.38100300  0.59343367  0.06672433  1
  H  25  1  0.33705333  0.61353467  0.97171800  1
  H  26  1  0.28295800  0.59603600  0.99705900  1
  H  27  1  0.32737967  0.57582267  0.09238567  1
  H  28  1  0.40877067  0.56454833  0.96010700  1
  H  29  1  0.49734000  0.56897833  0.04024867  1
  H  30  1  0.44920467  0.61028567  0.04144567  1
  H  31  1  0.45682500  0.52299867  0.95859733  1
  H  35  1  0.53301967  0.52815033  0.99899300  1
  H  36  1  0.26977333  0.55933367  0.08526700  1
  H  37  1  0.40301100  0.77274933  0.99465167  1
  H  57  1  0.95103000  0.40169667  0.64723733  1
  H  58  1  0.04574167  0.39321933  0.72155800  1
  H  59  1  0.05659900  0.38601833  0.66160067  1
  H  60  1  0.93962800  0.40916933  0.70734367  1
  H  61  1  0.07631167  0.37333433  0.59151400  1
  H  62  1  0.98130367  0.32938467  0.61161767  1
  H  63  1  0.00664433  0.27528900  0.59411767  1
  H  64  1  0.10197167  0.31970967  0.57390067  1
  H  65  1  0.96969167  0.40110400  0.56263233  1
  H  66  1  0.04983900  0.48967033  0.56705967  1
  H  67  1  0.05103500  0.44153367  0.60836533  1
  H  68  1  0.96818400  0.44915833  0.52108267  1
  H  72  1  0.00858733  0.52535100  0.52623267  1
  H  73  1  0.09484800  0.26210467  0.55740933  1
  H  74  1  0.00424533  0.39535733  0.77083233  1
  H  94  1  0.65681456  0.94334922  0.39976789  1
  H  95  1  0.73114600  0.03806833  0.39129567  1
  H  96  1  0.67118900  0.04892733  0.38409867  1
  H  97  1  0.71692967  0.93195467  0.40724567  1
  H  98  1  0.60110133  0.06864100  0.37141567  1
  H  99  1  0.62119700  0.97363067  0.32747033  1
  H  100  1  0.60369400  0.99897133  0.27337567  1
  H  101  1  0.58348500  0.09430033  0.31779167  1
  H  102  1  0.57221567  0.96202533  0.39918700  1
  H  103  1  0.57664967  0.04216833  0.48775500  1
  H  104  1  0.61795467  0.04336433  0.43961800  1
  H  105  1  0.53066833  0.96051700  0.44724267  1
  H  109  1  0.53581833  0.00091767  0.52343600  1
  H  110  1  0.56698333  0.08717267  0.26019200  1
  H  111  1  0.78041733  0.99656767  0.39342000  1
  H  131  1  0.60607900  0.35640567  0.05739633  1
  H  132  1  0.62482700  0.27625633  0.96777767  1
  H  133  1  0.63009000  0.33631133  0.95395867  1
  H  134  1  0.60025400  0.29630933  0.07158767  1
  H  135  1  0.64047633  0.41173700  0.93284267  1
  H  136  1  0.68051433  0.38732933  0.02921333  1
  H  137  1  0.73529333  0.40623600  0.00703467  1
  H  138  1  0.69478633  0.43104267  0.91046000  1
  H  139  1  0.61028067  0.43836933  0.03766100  1
  H  140  1  0.52166333  0.43329633  0.95769333  1
  H  141  1  0.56979500  0.39191300  0.95681000  1
  H  142  1  0.56224333  0.47993400  0.03890167  1
  H  146  1  0.48602767  0.47449333  0.99858100  1
  H  147  1  0.75026067  0.45341467  0.92669467  1
  H  148  1  0.62790400  0.22982033  0.01662467  1
  H  168  1  0.06697767  0.59840700  0.35447533  1
  H  169  1  0.97734200  0.61715133  0.27434467  1
  H  170  1  0.96353567  0.62241700  0.33440133  1
  H  171  1  0.08115800  0.59257867  0.29437833  1
  H  172  1  0.94243433  0.63281067  0.40983100  1
  H  173  1  0.03880800  0.67283833  0.38540667  1
  H  174  1  0.01663967  0.72761900  0.40431833  1
  H  175  1  0.92006267  0.68712267  0.42914167  1
  H  176  1  0.04725133  0.60261067  0.43644600  1
  H  177  1  0.96727633  0.51399633  0.43138533  1
  H  178  1  0.96639167  0.56212833  0.39000200  1
  H  179  1  0.04849533  0.55457400  0.47801067  1
  H  183  1  0.00816300  0.47835833  0.47257567  1
  H  184  1  0.93631900  0.74258600  0.45152200  1
  H  185  1  0.02618333  0.62022000  0.22789767  1
  H  205  1  0.36406467  0.05931500  0.59649733  1
  H  206  1  0.28393233  0.96967767  0.61522300  1
  H  207  1  0.34398800  0.95586967  0.62049033  1
  H  208  1  0.30396867  0.07349533  0.59066800  1
  H  209  1  0.41941233  0.93476467  0.63088400  1
  H  210  1  0.39499000  0.03113000  0.67093000  1
  H  211  1  0.41388800  0.00894767  0.72571033  1
  H  212  1  0.43870900  0.91237800  0.68519800  1
  H  213  1  0.44603700  0.03958233  0.60069267  1
  H  214  1  0.44096833  0.95961633  0.51207433  1
  H  215  1  0.39958633  0.95872967  0.56020800  1
  H  216  1  0.48760033  0.04082900  0.55265567  1
  H  220  1  0.48216500  0.00050033  0.47643967  1
  H  221  1  0.46107667  0.92861700  0.74067533  1
  H  222  1  0.23748767  0.01852267  0.61830067  1
  H  686  1  0.40860067  0.88681400  0.95181533  1
  H  687  1  0.47503467  0.79011867  0.90410867  1
  H  688  1  0.48780400  0.84765067  0.88439033  1
  H  689  1  0.39557367  0.82962833  0.97153400  1
  H  690  1  0.50108267  0.91833567  0.85132167  1
  H  691  1  0.39538533  0.92260367  0.88026000  1
  H  692  1  0.38283267  0.94232067  0.82260767  1
  H  693  1  0.48879167  0.93812967  0.79377867  1
  H  694  1  0.42635933  0.95955833  0.93623933  1
  H  695  1  0.54648400  0.93983600  0.95962200  1
  H  696  1  0.52119400  0.90300600  0.92300600  1
  H  697  1  0.45135200  0.99631133  0.97311667  1
  H  720  1  0.96139933  0.40092367  0.88489500  1
  H  721  1  0.91369767  0.46736867  0.78820267  1
  H  722  1  0.89397967  0.48013367  0.84573567  1
  H  723  1  0.98111933  0.38790067  0.82770800  1
  H  724  1  0.86091567  0.49341200  0.91641933  1
  H  725  1  0.88984033  0.38771367  0.92068600  1
  H  726  1  0.83218667  0.37516700  0.94040333  1
  H  727  1  0.80336900  0.48112900  0.93621400  1
  H  728  1  0.94582100  0.41868467  0.95764633  1
  H  729  1  0.96921367  0.53880633  0.93791800  1
  H  730  1  0.93259700  0.51351767  0.90108833  1
  H  731  1  0.98270000  0.44367733  0.99439967  1
  H  754  1  0.89448133  0.95372767  0.39900900  1
  H  755  1  0.79778700  0.90603133  0.46545467  1
  H  756  1  0.85532000  0.88630933  0.47821867  1
  H  757  1  0.83729533  0.97344867  0.38598600  1
  H  758  1  0.92600833  0.85324667  0.49150100  1
  H  759  1  0.93026833  0.88216633  0.38580033  1
  H  760  1  0.94999233  0.82451333  0.37325633  1
  H  761  1  0.94581067  0.79570167  0.47921967  1
  H  762  1  0.96722900  0.93815300  0.41677200  1
  H  763  1  0.94750100  0.96154133  0.53689567  1
  H  764  1  0.91067100  0.92492733  0.51160367  1
  H  765  1  0.00398333  0.97502967  0.44176600  1
  H  788  1  0.05800767  0.11871500  0.60061833  1
  H  789  1  0.10679933  0.21144833  0.52902133  1
  H  790  1  0.12510833  0.15322233  0.51884633  1
  H  791  1  0.03953500  0.17711367  0.61116633  1
  H  792  1  0.15732600  0.08459200  0.50758600  1
  H  793  1  0.13057367  0.08137333  0.61369700  1
  H  794  1  0.18856667  0.06236900  0.62517533  1
  H  795  1  0.21544367  0.06551667  0.51886267  1
  H  796  1  0.07262300  0.04356933  0.58376467  1
  H  797  1  0.04941467  0.06259833  0.46353900  1
  H  798  1  0.08632333  0.09932733  0.48853833  1
  H  799  1  0.03546200  0.00688500  0.55904100  1
  H  822  1  0.12638367  0.60252833  0.04841600  1
  H  823  1  0.21911833  0.53094267  0.09722000  1
  H  824  1  0.16089400  0.52076767  0.11552933  1
  H  825  1  0.18478100  0.61307700  0.02994200  1
  H  826  1  0.09226033  0.50950333  0.14774333  1
  H  827  1  0.08903933  0.61561133  0.12098233  1
  H  828  1  0.07003333  0.62709367  0.17897600  1
  H  829  1  0.07318367  0.52078300  0.20586033  1
  H  830  1  0.05124167  0.58568033  0.06303500  1
  H  831  1  0.07026867  0.46545200  0.03983433  1
  H  832  1  0.10699767  0.49045167  0.07674267  1
  H  833  1  0.01455667  0.56095333  0.02587400  1
  H  856  1  0.61020633  0.05034100  0.11680067  1
  H  857  1  0.53860500  0.09913033  0.20953067  1
  H  858  1  0.52843200  0.11744167  0.15130433  1
  H  859  1  0.62075033  0.03186600  0.17519867  1
  H  860  1  0.51717700  0.14966033  0.08267067  1
  H  861  1  0.62328533  0.12290033  0.07945933  1
  H  862  1  0.63476767  0.18089467  0.06046367  1
  H  863  1  0.52845733  0.20777967  0.06360400  1
  H  864  1  0.59335267  0.06495567  0.04165367  1
  H  865  1  0.47312700  0.04174767  0.06068033  1
  H  866  1  0.49812400  0.07865767  0.09740933  1
  H  867  1  0.56862833  0.02779267  0.00496900  1
  N  1  1  0.39587600  0.61534100  0.00162100  1
  N  38  1  0.01120767  0.38820733  0.61342300  1
  N  75  1  0.62300833  0.00353867  0.38629000  1
  N  112  1  0.62304400  0.38718000  0.99635300  1
  N  149  1  0.00593967  0.61537433  0.38526100  1
  N  186  1  0.39484967  0.99827467  0.61345767  1
  N  667  1  0.45673167  0.90635433  0.90467100  1
  N  698  1  0.51678033  0.99095833  0.98979433  1
  N  699  1  0.42607233  0.95226033  0.77101733  1
  N  700  1  0.42868400  0.77159067  0.94970333  1
  N  701  1  0.91425900  0.44905700  0.90443800  1
  N  732  1  0.99938033  0.50910367  0.98904500  1
  N  733  1  0.78060000  0.41841467  0.95034533  1
  N  734  1  0.95929000  0.42101533  0.76967267  1
  N  735  1  0.91402233  0.90658733  0.44714333  1
  N  766  1  0.99862700  0.99171100  0.50719300  1
  N  767  1  0.95994300  0.77293067  0.41650433  1
  N  768  1  0.77925900  0.95162300  0.41910200  1
  N  769  1  0.10456467  0.09627667  0.55312567  1
  N  800  1  0.01888367  0.01189500  0.49356933  1
  N  801  1  0.24005433  0.05147300  0.57781867  1
  N  802  1  0.06045567  0.23176767  0.57908767  1
  N  803  1  0.10394533  0.55504133  0.09498033  1
  N  834  1  0.01956900  0.49548067  0.00929733  1
  N  835  1  0.05913600  0.57973967  0.23046533  1
  N  836  1  0.23943767  0.58100167  0.05086967  1
  N  837  1  0.56271367  0.09689700  0.09435933  1
  N  868  1  0.50315700  0.01121600  0.00998000  1
  N  869  1  0.58741667  0.23238700  0.04956833  1
  N  870  1  0.58866933  0.05278567  0.22985200  1
