# generated using pymatgen
data_CuH2(CO)4
_symmetry_space_group_name_H-M   'P 1'
_cell_length_a   4.49475000
_cell_length_b   12.73213905
_cell_length_c   12.80388364
_cell_angle_alpha   88.54341874
_cell_angle_beta   80.23183302
_cell_angle_gamma   80.00266141
_symmetry_Int_Tables_number   1
_chemical_formula_structural   CuH2(CO)4
_chemical_formula_sum   'Cu4 H8 C16 O16'
_cell_volume   711.14399013
_cell_formula_units_Z   4
loop_
 _symmetry_equiv_pos_site_id
 _symmetry_equiv_pos_as_xyz
  1  'x, y, z'
loop_
 _atom_site_type_symbol
 _atom_site_label
 _atom_site_symmetry_multiplicity
 _atom_site_fract_x
 _atom_site_fract_y
 _atom_site_fract_z
 _atom_site_occupancy
  Cu  Cu0  1  0.00000000  0.50000000  0.50000000  1
  Cu  Cu1  1  0.00000000  0.00000000  0.00000000  1
  Cu  Cu2  1  0.50000000  1.00000000  0.50000000  1
  Cu  Cu3  1  0.00000000  0.50000000  0.00000000  1
  H  H4  1  0.64813000  0.68010000  0.32500000  1
  H  H5  1  0.65544000  0.81769000  0.17399000  1
  H  H6  1  0.97737000  0.17422000  0.68246000  1
  H  H7  1  0.83605000  0.32717000  0.82005000  1
  H  H8  1  0.35187000  0.31990000  0.67499000  1
  H  H9  1  0.34455000  0.18231000  0.82601000  1
  H  H10  1  0.02263000  0.82578000  0.31753000  1
  H  H11  1  0.16394000  0.67284000  0.17994000  1
  C  C12  1  0.40751000  0.69203000  0.31204000  1
  C  C13  1  0.23875000  0.62093000  0.38379000  1
  C  C14  1  0.41360000  0.80635000  0.18671000  1
  C  C15  1  0.24473000  0.87809000  0.11539000  1
  C  C16  1  0.72431000  0.18739000  0.69367000  1
  C  C17  1  0.62588000  0.11549000  0.62193000  1
  C  C18  1  0.60743000  0.31404000  0.80775000  1
  C  C19  1  0.36642000  0.38542000  0.87881000  1
  C  C20  1  0.59249000  0.30797000  0.68795000  1
  C  C21  1  0.76123000  0.37908000  0.61621000  1
  C  C22  1  0.58638000  0.19366000  0.81329000  1
  C  C23  1  0.75526000  0.12191000  0.88461000  1
  C  C24  1  0.27569000  0.81261000  0.30632000  1
  C  C25  1  0.37413000  0.88451000  0.37806000  1
  C  C26  1  0.39257000  0.68596000  0.19225000  1
  C  C27  1  0.63358000  0.61458000  0.12118000  1
  O  O28  1  0.96163000  0.65030000  0.43034000  1
  O  O29  1  0.37162000  0.52590000  0.40039000  1
  O  O30  1  0.04150000  0.84938000  0.06844000  1
  O  O31  1  0.30019000  0.97328000  0.09992000  1
  O  O32  1  0.39495000  0.06841000  0.65018000  1
  O  O33  1  0.77355000  0.09973000  0.52714000  1
  O  O34  1  0.11855000  0.43224000  0.84909000  1
  O  O35  1  0.40104000  0.40059000  0.97425000  1
  O  O36  1  0.03836000  0.34970000  0.56966000  1
  O  O37  1  0.62838000  0.47410000  0.59961000  1
  O  O38  1  0.95849000  0.15062000  0.93156000  1
  O  O39  1  0.69981000  0.02672000  0.90007000  1
  O  O40  1  0.60504000  0.93159000  0.34982000  1
  O  O41  1  0.22646000  0.90027000  0.47285000  1
  O  O42  1  0.88146000  0.56776000  0.15090000  1
  O  O43  1  0.59895000  0.59942000  0.02575000  1
