# generated using pymatgen
data_H7C15(N2O)2
_symmetry_space_group_name_H-M   'P 1'
_cell_length_a   29.36890000
_cell_length_b   33.45136123
_cell_length_c   33.44950000
_cell_angle_alpha   119.99847835
_cell_angle_beta   90.00000000
_cell_angle_gamma   90.56789726
_symmetry_Int_Tables_number   1
_chemical_formula_structural   H7C15(N2O)2
_chemical_formula_sum   'H84 C180 N48 O24'
_cell_volume   28457.71022201
_cell_formula_units_Z   12
loop_
 _symmetry_equiv_pos_site_id
 _symmetry_equiv_pos_as_xyz
  1  'x, y, z'
loop_
 _atom_site_type_symbol
 _atom_site_label
 _atom_site_symmetry_multiplicity
 _atom_site_fract_x
 _atom_site_fract_y
 _atom_site_fract_z
 _atom_site_occupancy
  H  9  1  0.87512100  0.91752200  0.53918900  1
  H  17  1  0.12479600  0.10409000  0.61651100  1
  H  19  1  0.09966600  0.94149400  0.53946300  1
  H  20  1  0.03490900  0.89305200  0.52526600  1
  H  21  1  0.96719700  0.12755200  0.64549200  1
  H  22  1  0.90202900  0.07898200  0.62037600  1
  H  35  1  0.20396400  0.46136700  0.37996600  1
  H  43  1  0.45462200  0.39446800  0.49298300  1
  H  45  1  0.42827300  0.47051400  0.40705700  1
  H  46  1  0.36340400  0.48174600  0.37155600  1
  H  47  1  0.29804700  0.35732200  0.48337600  1
  H  48  1  0.23230400  0.38093300  0.46017900  1
  H  61  1  0.53805600  0.62518300  0.08691900  1
  H  69  1  0.78633100  0.51030500  0.90447100  1
  H  71  1  0.76167400  0.59616600  0.06677200  1
  H  72  1  0.69758500  0.63214000  0.11417700  1
  H  73  1  0.63014900  0.52126100  0.87856400  1
  H  74  1  0.56483800  0.54491500  0.92601300  1
  H  87  1  0.37478400  0.08658600  0.46461500  1
  H  95  1  0.62180300  0.90315700  0.39420300  1
  H  97  1  0.59868200  0.06558900  0.47052600  1
  H  98  1  0.53478400  0.11323800  0.48256000  1
  H  99  1  0.46484500  0.87787800  0.35932200  1
  H  100  1  0.40005100  0.92565900  0.38355300  1
  H  113  1  0.70556700  0.54150400  0.62591700  1
  H  121  1  0.95655900  0.60980100  0.51243900  1
  H  123  1  0.92962400  0.53345100  0.59832300  1
  H  124  1  0.86477300  0.52176000  0.63383600  1
  H  125  1  0.80058200  0.64622000  0.52252800  1
  H  126  1  0.73462300  0.62250000  0.54609700  1
  H  139  1  0.03413700  0.37594100  0.91920400  1
  H  147  1  0.28347100  0.49697000  0.10338800  1
  H  149  1  0.25749400  0.41477000  0.94081300  1
  H  150  1  0.19348700  0.37776300  0.89280200  1
  H  151  1  0.12794300  0.47973500  0.12775000  1
  H  152  1  0.06236200  0.45357600  0.07993900  1
  H  163  1  0.72035200  0.93221200  0.50839400  1
  H  167  1  0.83023400  0.05596700  0.47835800  1
  H  169  1  0.85164900  0.05955500  0.56047300  1
  H  171  1  0.65740100  0.93544100  0.46420500  1
  H  178  1  0.05191400  0.49359300  0.42663000  1
  H  182  1  0.16148900  0.52302100  0.57944300  1
  H  184  1  0.18063000  0.43997800  0.50103600  1
  H  186  1  0.99050200  0.53938400  0.47463700  1
  H  193  1  0.38473400  0.58157900  0.07472000  1
  H  197  1  0.48790400  0.42691500  0.94796600  1
  H  199  1  0.51078700  0.50535100  0.94412300  1
  H  201  1  0.32040300  0.53489900  0.07211200  1
  H  208  1  0.22421800  0.07559300  0.50332800  1
  H  212  1  0.32965600  0.94656100  0.52558400  1
  H  214  1  0.34881600  0.94388000  0.44280000  1
  H  216  1  0.16215800  0.07271300  0.54843600  1
  H  223  1  0.55098900  0.51150200  0.57975800  1
  H  227  1  0.66027100  0.47968100  0.42682000  1
  H  229  1  0.68248700  0.56318700  0.50514700  1
  H  231  1  0.48862600  0.46579800  0.53150000  1
  H  238  1  0.88016400  0.42250200  0.93423700  1
  H  242  1  0.99226300  0.57373300  0.05664400  1
  H  244  1  0.01102700  0.49510700  0.06171500  1
  H  246  1  0.81964400  0.47162700  0.93676500  1
  H  253  1  0.92290900  0.78634100  0.59943500  1
  H  257  1  0.97428000  0.75898100  0.41883900  1
  H  259  1  0.90748700  0.83892000  0.47941500  1
  H  261  1  0.92159800  0.70299200  0.57226300  1
  H  268  1  0.24878600  0.40519700  0.18966700  1
  H  272  1  0.30298900  0.58505200  0.34375700  1
  H  274  1  0.23554900  0.52315100  0.36264600  1
  H  276  1  0.24721300  0.43332500  0.13416900  1
  H  283  1  0.58524500  0.81433900  0.21792500  1
  H  287  1  0.63523300  0.66232000  0.24748700  1
  H  289  1  0.56917600  0.64221300  0.16535500  1
  H  291  1  0.58124000  0.87094400  0.30041700  1
  H  298  1  0.41972900  0.21770700  0.40572600  1
  H  302  1  0.47493100  0.24671800  0.58622200  1
  H  304  1  0.40769900  0.16500600  0.52559300  1
  H  306  1  0.41764900  0.30085600  0.43257700  1
  H  313  1  0.75161200  0.59889000  0.81592800  1
  H  317  1  0.80378300  0.41926500  0.66274700  1
  H  319  1  0.73665600  0.47973900  0.64325600  1
  H  321  1  0.75065500  0.57144000  0.87187800  1
  H  328  1  0.06235000  0.19781400  0.79295100  1
  H  332  1  0.06385200  0.35952700  0.77045200  1
  H  334  1  0.13885800  0.35479200  0.82691100  1
  H  336  1  0.04485300  0.14029900  0.71340300  1
  C  1  1  0.98130500  0.99562600  0.57491400  1
  C  2  1  0.98620200  0.94676400  0.55290200  1
  C  3  1  0.94688500  0.91815100  0.54168800  1
  C  4  1  0.90362600  0.93834600  0.54885000  1
  C  5  1  0.89876700  0.98593200  0.56615400  1
  C  6  1  0.93723200  0.01549800  0.58338400  1
  C  7  1  0.03034200  0.92803100  0.54201500  1
  C  8  1  0.93309100  0.06392400  0.61005800  1
  C  10  1  0.02049400  0.02490200  0.58774200  1
  C  11  1  0.06437500  0.00520100  0.57304500  1
  C  12  1  0.10177100  0.03475100  0.57888200  1
  C  13  1  0.09673100  0.08286000  0.60764800  1
  C  14  1  0.05476300  0.10250300  0.62699400  1
  C  15  1  0.01554700  0.07377800  0.61398900  1
  C  16  1  0.06851700  0.95664100  0.54992300  1
  C  18  1  0.97167800  0.09261600  0.62648200  1
  C  27  1  0.31076700  0.42952000  0.42335600  1
  C  28  1  0.31525700  0.45183600  0.39666300  1
  C  29  1  0.27574900  0.46146400  0.37874400  1
  C  30  1  0.23263600  0.45261100  0.39127900  1
  C  31  1  0.22809400  0.43501200  0.42142300  1
  C  32  1  0.26687600  0.41925600  0.43416500  1
  C  33  1  0.35915800  0.46469600  0.38960800  1
  C  34  1  0.26319500  0.39232300  0.45575700  1
  C  36  1  0.35015100  0.41833000  0.44039900  1
  C  37  1  0.39366300  0.43513100  0.43631900  1
  C  38  1  0.43093600  0.43119000  0.46096100  1
  C  39  1  0.42651600  0.40192600  0.47990500  1
  C  40  1  0.38521800  0.37972800  0.47839600  1
  C  41  1  0.34574800  0.39147900  0.46254900  1
  C  42  1  0.39738800  0.45849500  0.41101100  1
  C  44  1  0.30213200  0.37693100  0.46797200  1
  C  53  1  0.64399100  0.58103100  0.01066100  1
  C  54  1  0.64901400  0.60758900  0.05963100  1
  C  55  1  0.60986400  0.62577100  0.08754500  1
  C  56  1  0.56651300  0.61359400  0.06659000  1
  C  57  1  0.56137500  0.58355900  0.01890700  1
  C  58  1  0.59989400  0.57061300  0.99000600  1
  C  59  1  0.69302600  0.61431000  0.07911200  1
  C  60  1  0.59582800  0.54911300  0.94153500  1
  C  62  1  0.68302100  0.56370000  0.98203600  1
  C  63  1  0.72655300  0.56734000  0.00246700  1
  C  64  1  0.76326800  0.54241200  0.97347800  1
  C  65  1  0.75853800  0.52363800  0.92532900  1
  C  66  1  0.71734900  0.52555200  0.90510500  1
  C  67  1  0.67820300  0.54168400  0.93309400  1
  C  68  1  0.73074800  0.59250400  0.05111300  1
  C  70  1  0.63452800  0.53672100  0.91356800  1
  C  79  1  0.48016800  0.00995500  0.43108000  1
  C  80  1  0.48559900  0.05890000  0.45330400  1
  C  81  1  0.44660600  0.08695300  0.46348900  1
  C  82  1  0.40310200  0.06617100  0.45542400  1
  C  83  1  0.39773200  0.01851600  0.43795500  1
  C  84  1  0.43590100  0.98946800  0.42140900  1
  C  85  1  0.52986600  0.07819500  0.46551100  1
  C  86  1  0.43124900  0.94100900  0.39451300  1
  C  88  1  0.51895600  0.98116300  0.41946900  1
  C  89  1  0.56283500  0.00142300  0.43569500  1
  C  90  1  0.59952300  0.97230100  0.43121400  1
  C  91  1  0.59414300  0.92414100  0.40213700  1
  C  92  1  0.55242200  0.90405400  0.38074200  1
  C  93  1  0.51355900  0.93222900  0.39281700  1
  C  94  1  0.56751100  0.05005000  0.45891500  1
  C  96  1  0.46961900  0.91284800  0.37869200  1
  C  105  1  0.81259500  0.57373700  0.58216700  1
  C  106  1  0.81691300  0.55140500  0.60881000  1
  C  107  1  0.77737200  0.54160600  0.62682900  1
  C  108  1  0.73430700  0.55034000  0.61448700  1
  C  109  1  0.72984600  0.56786400  0.58431800  1
  C  110  1  0.76878400  0.58389400  0.57156700  1
  C  111  1  0.86067300  0.53878500  0.61578600  1
  C  112  1  0.76541600  0.61104500  0.55024900  1
  C  114  1  0.85204800  0.58514000  0.56505600  1
  C  115  1  0.89535500  0.56861100  0.56907800  1
  C  116  1  0.93260400  0.57292000  0.54452400  1
  C  117  1  0.92843600  0.60205700  0.52547000  1
  C  118  1  0.88742100  0.62395200  0.52700500  1
  C  119  1  0.84789700  0.61200900  0.54296600  1
  C  120  1  0.89887600  0.54522400  0.59434400  1
  C  122  1  0.80447700  0.62651400  0.53784600  1
  C  131  1  0.14058200  0.42392800  0.99587700  1
  C  132  1  0.14516700  0.39915200  0.94681700  1
  C  133  1  0.10581300  0.37906500  0.91898700  1
  C  134  1  0.06276300  0.38757800  0.93980900  1
  C  135  1  0.05784000  0.41679600  0.98756600  1
  C  136  1  0.09672600  0.43143400  0.01639900  1
  C  137  1  0.18890700  0.39495500  0.92775000  1
  C  138  1  0.09309500  0.45158500  0.06472800  1
  C  140  1  0.17969500  0.44238000  0.02483500  1
  C  141  1  0.22295800  0.44076900  0.00485800  1
  C  142  1  0.25999700  0.46563800  0.03430600  1
  C  143  1  0.25553300  0.48357000  0.08231800  1
  C  144  1  0.21454000  0.48015300  0.10200900  1
  C  145  1  0.17532400  0.46301200  0.07368100  1
  C  146  1  0.22675300  0.41708900  0.95621400  1
  C  148  1  0.13198500  0.46553300  0.09284500  1
  C  157  1  0.79044100  0.02047800  0.53844700  1
  C  159  1  0.73149700  0.96284500  0.51181100  1
  C  160  1  0.70697300  0.98674800  0.49437900  1
  C  162  1  0.76539900  0.04533500  0.52177800  1
  C  164  1  0.78247000  0.08384700  0.52124600  1
  C  168  1  0.83439900  0.03163400  0.55764600  1
  C  170  1  0.66691100  0.96731500  0.46956000  1
  C  172  1  0.12029100  0.46263300  0.48440800  1
  C  174  1  0.06266900  0.49017600  0.45384900  1
  C  175  1  0.03852900  0.50840500  0.49551400  1
  C  177  1  0.09557500  0.48009900  0.52628000  1
  C  179  1  0.11243800  0.48082600  0.56534100  1
  C  183  1  0.16366500  0.44276700  0.47594900  1
  C  185  1  0.99945500  0.53399900  0.50117100  1
  C  187  1  0.45107700  0.52294600  0.98463500  1
  C  189  1  0.39440200  0.55444600  0.04364400  1
  C  190  1  0.36825700  0.51371400  0.01983400  1
  C  192  1  0.42441100  0.48201200  0.95990700  1
  C  194  1  0.43971100  0.44273200  0.92105300  1
  C  198  1  0.49502800  0.53029700  0.97289400  1
  C  200  1  0.32856700  0.50869700  0.03982600  1
  C  202  1  0.28968900  0.98462000  0.46812300  1
  C  204  1  0.23405800  0.04431200  0.49870700  1
  C  205  1  0.20922000  0.02039600  0.51626200  1
  C  207  1  0.26430400  0.95979000  0.48496400  1
  C  209  1  0.28003600  0.92032800  0.48394800  1
  C  213  1  0.33264900  0.97268100  0.44726700  1
  C  215  1  0.17044400  0.04049500  0.54241100  1
  C  217  1  0.62107400  0.54130700  0.52182300  1
  C  219  1  0.56212700  0.51470700  0.55250200  1
  C  220  1  0.53773600  0.49654000  0.51074800  1
  C  222  1  0.59602600  0.52417900  0.47996300  1
  C  224  1  0.61327000  0.52299100  0.44077600  1
  C  228  1  0.66520500  0.56036300  0.53010100  1
  C  230  1  0.49794300  0.47111800  0.50497900  1
  C  232  1  0.95001100  0.47906300  0.02279200  1
  C  234  1  0.89156500  0.44949300  0.96488300  1
  C  235  1  0.86827300  0.49150800  0.98849000  1
  C  237  1  0.92610700  0.52123900  0.04742700  1
  C  239  1  0.94397700  0.56012800  0.08562500  1
  C  243  1  0.99354700  0.47030000  0.03377500  1
  C  245  1  0.82923300  0.49789300  0.96872600  1
  C  247  1  0.92673000  0.79983000  0.50820400  1
  C  249  1  0.92129200  0.77655300  0.56518200  1
  C  250  1  0.91206100  0.73064400  0.53071000  1
  C  252  1  0.91743400  0.75359200  0.47303700  1
  C  254  1  0.91572500  0.73977500  0.42635500  1
  C  258  1  0.92865700  0.83777800  0.50202600  1
  C  260  1  0.90782800  0.69662900  0.54227000  1
  C  262  1  0.25458100  0.49567100  0.29484700  1
  C  264  1  0.24772100  0.43934400  0.21444900  1
  C  265  1  0.23868400  0.47415100  0.20365400  1
  C  267  1  0.24533900  0.53114600  0.28443800  1
  C  269  1  0.24420500  0.57768400  0.31765900  1
  C  273  1  0.25682200  0.50127900  0.33872300  1
  C  275  1  0.23409800  0.46321400  0.15828400  1
  C  277  1  0.58934100  0.70999300  0.20524000  1
  C  279  1  0.58342300  0.78998900  0.22786300  1
  C  280  1  0.57343900  0.80146100  0.27353600  1
  C  282  1  0.57907100  0.72106800  0.25117800  1
  C  284  1  0.57669500  0.68837900  0.26518100  1
  C  288  1  0.59137400  0.66584300  0.16745500  1
  C  290  1  0.56903600  0.84702600  0.30730800  1
  C  292  1  0.42648200  0.20481600  0.49718600  1
  C  294  1  0.41883700  0.22758500  0.44001700  1
  C  295  1  0.40945600  0.27324400  0.47440100  1
  C  297  1  0.41701500  0.25078400  0.53226000  1
  C  299  1  0.41605200  0.26475300  0.57897600  1
  C  303  1  0.42894000  0.16698700  0.50347400  1
  C  305  1  0.40454200  0.30706500  0.46272300  1
  C  307  1  0.75620500  0.50788800  0.71119100  1
  C  309  1  0.75020900  0.56464500  0.79137600  1
  C  310  1  0.74104900  0.52999700  0.80255800  1
  C  312  1  0.74690600  0.47254300  0.72196700  1
  C  314  1  0.74534300  0.42589100  0.68902600  1
  C  318  1  0.75816000  0.50201800  0.66722100  1
  C  320  1  0.73690800  0.54137400  0.84805500  1
  C  322  1  0.10036900  0.29373500  0.79839700  1
  C  324  1  0.06973000  0.21989400  0.78095400  1
  C  325  1  0.06373900  0.20720400  0.73430000  1
  C  327  1  0.09402800  0.28158400  0.75151700  1
  C  329  1  0.10436000  0.31100300  0.73462400  1
  C  333  1  0.11794700  0.33525400  0.83338100  1
  C  335  1  0.05102200  0.16253500  0.70229100  1
  N  23  1  0.85721300  0.99721400  0.55829800  1
  N  24  1  0.94875100  0.87484500  0.53286900  1
  N  25  1  0.05676700  0.14690800  0.65890700  1
  N  26  1  0.13999600  0.01708100  0.55344800  1
  N  49  1  0.18669600  0.44228100  0.44087700  1
  N  50  1  0.27738300  0.47070600  0.34448500  1
  N  51  1  0.38637900  0.34654700  0.48938500  1
  N  52  1  0.46865800  0.45809700  0.46931400  1
  N  75  1  0.51944300  0.56466700  0.00708300  1
  N  76  1  0.61218700  0.65994000  0.13104500  1
  N  77  1  0.71823800  0.51468900  0.86097000  1
  N  78  1  0.80060200  0.53359800  0.99165500  1
  N  101  1  0.35635200  0.00685200  0.44628500  1
  N  102  1  0.44890200  0.13040300  0.47259500  1
  N  103  1  0.55276300  0.85988200  0.34766600  1
  N  104  1  0.63767800  0.99034500  0.45735200  1
  N  127  1  0.68812900  0.56075600  0.56519200  1
  N  128  1  0.77905100  0.53261600  0.66123100  1
  N  129  1  0.88873200  0.65709400  0.51595700  1
  N  130  1  0.97003000  0.54646100  0.53640100  1
  N  153  1  0.01606800  0.43516900  0.99912600  1
  N  154  1  0.10462400  0.34847800  0.87455300  1
  N  155  1  0.21585700  0.49024500  0.14591400  1
  N  156  1  0.29801600  0.47420100  0.01661400  1
  N  158  1  0.77170600  0.98056800  0.53266400  1
  N  161  1  0.72489800  0.02691600  0.50009600  1
  N  173  1  0.10201500  0.46853400  0.45037000  1
  N  176  1  0.05594600  0.50257300  0.52989700  1
  N  188  1  0.43420100  0.55703400  0.02519700  1
  N  191  1  0.38435300  0.47927900  0.97907800  1
  N  203  1  0.27273100  0.02554800  0.47582800  1
  N  206  1  0.22531800  0.97920200  0.50864100  1
  N  218  1  0.60229500  0.53580500  0.55595400  1
  N  221  1  0.55565400  0.50206100  0.47631300  1
  N  233  1  0.93098700  0.44536300  0.98283800  1
  N  236  1  0.88647400  0.52554300  0.02872000  1
  N  248  1  0.92755100  0.80872800  0.55259000  1
  N  251  1  0.91098100  0.72128400  0.48615000  1
  N  263  1  0.25456600  0.45145300  0.25900600  1
  N  266  1  0.23831800  0.51852400  0.23924700  1
  N  278  1  0.59022000  0.74533600  0.19611000  1
  N  281  1  0.57214500  0.76637200  0.28306900  1
  N  293  1  0.42618900  0.19574500  0.45273400  1
  N  296  1  0.40944600  0.28273900  0.51901700  1
  N  308  1  0.75667900  0.55224600  0.74674600  1
  N  311  1  0.74025600  0.48546600  0.76725400  1
  N  323  1  0.08779600  0.26179300  0.81030700  1
  N  326  1  0.07651400  0.23875900  0.72188000  1
  O  165  1  0.75652200  0.11586600  0.53156700  1
  O  166  1  0.81151200  0.07960100  0.49257900  1
  O  180  1  0.08599100  0.47124400  0.58759100  1
  O  181  1  0.14220800  0.50929000  0.58928900  1
  O  195  1  0.41248300  0.42142500  0.88959400  1
  O  196  1  0.46837900  0.41783100  0.92471700  1
  O  210  1  0.25257900  0.88888400  0.47333600  1
  O  211  1  0.30973100  0.92349200  0.51168700  1
  O  225  1  0.58744500  0.53363000  0.41907700  1
  O  226  1  0.64177400  0.49370200  0.41688600  1
  O  240  1  0.91821700  0.58200700  0.11785800  1
  O  241  1  0.97356500  0.58378500  0.08049100  1
  O  255  1  0.88840500  0.70936500  0.40208500  1
  O  256  1  0.94961600  0.74195600  0.40558200  1
  O  270  1  0.21726000  0.60236900  0.31245600  1
  O  271  1  0.27844200  0.59836700  0.34049800  1
  O  285  1  0.54905500  0.69390900  0.29480900  1
  O  286  1  0.61032100  0.66572800  0.26378200  1
  O  300  1  0.38906600  0.29455000  0.60361200  1
  O  301  1  0.45035600  0.26314300  0.59957900  1
  O  315  1  0.71846200  0.40092300  0.69451900  1
  O  316  1  0.77925900  0.40564600  0.66616500  1
  O  330  1  0.12157500  0.29422400  0.69638600  1
  O  331  1  0.08154800  0.34590000  0.74583600  1
