# generated using pymatgen
data_H16C14N5
_symmetry_space_group_name_H-M   'P 1'
_cell_length_a   24.30730000
_cell_length_b   24.30730000
_cell_length_c   26.69480000
_cell_angle_alpha   90.00000000
_cell_angle_beta   90.00000000
_cell_angle_gamma   120.00000000
_symmetry_Int_Tables_number   1
_chemical_formula_structural   H16C14N5
_chemical_formula_sum   'H192 C168 N60'
_cell_volume   13659.37239265
_cell_formula_units_Z   12
loop_
 _symmetry_equiv_pos_site_id
 _symmetry_equiv_pos_as_xyz
  1  'x, y, z'
loop_
 _atom_site_type_symbol
 _atom_site_label
 _atom_site_symmetry_multiplicity
 _atom_site_fract_x
 _atom_site_fract_y
 _atom_site_fract_z
 _atom_site_occupancy
  C  1  1  0.50984850  0.55835950  0.99500800  1
  C  2  1  0.45031300  0.53211500  0.01912000  1
  C  3  1  0.41527850  0.56391850  0.01938900  1
  C  4  1  0.44007700  0.62197800  0.99343500  1
  C  5  1  0.49897250  0.64921850  0.96785200  1
  C  6  1  0.53525050  0.61758850  0.96913300  1
  C  9  1  0.54298450  0.52398550  0.99885600  1
  C  10  1  0.59472100  0.54171700  0.03271400  1
  C  11  1  0.62921050  0.50842450  0.03030900  1
  C  12  1  0.60900850  0.45693550  0.99661000  1
  C  13  1  0.55694450  0.43800150  0.96409700  1
  C  14  1  0.52451650  0.47245950  0.96555700  1
  C  23  1  0.54049750  0.38357250  0.92970600  1
  C  26  1  0.68545450  0.52365050  0.06262200  1
  C  29  1  0.52073350  0.71084950  0.94085600  1
  C  32  1  0.35402800  0.53669600  0.04715100  1
  C  35  1  0.01136450  0.44118650  0.32815000  1
  C  36  1  0.04488100  0.50082200  0.35208700  1
  C  37  1  0.11172600  0.53554900  0.35241300  1
  C  38  1  0.14477150  0.51037450  0.32664400  1
  C  39  1  0.11289000  0.45140500  0.30118200  1
  C  40  1  0.04496750  0.41541950  0.30243700  1
  C  43  1  0.94386200  0.40827700  0.33208300  1
  C  44  1  0.90978400  0.35666700  0.36603700  1
  C  45  1  0.84199650  0.32236950  0.36370700  1
  C  46  1  0.81078800  0.34266500  0.33001200  1
  C  47  1  0.84399650  0.39464150  0.29743600  1
  C  48  1  0.91087850  0.42686050  0.29880300  1
  C  57  1  0.80608600  0.41116200  0.26302900  1
  C  60  1  0.80089950  0.26619650  0.39606200  1
  C  63  1  0.15253700  0.42918700  0.27442800  1
  C  66  1  0.14597800  0.59686400  0.38007000  1
  C  69  1  0.39281450  0.93993550  0.66145800  1
  C  70  1  0.41903450  0.90658950  0.68551800  1
  C  71  1  0.38716250  0.83974950  0.68577400  1
  C  72  1  0.32910700  0.80654800  0.65980700  1
  C  73  1  0.30192950  0.83826650  0.63422800  1
  C  74  1  0.33360000  0.90617300  0.63555500  1
  C  77  1  0.42718000  0.00743500  0.66541500  1
  C  78  1  0.40945800  0.04134500  0.69938200  1
  C  79  1  0.44276900  0.10913500  0.69710500  1
  C  80  1  0.49428050  0.14051450  0.66344100  1
  C  81  1  0.51322250  0.10747250  0.63083900  1
  C  82  1  0.47874250  0.04058450  0.63216600  1
  C  91  1  0.56766800  0.14554800  0.59648700  1
  C  94  1  0.42750250  0.15007050  0.72948700  1
  C  97  1  0.24030700  0.79845800  0.60720800  1
  C  100  1  0.41431100  0.80565000  0.71353100  1
  C  103  1  0.37270850  0.14010150  0.87433200  1
  C  104  1  0.42140300  0.20118600  0.85272100  1
  C  109  1  0.47775750  0.31496350  0.86173900  1
  C  110  1  0.51269850  0.32090250  0.81752200  1
  C  111  1  0.56051250  0.38215150  0.79538500  1
  C  116  1  0.45678750  0.20710950  0.80899300  1
  C  121  1  0.73044100  0.57876500  0.20741100  1
  C  122  1  0.74284300  0.53006000  0.18584500  1
  C  127  1  0.80032300  0.47376900  0.19491000  1
  C  128  1  0.77123800  0.43869700  0.15076300  1
  C  129  1  0.78462900  0.39081600  0.12870600  1
  C  134  1  0.71334250  0.49458850  0.14215900  1
  C  139  1  0.81107450  0.22119250  0.54079100  1
  C  140  1  0.74997850  0.20891950  0.51928800  1
  C  145  1  0.63621650  0.15157350  0.52841000  1
  C  146  1  0.63024550  0.18069150  0.48427400  1
  C  147  1  0.56898400  0.16734800  0.46222500  1
  C  152  1  0.74402500  0.23846800  0.47562400  1
  C  157  1  0.56067800  0.89493600  0.80090900  1
  C  158  1  0.51483450  0.82778750  0.81250200  1
  C  163  1  0.49882500  0.73373300  0.85483600  1
  C  164  1  0.43484300  0.70063200  0.83844900  1
  C  165  1  0.39012250  0.63356350  0.85106600  1
  C  170  1  0.45104400  0.79469400  0.79584300  1
  C  175  1  0.29798500  0.39061400  0.13475300  1
  C  176  1  0.27617500  0.43608700  0.14623800  1
  C  181  1  0.19762000  0.45140500  0.18845600  1
  C  182  1  0.22803450  0.51532450  0.17195500  1
  C  183  1  0.20513350  0.55963850  0.18441800  1
  C  188  1  0.30642150  0.49982050  0.12947400  1
  C  193  1  0.05645100  0.65403800  0.46722900  1
  C  194  1  0.12361700  0.67545000  0.47885700  1
  C  199  1  0.21759350  0.75363650  0.52118800  1
  C  200  1  0.25077900  0.72281300  0.50487300  1
  C  201  1  0.31785650  0.74526550  0.51753100  1
  C  206  1  0.15679700  0.64481300  0.46226600  1
  C  841  1  0.50984850  0.55835950  0.54548200  1
  C  842  1  0.45031300  0.53211500  0.56959400  1
  C  843  1  0.41527850  0.56391850  0.56986300  1
  C  844  1  0.44007700  0.62197800  0.54390900  1
  C  845  1  0.49897250  0.64921850  0.51832600  1
  C  846  1  0.53525050  0.61758850  0.51960700  1
  C  849  1  0.54298450  0.52398550  0.54933000  1
  C  850  1  0.59472100  0.54171700  0.58318800  1
  C  851  1  0.62921050  0.50842450  0.58078300  1
  C  852  1  0.60900850  0.45693550  0.54708400  1
  C  853  1  0.55694450  0.43800150  0.51457100  1
  C  854  1  0.52451650  0.47245950  0.51603100  1
  C  863  1  0.54049750  0.38357250  0.48018000  1
  C  866  1  0.68545450  0.52365050  0.61309600  1
  C  869  1  0.52073350  0.71084950  0.49133000  1
  C  872  1  0.35402800  0.53669600  0.59762500  1
  C  875  1  0.01136450  0.44118650  0.87862400  1
  C  876  1  0.04488100  0.50082200  0.90256120  1
  C  877  1  0.11172600  0.53554900  0.90288720  1
  C  878  1  0.14477150  0.51037450  0.87711800  1
  C  879  1  0.11289000  0.45140500  0.85165600  1
  C  880  1  0.04496750  0.41541950  0.85291100  1
  C  883  1  0.94386200  0.40827700  0.88255700  1
  C  884  1  0.90978400  0.35666700  0.91651120  1
  C  885  1  0.84199650  0.32236950  0.91418120  1
  C  886  1  0.81078800  0.34266500  0.88048600  1
  C  887  1  0.84399650  0.39464150  0.84791000  1
  C  888  1  0.91087850  0.42686050  0.84927700  1
  C  897  1  0.80608600  0.41116200  0.81350300  1
  C  900  1  0.80089950  0.26619650  0.94653620  1
  C  903  1  0.15253700  0.42918700  0.82490200  1
  C  906  1  0.14597800  0.59686400  0.93054420  1
  C  909  1  0.39281450  0.93993550  0.21193200  1
  C  910  1  0.41903450  0.90658950  0.23599200  1
  C  911  1  0.38716250  0.83974950  0.23624800  1
  C  912  1  0.32910700  0.80654800  0.21028100  1
  C  913  1  0.30192950  0.83826650  0.18470200  1
  C  914  1  0.33360000  0.90617300  0.18602900  1
  C  917  1  0.42718000  0.00743500  0.21588900  1
  C  918  1  0.40945800  0.04134500  0.24985600  1
  C  919  1  0.44276900  0.10913500  0.24757900  1
  C  920  1  0.49428050  0.14051450  0.21391500  1
  C  921  1  0.51322250  0.10747250  0.18131300  1
  C  922  1  0.47874250  0.04058450  0.18264000  1
  C  931  1  0.56766800  0.14554800  0.14696100  1
  C  934  1  0.42750250  0.15007050  0.27996100  1
  C  937  1  0.24030700  0.79845800  0.15768200  1
  C  940  1  0.41431100  0.80565000  0.26400500  1
  C  943  1  0.37270850  0.14010150  0.42480600  1
  C  944  1  0.42140300  0.20118600  0.40319500  1
  C  949  1  0.47775750  0.31496350  0.41221300  1
  C  950  1  0.51269850  0.32090250  0.36799600  1
  C  951  1  0.56051250  0.38215150  0.34585900  1
  C  956  1  0.45678750  0.20710950  0.35946700  1
  C  961  1  0.73044100  0.57876500  0.75788500  1
  C  962  1  0.74284300  0.53006000  0.73631900  1
  C  967  1  0.80032300  0.47376900  0.74538400  1
  C  968  1  0.77123800  0.43869700  0.70123700  1
  C  969  1  0.78462900  0.39081600  0.67918000  1
  C  974  1  0.71334250  0.49458850  0.69263300  1
  C  979  1  0.81107450  0.22119250  0.09126500  1
  C  980  1  0.74997850  0.20891950  0.06976200  1
  C  985  1  0.63621650  0.15157350  0.07888400  1
  C  986  1  0.63024550  0.18069150  0.03474800  1
  C  987  1  0.56898400  0.16734800  0.01269900  1
  C  992  1  0.74402500  0.23846800  0.02609800  1
  C  997  1  0.56067800  0.89493600  0.35138300  1
  C  998  1  0.51483450  0.82778750  0.36297600  1
  C  1003  1  0.49882500  0.73373300  0.40531000  1
  C  1004  1  0.43484300  0.70063200  0.38892300  1
  C  1005  1  0.39012250  0.63356350  0.40154000  1
  C  1010  1  0.45104400  0.79469400  0.34631700  1
  C  1015  1  0.29798500  0.39061400  0.68522700  1
  C  1016  1  0.27617500  0.43608700  0.69671200  1
  C  1021  1  0.19762000  0.45140500  0.73893000  1
  C  1022  1  0.22803450  0.51532450  0.72242900  1
  C  1023  1  0.20513350  0.55963850  0.73489200  1
  C  1028  1  0.30642150  0.49982050  0.67994800  1
  C  1033  1  0.05645100  0.65403800  0.01770300  1
  C  1034  1  0.12361700  0.67545000  0.02933100  1
  C  1039  1  0.21759350  0.75363650  0.07166200  1
  C  1040  1  0.25077900  0.72281300  0.05534700  1
  C  1041  1  0.31785650  0.74526550  0.06800500  1
  C  1046  1  0.15679700  0.64481300  0.01274000  1
  H  7  1  0.43274700  0.48987000  0.03797000  1
  H  8  1  0.41431900  0.64480900  0.99320500  1
  H  15  1  0.63277450  0.43203350  0.99564200  1
  H  16  1  0.48701050  0.46018750  0.94190200  1
  H  19  1  0.61798200  0.62187200  0.94603600  1
  H  20  1  0.61262600  0.68395200  0.92945900  1
  H  21  1  0.64398100  0.60109700  0.09110000  1
  H  22  1  0.58649650  0.61137850  0.06955600  1
  H  24  1  0.58374050  0.39439550  0.90922300  1
  H  25  1  0.52787700  0.34205700  0.95326200  1
  H  27  1  0.71274850  0.50348850  0.04607200  1
  H  28  1  0.71790750  0.57493250  0.06304900  1
  H  30  1  0.56723700  0.74564200  0.95559600  1
  H  31  1  0.48973050  0.73032450  0.94935900  1
  H  33  1  0.33311350  0.56734050  0.04395600  1
  H  34  1  0.32089350  0.49100550  0.03002800  1
  H  41  1  0.02035950  0.51860750  0.37087700  1
  H  42  1  0.19337150  0.53590650  0.32646000  1
  H  49  1  0.76212050  0.31903650  0.32909800  1
  H  50  1  0.93616900  0.46427800  0.27509100  1
  H  53  1  0.96627850  0.33284050  0.27942500  1
  H  54  1  0.03355400  0.33773700  0.26299100  1
  H  55  1  0.91977550  0.30749550  0.42453600  1
  H  56  1  0.98760850  0.36475950  0.40288700  1
  H  58  1  0.77353650  0.36790050  0.24262000  1
  H  59  1  0.77732450  0.42397150  0.28656900  1
  H  61  1  0.75342400  0.23897900  0.37953100  1
  H  62  1  0.81961200  0.23364800  0.39650400  1
  H  64  1  0.14042850  0.38261750  0.28927000  1
  H  65  1  0.20302700  0.45990000  0.28305100  1
  H  67  1  0.19751200  0.61748200  0.37698700  1
  H  68  1  0.13374300  0.63014300  0.36277500  1
  H  75  1  0.46123200  0.93122100  0.70443400  1
  H  76  1  0.30623450  0.75795750  0.65955800  1
  H  83  1  0.51919450  0.18918550  0.66256600  1
  H  84  1  0.49102200  0.01541200  0.60845200  1
  H  87  1  0.32941300  0.98468700  0.61249700  1
  H  88  1  0.26732650  0.91729350  0.59585000  1
  H  89  1  0.35027950  0.03108950  0.75793900  1
  H  90  1  0.33993650  0.96337250  0.73620800  1
  H  92  1  0.55687650  0.17805650  0.57610500  1
  H  93  1  0.60918850  0.17434150  0.62006400  1
  H  95  1  0.44753850  0.19751150  0.71293100  1
  H  96  1  0.37620850  0.13115550  0.72999800  1
  H  98  1  0.20554750  0.81024150  0.62190800  1
  H  99  1  0.22074950  0.74797350  0.61573000  1
  H  101  1  0.38356050  0.75409850  0.71038100  1
  H  102  1  0.45994100  0.81807400  0.69636100  1
  H  105  1  0.38666850  0.13533550  0.91222000  1
  H  106  1  0.36613850  0.09940950  0.85236800  1
  H  107  1  0.32733800  0.13905000  0.87604400  1
  H  112  1  0.53856800  0.41059900  0.78631900  1
  H  113  1  0.58027950  0.37488350  0.76092700  1
  H  114  1  0.59955000  0.40843900  0.82145400  1
  H  118  1  0.49580750  0.40426750  0.87189600  1
  H  120  1  0.49463650  0.15796250  0.78201900  1
  H  123  1  0.71175500  0.56486000  0.24531300  1
  H  124  1  0.69628400  0.58527900  0.18544400  1
  H  125  1  0.77474700  0.62415200  0.20907400  1
  H  130  1  0.83500500  0.41273800  0.11957700  1
  H  131  1  0.75752350  0.37093650  0.09429500  1
  H  132  1  0.77194450  0.35186750  0.15485400  1
  H  136  1  0.87145250  0.45556450  0.20516000  1
  H  138  1  0.62630250  0.45664850  0.11526200  1
  H  141  1  0.81592550  0.23984650  0.57871200  1
  H  142  1  0.85174950  0.25532650  0.51882000  1
  H  143  1  0.81207000  0.17684000  0.54239400  1
  H  148  1  0.54049100  0.11697400  0.45310300  1
  H  149  1  0.57622650  0.19445150  0.42781300  1
  H  150  1  0.54275000  0.18007200  0.48837200  1
  H  154  1  0.54692250  0.08030950  0.53854700  1
  H  156  1  0.79320750  0.32547550  0.44866400  1
  H  159  1  0.57756050  0.92179850  0.83572900  1
  H  160  1  0.54002100  0.91706100  0.77788200  1
  H  161  1  0.60115500  0.89787500  0.78080500  1
  H  166  1  0.40789700  0.60336100  0.83668100  1
  H  167  1  0.34335750  0.61763050  0.83470700  1
  H  168  1  0.38468500  0.62793900  0.89159400  1
  H  172  1  0.51822400  0.66423200  0.87225900  1
  H  174  1  0.38247200  0.81538900  0.78362600  1
  H  177  1  0.30815600  0.37397200  0.16961300  1
  H  178  1  0.34077350  0.41150650  0.11172600  1
  H  179  1  0.26064100  0.34993800  0.11468900  1
  H  184  1  0.15707700  0.54140600  0.17005500  1
  H  185  1  0.23562500  0.60640900  0.16794300  1
  H  186  1  0.20494300  0.56521800  0.22492700  1
  H  190  1  0.10834100  0.43105200  0.20566900  1
  H  192  1  0.39550200  0.56880700  0.11723600  1
  H  195  1  0.02956350  0.64405250  0.50203800  1
  H  196  1  0.03439150  0.61123350  0.44422900  1
  H  197  1  0.05345850  0.69152150  0.44708700  1
  H  202  1  0.34801200  0.79324400  0.50313500  1
  H  203  1  0.33387100  0.71447900  0.50121400  1
  H  204  1  0.32345450  0.74548650  0.55806400  1
  H  208  1  0.28696400  0.84260200  0.53862900  1
  H  210  1  0.13611350  0.55550850  0.45027100  1
  H  847  1  0.43274700  0.48987000  0.58844400  1
  H  848  1  0.41431900  0.64480900  0.54367900  1
  H  855  1  0.63277450  0.43203350  0.54611600  1
  H  856  1  0.48701050  0.46018750  0.49237600  1
  H  859  1  0.61798200  0.62187200  0.49651000  1
  H  860  1  0.61262600  0.68395200  0.47993300  1
  H  861  1  0.64398100  0.60109700  0.64157400  1
  H  862  1  0.58649650  0.61137850  0.62003000  1
  H  864  1  0.58374050  0.39439550  0.45969700  1
  H  865  1  0.52787700  0.34205700  0.50373600  1
  H  867  1  0.71274850  0.50348850  0.59654600  1
  H  868  1  0.71790750  0.57493250  0.61352300  1
  H  870  1  0.56723700  0.74564200  0.50607000  1
  H  871  1  0.48973050  0.73032450  0.49983300  1
  H  873  1  0.33311350  0.56734050  0.59443000  1
  H  874  1  0.32089350  0.49100550  0.58050200  1
  H  881  1  0.02035950  0.51860750  0.92135120  1
  H  882  1  0.19337150  0.53590650  0.87693400  1
  H  889  1  0.76212050  0.31903650  0.87957200  1
  H  890  1  0.93616900  0.46427800  0.82556500  1
  H  893  1  0.96627850  0.33284050  0.82989900  1
  H  894  1  0.03355400  0.33773700  0.81346500  1
  H  895  1  0.91977550  0.30749550  0.97501020  1
  H  896  1  0.98760850  0.36475950  0.95336120  1
  H  898  1  0.77353650  0.36790050  0.79309400  1
  H  899  1  0.77732450  0.42397150  0.83704300  1
  H  901  1  0.75342400  0.23897900  0.93000520  1
  H  902  1  0.81961200  0.23364800  0.94697820  1
  H  904  1  0.14042850  0.38261750  0.83974400  1
  H  905  1  0.20302700  0.45990000  0.83352500  1
  H  907  1  0.19751200  0.61748200  0.92746120  1
  H  908  1  0.13374300  0.63014300  0.91324920  1
  H  915  1  0.46123200  0.93122100  0.25490800  1
  H  916  1  0.30623450  0.75795750  0.21003200  1
  H  923  1  0.51919450  0.18918550  0.21304000  1
  H  924  1  0.49102200  0.01541200  0.15892600  1
  H  927  1  0.32941300  0.98468700  0.16297100  1
  H  928  1  0.26732650  0.91729350  0.14632400  1
  H  929  1  0.35027950  0.03108950  0.30841300  1
  H  930  1  0.33993650  0.96337250  0.28668200  1
  H  932  1  0.55687650  0.17805650  0.12657900  1
  H  933  1  0.60918850  0.17434150  0.17053800  1
  H  935  1  0.44753850  0.19751150  0.26340500  1
  H  936  1  0.37620850  0.13115550  0.28047200  1
  H  938  1  0.20554750  0.81024150  0.17238200  1
  H  939  1  0.22074950  0.74797350  0.16620400  1
  H  941  1  0.38356050  0.75409850  0.26085500  1
  H  942  1  0.45994100  0.81807400  0.24683500  1
  H  945  1  0.38666850  0.13533550  0.46269400  1
  H  946  1  0.36613850  0.09940950  0.40284200  1
  H  947  1  0.32733800  0.13905000  0.42651800  1
  H  952  1  0.53856800  0.41059900  0.33679300  1
  H  953  1  0.58027950  0.37488350  0.31140100  1
  H  954  1  0.59955000  0.40843900  0.37192800  1
  H  958  1  0.49580750  0.40426750  0.42237000  1
  H  960  1  0.49463650  0.15796250  0.33249300  1
  H  963  1  0.71175500  0.56486000  0.79578700  1
  H  964  1  0.69628400  0.58527900  0.73591800  1
  H  965  1  0.77474700  0.62415200  0.75954800  1
  H  970  1  0.83500500  0.41273800  0.67005100  1
  H  971  1  0.75752350  0.37093650  0.64476900  1
  H  972  1  0.77194450  0.35186750  0.70532800  1
  H  976  1  0.87145250  0.45556450  0.75563400  1
  H  978  1  0.62630250  0.45664850  0.66573600  1
  H  981  1  0.81592550  0.23984650  0.12918600  1
  H  982  1  0.85174950  0.25532650  0.06929400  1
  H  983  1  0.81207000  0.17684000  0.09286800  1
  H  988  1  0.54049100  0.11697400  0.00357700  1
  H  989  1  0.57622650  0.19445150  0.97828720  1
  H  990  1  0.54275000  0.18007200  0.03884600  1
  H  994  1  0.54692250  0.08030950  0.08902100  1
  H  996  1  0.79320750  0.32547550  0.99913825  1
  H  999  1  0.57756050  0.92179850  0.38620300  1
  H  1000  1  0.54002100  0.91706100  0.32835600  1
  H  1001  1  0.60115500  0.89787500  0.33127900  1
  H  1006  1  0.40789700  0.60336100  0.38715500  1
  H  1007  1  0.34335750  0.61763050  0.38518100  1
  H  1008  1  0.38468500  0.62793900  0.44206800  1
  H  1012  1  0.51822400  0.66423200  0.42273300  1
  H  1014  1  0.38247200  0.81538900  0.33410000  1
  H  1017  1  0.30815600  0.37397200  0.72008700  1
  H  1018  1  0.34077350  0.41150650  0.66220000  1
  H  1019  1  0.26064100  0.34993800  0.66516300  1
  H  1024  1  0.15707700  0.54140600  0.72052900  1
  H  1025  1  0.23562500  0.60640900  0.71841700  1
  H  1026  1  0.20494300  0.56521800  0.77540100  1
  H  1030  1  0.10834100  0.43105200  0.75614300  1
  H  1032  1  0.39550200  0.56880700  0.66771000  1
  H  1035  1  0.02956350  0.64405250  0.05251200  1
  H  1036  1  0.03439150  0.61123350  0.99470325  1
  H  1037  1  0.05345850  0.69152150  0.99756125  1
  H  1042  1  0.34801200  0.79324400  0.05360900  1
  H  1043  1  0.33387100  0.71447900  0.05168800  1
  H  1044  1  0.32345450  0.74548650  0.10853800  1
  H  1048  1  0.28696400  0.84260200  0.08910300  1
  H  1050  1  0.13611350  0.55550850  0.00074500  1
  N  17  1  0.59318000  0.64313300  0.94620000  1
  N  18  1  0.61054900  0.58947400  0.06656300  1
  N  51  1  0.01235250  0.35741150  0.27965000  1
  N  52  1  0.94165150  0.34075850  0.39988700  1
  N  85  1  0.30811000  0.93862000  0.61264000  1
  N  86  1  0.36166850  0.00932250  0.73319100  1
  N  108  1  0.43401950  0.25549950  0.87698300  1
  N  115  1  0.50053450  0.26660750  0.79378800  1
  N  117  1  0.48782100  0.36597100  0.89334200  1
  N  119  1  0.45068950  0.15441750  0.78182800  1
  N  126  1  0.78457600  0.51750500  0.21011900  1
  N  133  1  0.72907450  0.45080150  0.12701700  1
  N  135  1  0.84122400  0.46371000  0.22656800  1
  N  137  1  0.66668133  0.50058533  0.11500000  1
  N  144  1  0.69568950  0.16721250  0.54356600  1
  N  151  1  0.68452100  0.22281100  0.46051300  1
  N  153  1  0.58523350  0.11055950  0.56000400  1
  N  155  1  0.79669400  0.28504200  0.44842800  1
  N  162  1  0.53553700  0.79542300  0.84102100  1
  N  169  1  0.41423650  0.73285050  0.80965700  1
  N  171  1  0.52729050  0.70761050  0.88549200  1
  N  173  1  0.42438650  0.82433750  0.76718500  1
  N  180  1  0.22305150  0.41506250  0.17473800  1
  N  187  1  0.28091900  0.53625500  0.14317700  1
  N  189  1  0.14299100  0.42258100  0.21904600  1
  N  191  1  0.36273200  0.52678200  0.10082100  1
  N  198  1  0.15590150  0.72855750  0.50734600  1
  N  205  1  0.21863700  0.66994100  0.47611900  1
  N  207  1  0.24360200  0.80822800  0.55183800  1
  N  209  1  0.12720800  0.58843500  0.43370200  1
  N  857  1  0.59318000  0.64313300  0.49667400  1
  N  858  1  0.61054900  0.58947400  0.61703700  1
  N  891  1  0.01235250  0.35741150  0.83012400  1
  N  892  1  0.94165150  0.34075850  0.95036120  1
  N  925  1  0.30811000  0.93862000  0.16311400  1
  N  926  1  0.36166850  0.00932250  0.28366500  1
  N  948  1  0.43401950  0.25549950  0.42745700  1
  N  955  1  0.50053450  0.26660750  0.34426200  1
  N  957  1  0.48782100  0.36597100  0.44381600  1
  N  959  1  0.45068950  0.15441750  0.33230200  1
  N  966  1  0.78457600  0.51750500  0.76059300  1
  N  973  1  0.72907450  0.45080150  0.67749100  1
  N  975  1  0.84122400  0.46371000  0.77704200  1
  N  977  1  0.66668133  0.50058533  0.66547400  1
  N  984  1  0.69568950  0.16721250  0.09404000  1
  N  991  1  0.68452100  0.22281100  0.01098700  1
  N  993  1  0.58523350  0.11055950  0.11047800  1
  N  995  1  0.79669400  0.28504200  0.99890225  1
  N  1002  1  0.53553700  0.79542300  0.39149500  1
  N  1009  1  0.41423650  0.73285050  0.36013100  1
  N  1011  1  0.52729050  0.70761050  0.43596600  1
  N  1013  1  0.42438650  0.82433750  0.31765900  1
  N  1020  1  0.22305150  0.41506250  0.72521200  1
  N  1027  1  0.28091900  0.53625500  0.69365100  1
  N  1029  1  0.14299100  0.42258100  0.76952000  1
  N  1031  1  0.36273200  0.52678200  0.65129500  1
  N  1038  1  0.15590150  0.72855750  0.05782000  1
  N  1045  1  0.21863700  0.66994100  0.02659300  1
  N  1047  1  0.24360200  0.80822800  0.10231200  1
  N  1049  1  0.12720800  0.58843500  0.98417620  1
