# generated using pymatgen
data_ZnH13C22NO4
_symmetry_space_group_name_H-M   'P 1'
_cell_length_a   11.79115000
_cell_length_b   14.01037000
_cell_length_c   15.70111000
_cell_angle_alpha   90.00000000
_cell_angle_beta   90.00000000
_cell_angle_gamma   90.00000000
_symmetry_Int_Tables_number   1
_chemical_formula_structural   ZnH13C22NO4
_chemical_formula_sum   'Zn2 H26 C44 N2 O8'
_cell_volume   2593.79784554
_cell_formula_units_Z   2
loop_
 _symmetry_equiv_pos_site_id
 _symmetry_equiv_pos_as_xyz
  1  'x, y, z'
loop_
 _atom_site_type_symbol
 _atom_site_label
 _atom_site_symmetry_multiplicity
 _atom_site_fract_x
 _atom_site_fract_y
 _atom_site_fract_z
 _atom_site_occupancy
  Zn  Zn0  1  0.50000000  0.09786000  0.00000000  1
  Zn  Zn1  1  0.50000000  0.90214000  0.00000000  1
  H  H2  1  0.13531000  0.15328000  0.33258000  1
  H  H3  1  0.25886000  0.15279000  0.20303000  1
  H  H4  1  0.86469000  0.84672000  0.33258000  1
  H  H5  1  0.74114000  0.84721000  0.20303000  1
  H  H6  1  0.86469000  0.15328000  0.66742000  1
  H  H7  1  0.74114000  0.15279000  0.79697000  1
  H  H8  1  0.13531000  0.84672000  0.66742000  1
  H  H9  1  0.25886000  0.84721000  0.79697000  1
  H  H10  1  0.86469000  0.84672000  0.66742000  1
  H  H11  1  0.74114000  0.84721000  0.79697000  1
  H  H12  1  0.13531000  0.15328000  0.66742000  1
  H  H13  1  0.25886000  0.15279000  0.79697000  1
  H  H14  1  0.13531000  0.84672000  0.33258000  1
  H  H15  1  0.25886000  0.84721000  0.20303000  1
  H  H16  1  0.86469000  0.15328000  0.33258000  1
  H  H17  1  0.74114000  0.15279000  0.20303000  1
  H  H18  1  0.79055000  0.00000000  0.50000000  1
  H  H19  1  0.20945000  0.00000000  0.50000000  1
  H  H20  1  0.32496000  0.25186000  0.00000000  1
  H  H21  1  0.31621000  0.42883000  0.00000000  1
  H  H22  1  0.67504000  0.74814000  0.00000000  1
  H  H23  1  0.68379000  0.57117000  0.00000000  1
  H  H24  1  0.67504000  0.25186000  0.00000000  1
  H  H25  1  0.68379000  0.42883000  0.00000000  1
  H  H26  1  0.32496000  0.74814000  0.00000000  1
  H  H27  1  0.31621000  0.57117000  0.00000000  1
  C  C28  1  0.16160000  0.08622000  0.30382000  1
  C  C29  1  0.23031000  0.08627000  0.23151000  1
  C  C30  1  0.83841000  0.91378000  0.30382000  1
  C  C31  1  0.76969000  0.91372000  0.23151000  1
  C  C32  1  0.83840000  0.08622000  0.69618000  1
  C  C33  1  0.76969000  0.08627000  0.76849000  1
  C  C34  1  0.16160000  0.91378000  0.69618000  1
  C  C35  1  0.23031000  0.91372000  0.76849000  1
  C  C36  1  0.83841000  0.91378000  0.69618000  1
  C  C37  1  0.76969000  0.91372000  0.76849000  1
  C  C38  1  0.16160000  0.08622000  0.69618000  1
  C  C39  1  0.23031000  0.08627000  0.76849000  1
  C  C40  1  0.16160000  0.91378000  0.30382000  1
  C  C41  1  0.23031000  0.91372000  0.23151000  1
  C  C42  1  0.83840000  0.08622000  0.30382000  1
  C  C43  1  0.76969000  0.08627000  0.23151000  1
  C  C44  1  0.50000000  0.44697000  0.00000000  1
  C  C45  1  0.50000000  0.55303000  0.00000000  1
  C  C46  1  0.11719000  0.00000000  0.50000000  1
  C  C47  1  0.88281000  0.00000000  0.50000000  1
  C  C48  1  0.05973000  0.00000000  0.42173000  1
  C  C49  1  0.12718000  0.00000000  0.34136000  1
  C  C50  1  0.26601000  0.00000000  0.19500000  1
  C  C51  1  0.34518000  0.99999000  0.12024000  1
  C  C52  1  0.94027000  0.00000000  0.42173000  1
  C  C53  1  0.87283000  0.00000000  0.34136000  1
  C  C54  1  0.73399000  0.00000000  0.19500000  1
  C  C55  1  0.65482000  0.99999000  0.12024000  1
  C  C56  1  0.94027000  0.00000000  0.57827000  1
  C  C57  1  0.87283000  0.00000000  0.65864000  1
  C  C58  1  0.73399000  0.00000000  0.80500000  1
  C  C59  1  0.65482000  0.99999000  0.87976000  1
  C  C60  1  0.05973000  0.00000000  0.57827000  1
  C  C61  1  0.12718000  0.00000000  0.65864000  1
  C  C62  1  0.26601000  0.00000000  0.80500000  1
  C  C63  1  0.34518000  0.99999000  0.87976000  1
  C  C64  1  0.40188000  0.29491000  0.00000000  1
  C  C65  1  0.39858000  0.39409000  0.00000000  1
  C  C66  1  0.59812000  0.70509000  0.00000000  1
  C  C67  1  0.60142000  0.60590000  0.00000000  1
  C  C68  1  0.59812000  0.29491000  0.00000000  1
  C  C69  1  0.60142000  0.39409000  0.00000000  1
  C  C70  1  0.40188000  0.70509000  0.00000000  1
  C  C71  1  0.39858000  0.60590000  0.00000000  1
  N  N72  1  0.50000000  0.24582000  0.00000000  1
  N  N73  1  0.50000000  0.75418000  0.00000000  1
  O  O74  1  0.37683000  0.08106000  0.09167000  1
  O  O75  1  0.62317000  0.91895000  0.09168000  1
  O  O76  1  0.62317000  0.08106000  0.90833000  1
  O  O77  1  0.37683000  0.91895000  0.90832000  1
  O  O78  1  0.62317000  0.91895000  0.90832000  1
  O  O79  1  0.37683000  0.08106000  0.90833000  1
  O  O80  1  0.37683000  0.91895000  0.09168000  1
  O  O81  1  0.62317000  0.08106000  0.09167000  1
