# generated using pymatgen
data_Hf3H14(C3O2)8
_symmetry_space_group_name_H-M   'P 1'
_cell_length_a   14.66770000
_cell_length_b   14.66827977
_cell_length_c   14.66811076
_cell_angle_alpha   59.99971395
_cell_angle_beta   59.99929914
_cell_angle_gamma   59.99878265
_symmetry_Int_Tables_number   1
_chemical_formula_structural   Hf3H14(C3O2)8
_chemical_formula_sum   'Hf6 H28 C48 O32'
_cell_volume   2231.48078447
_cell_formula_units_Z   2
loop_
 _symmetry_equiv_pos_site_id
 _symmetry_equiv_pos_as_xyz
  1  'x, y, z'
loop_
 _atom_site_type_symbol
 _atom_site_label
 _atom_site_symmetry_multiplicity
 _atom_site_fract_x
 _atom_site_fract_y
 _atom_site_fract_z
 _atom_site_occupancy
  Hf  Hf0  1  0.88138000  0.11862000  0.88138000  1
  Hf  Hf1  1  0.88138000  0.11862000  0.11863000  1
  Hf  Hf2  1  0.88138000  0.88137000  0.11863000  1
  Hf  Hf3  1  0.11863000  0.88137000  0.88138000  1
  Hf  Hf4  1  0.11863000  0.88137000  0.11863000  1
  Hf  Hf5  1  0.11863000  0.11862000  0.88138000  1
  H  H6  1  0.57875000  0.86090000  0.40703000  1
  H  H7  1  0.57875000  0.40702000  0.15333000  1
  H  H8  1  0.40702000  0.57876000  0.86090000  1
  H  H9  1  0.57875000  0.15332000  0.40703000  1
  H  H10  1  0.40702000  0.15332000  0.86090000  1
  H  H11  1  0.86089000  0.40702000  0.57877000  1
  H  H12  1  0.15331000  0.86090000  0.57877000  1
  H  H13  1  0.40701000  0.57876000  0.15333000  1
  H  H14  1  0.86089000  0.40702000  0.15333000  1
  H  H15  1  0.90595000  0.28214000  0.90596000  1
  H  H16  1  0.15332000  0.57876000  0.86090000  1
  H  H17  1  0.15332000  0.86090000  0.40702000  1
  H  H18  1  0.86089000  0.57876000  0.40703000  1
  H  H19  1  0.28215000  0.90595000  0.90595000  1
  H  H20  1  0.40701000  0.86090000  0.57877000  1
  H  H21  1  0.86089000  0.15332000  0.57877000  1
  H  H22  1  0.90595000  0.90595000  0.28215000  1
  H  H23  1  0.15332000  0.57876000  0.40702000  1
  H  H24  1  0.90595000  0.90595000  0.90596000  1
  H  H25  1  0.57876000  0.15332000  0.86091000  1
  H  H26  1  0.57875000  0.86090000  0.15333000  1
  H  H27  1  0.15331000  0.40702000  0.57877000  1
  H  H28  1  0.40701000  0.86090000  0.15333000  1
  H  H29  1  0.86089000  0.57876000  0.15333000  1
  H  H30  1  0.57875000  0.40702000  0.86091000  1
  H  H31  1  0.86089000  0.15332000  0.40703000  1
  H  H32  1  0.40701000  0.15332000  0.57877000  1
  H  H33  1  0.15332000  0.40702000  0.86090000  1
  C  C34  1  0.54028000  0.44540000  0.09002000  1
  C  C35  1  0.29839000  0.00448000  0.69265000  1
  C  C36  1  0.54027000  0.92431000  0.09002000  1
  C  C37  1  0.92430000  0.09001000  0.54029000  1
  C  C38  1  0.00672000  0.00673000  0.58868000  1
  C  C39  1  0.09001000  0.92431000  0.54028000  1
  C  C40  1  0.92430000  0.54028000  0.09002000  1
  C  C41  1  0.09002000  0.44540000  0.54028000  1
  C  C42  1  0.44540000  0.54028000  0.92431000  1
  C  C43  1  0.54028000  0.09001000  0.44541000  1
  C  C44  1  0.00673000  0.58867000  0.00673000  1
  C  C45  1  0.09001000  0.54028000  0.92431000  1
  C  C46  1  0.39788000  0.58867000  0.00673000  1
  C  C47  1  0.00448000  0.69264000  0.29840000  1
  C  C48  1  0.69264000  0.00448000  0.29841000  1
  C  C49  1  0.00448000  0.00448000  0.29840000  1
  C  C50  1  0.00448000  0.29839000  0.00449000  1
  C  C51  1  0.92430000  0.54028000  0.44541000  1
  C  C52  1  0.29839000  0.69264000  0.00449000  1
  C  C53  1  0.44540000  0.09001000  0.54029000  1
  C  C54  1  0.54027000  0.92431000  0.44541000  1
  C  C55  1  0.09001000  0.92431000  0.44540000  1
  C  C56  1  0.00673000  0.39787000  0.58868000  1
  C  C57  1  0.39788000  0.00672000  0.00673000  1
  C  C58  1  0.39787000  0.00672000  0.58869000  1
  C  C59  1  0.00673000  0.39787000  0.00673000  1
  C  C60  1  0.44540000  0.09001000  0.92431000  1
  C  C61  1  0.58867000  0.39787000  0.00674000  1
  C  C62  1  0.44540000  0.54028000  0.09002000  1
  C  C63  1  0.00673000  0.58867000  0.39788000  1
  C  C64  1  0.58866000  0.00673000  0.00674000  1
  C  C65  1  0.00672000  0.00673000  0.39788000  1
  C  C66  1  0.54028000  0.09001000  0.92431000  1
  C  C67  1  0.58867000  0.00673000  0.39788000  1
  C  C68  1  0.44539000  0.92431000  0.54029000  1
  C  C69  1  0.92430000  0.09001000  0.44541000  1
  C  C70  1  0.92430000  0.44540000  0.09002000  1
  C  C71  1  0.69264000  0.29840000  0.00449000  1
  C  C72  1  0.92430000  0.44540000  0.54029000  1
  C  C73  1  0.09002000  0.54028000  0.44540000  1
  C  C74  1  0.29839000  0.00448000  0.00449000  1
  C  C75  1  0.09001000  0.44540000  0.92431000  1
  C  C76  1  0.54028000  0.44540000  0.92431000  1
  C  C77  1  0.00448000  0.29839000  0.69265000  1
  C  C78  1  0.00448000  0.69264000  0.00449000  1
  C  C79  1  0.44539000  0.92431000  0.09002000  1
  C  C80  1  0.00448000  0.00448000  0.69265000  1
  C  C81  1  0.69264000  0.00448000  0.00449000  1
  O  O82  1  0.26027000  0.73402000  0.92513000  1
  O  O83  1  0.04962000  0.85113000  0.04963000  1
  O  O84  1  0.92513000  0.26026000  0.73403000  1
  O  O85  1  0.26027000  0.08058000  0.92513000  1
  O  O86  1  0.08058000  0.73402000  0.26028000  1
  O  O87  1  0.92513000  0.26026000  0.08059000  1
  O  O88  1  0.08059000  0.26027000  0.92512000  1
  O  O89  1  0.08058000  0.92512000  0.73403000  1
  O  O90  1  0.04962000  0.04962000  0.85114000  1
  O  O91  1  0.08059000  0.73402000  0.92512000  1
  O  O92  1  0.08058000  0.92512000  0.26028000  1
  O  O93  1  0.26027000  0.73402000  0.08059000  1
  O  O94  1  0.20119000  0.93294000  0.93294000  1
  O  O95  1  0.26027000  0.92512000  0.08059000  1
  O  O96  1  0.73402000  0.26027000  0.08059000  1
  O  O97  1  0.73402000  0.08058000  0.26028000  1
  O  O98  1  0.26027000  0.08058000  0.73403000  1
  O  O99  1  0.08058000  0.26027000  0.73403000  1
  O  O100  1  0.85112000  0.04962000  0.04964000  1
  O  O101  1  0.73402000  0.92512000  0.08059000  1
  O  O102  1  0.92513000  0.73402000  0.26027000  1
  O  O103  1  0.92513000  0.08058000  0.26027000  1
  O  O104  1  0.93294000  0.20119000  0.93294000  1
  O  O105  1  0.73402000  0.92512000  0.26028000  1
  O  O106  1  0.92513000  0.73402000  0.08059000  1
  O  O107  1  0.73402000  0.26027000  0.92513000  1
  O  O108  1  0.04962000  0.04962000  0.04963000  1
  O  O109  1  0.73402000  0.08058000  0.92513000  1
  O  O110  1  0.93295000  0.93293000  0.20119000  1
  O  O111  1  0.93294000  0.93293000  0.93294000  1
  O  O112  1  0.92513000  0.08058000  0.73403000  1
  O  O113  1  0.26027000  0.92512000  0.73403000  1
