# generated using pymatgen
data_H10C20N7O8
_symmetry_space_group_name_H-M   'P 1'
_cell_length_a   35.13030000
_cell_length_b   35.13030000
_cell_length_c   51.84350000
_cell_angle_alpha   90.20890000
_cell_angle_beta   90.00000000
_cell_angle_gamma   60.00000000
_symmetry_Int_Tables_number   1
_chemical_formula_structural   H10C20N7O8
_chemical_formula_sum   'H120 C240 N84 O96'
_cell_volume   55409.57427534
_cell_formula_units_Z   12
loop_
 _symmetry_equiv_pos_site_id
 _symmetry_equiv_pos_as_xyz
  1  'x, y, z'
loop_
 _atom_site_type_symbol
 _atom_site_label
 _atom_site_symmetry_multiplicity
 _atom_site_fract_x
 _atom_site_fract_y
 _atom_site_fract_z
 _atom_site_occupancy
  H  7  1  0.43147500  0.20737600  0.75935800  1
  H  16  1  0.43527000  0.32835400  0.74069800  1
  H  17  1  0.47154000  0.26357300  0.64384000  1
  H  18  1  0.45758200  0.31455700  0.65063400  1
  H  19  1  0.46556900  0.23897900  0.85598000  1
  H  20  1  0.44525600  0.20685700  0.84953700  1
  H  21  1  0.48116800  0.29175200  0.77553200  1
  H  22  1  0.47168900  0.19778500  0.72238100  1
  H  27  1  0.41701100  0.37159900  0.68118600  1
  H  28  1  0.51154400  0.26961300  0.83375700  1
  H  29  1  0.41063000  0.17688600  0.80052300  1
  H  30  1  0.49460500  0.17688300  0.67189000  1
  H  37  1  0.20886200  0.32404100  0.42613900  1
  H  46  1  0.32968500  0.19907400  0.40702500  1
  H  47  1  0.26503000  0.22731700  0.31036600  1
  H  48  1  0.31597600  0.19025200  0.31697300  1
  H  49  1  0.23985000  0.25863300  0.52259900  1
  H  50  1  0.20784200  0.31105900  0.51629600  1
  H  51  1  0.29292100  0.18997200  0.44193500  1
  H  52  1  0.19919300  0.29330400  0.38916400  1
  H  57  1  0.37297400  0.17378100  0.34736600  1
  H  58  1  0.27057700  0.18205000  0.50036500  1
  H  59  1  0.17830300  0.37551400  0.46744200  1
  H  60  1  0.17839100  0.29084500  0.33866100  1
  H  67  1  0.32468200  0.42983600  0.09269600  1
  H  76  1  0.19935200  0.43494300  0.07350900  1
  H  77  1  0.22885200  0.47121200  0.97709000  1
  H  78  1  0.19156900  0.45752200  0.98354100  1
  H  79  1  0.25926500  0.46361100  0.18939500  1
  H  80  1  0.31171700  0.44305200  0.18294500  1
  H  81  1  0.19054800  0.48010300  0.10885800  1
  H  82  1  0.29415700  0.47070600  0.05607400  1
  H  87  1  0.17441500  0.41718000  0.01383800  1
  H  88  1  0.18258800  0.50979600  0.16738900  1
  H  89  1  0.37621600  0.40856000  0.13362900  1
  H  90  1  0.29155500  0.49445100  0.00533600  1
  H  97  1  0.54576300  0.76668900  0.25856800  1
  H  106  1  0.54145100  0.64603700  0.23915700  1
  H  107  1  0.50443800  0.71161400  0.14280500  1
  H  108  1  0.51823000  0.66063300  0.14923600  1
  H  109  1  0.51230800  0.73465000  0.35508600  1
  H  110  1  0.53266600  0.76672600  0.34877800  1
  H  111  1  0.49598200  0.68239700  0.27436700  1
  H  112  1  0.50513400  0.77667400  0.22177800  1
  H  117  1  0.55890200  0.60334600  0.17927200  1
  H  118  1  0.46591500  0.70427100  0.33263900  1
  H  119  1  0.56703900  0.79683600  0.29992700  1
  H  120  1  0.48138700  0.79768300  0.17113100  1
  H  127  1  0.76798000  0.65029100  0.92525500  1
  H  136  1  0.64725700  0.77506500  0.90623800  1
  H  137  1  0.71294300  0.74631700  0.80968900  1
  H  138  1  0.66192700  0.78343100  0.81630400  1
  H  139  1  0.73544600  0.71640600  0.02187000  1
  H  140  1  0.76755000  0.66393200  0.01547800  1
  H  141  1  0.68357900  0.78445300  0.94129100  1
  H  142  1  0.77792500  0.68071400  0.88839000  1
  H  147  1  0.60452700  0.80009700  0.84653100  1
  H  148  1  0.70522100  0.79298900  0.99957100  1
  H  149  1  0.79808900  0.59911700  0.96644800  1
  H  150  1  0.79931100  0.68253900  0.83802200  1
  H  157  1  0.65117800  0.54402000  0.59205300  1
  H  166  1  0.77575600  0.54043500  0.57290900  1
  H  167  1  0.74710900  0.50429000  0.47612200  1
  H  168  1  0.78415700  0.51821500  0.48280400  1
  H  169  1  0.71754000  0.50953300  0.68837300  1
  H  170  1  0.66506000  0.52992400  0.68218100  1
  H  171  1  0.78536200  0.49420500  0.60759000  1
  H  172  1  0.68160500  0.50401000  0.55486400  1
  H  177  1  0.80092300  0.55850400  0.51324800  1
  H  178  1  0.79389600  0.46374000  0.66597600  1
  H  179  1  0.60013800  0.56480200  0.63348800  1
  H  180  1  0.68385800  0.48095500  0.50424400  1
  H  187  1  0.35280900  0.47662300  0.97389500  1
  H  194  1  0.38386700  0.39528200  0.84110800  1
  H  195  1  0.50196000  0.30162500  0.87570700  1
  H  196  1  0.33561300  0.36723100  0.96456100  1
  H  217  1  0.47703600  0.13380800  0.63999000  1
  H  224  1  0.39632900  0.18382900  0.50728000  1
  H  225  1  0.30224400  0.16009900  0.54217200  1
  H  226  1  0.36819300  0.26065200  0.63089900  1
  H  247  1  0.13517200  0.35158500  0.30710300  1
  H  254  1  0.18474300  0.38209600  0.17415900  1
  H  255  1  0.16093100  0.50001300  0.20930900  1
  H  256  1  0.26200300  0.33353300  0.29745000  1
  H  277  1  0.62332900  0.49832700  0.47243000  1
  H  284  1  0.59371700  0.57865300  0.33985900  1
  H  285  1  0.47521800  0.67260000  0.37447900  1
  H  286  1  0.64069000  0.60759900  0.46351900  1
  H  307  1  0.49879600  0.84110600  0.13960100  1
  H  314  1  0.57965700  0.79081400  0.00674800  1
  H  315  1  0.67320300  0.81559700  0.04146600  1
  H  316  1  0.60827400  0.71461100  0.13009300  1
  H  337  1  0.84234300  0.62218000  0.80587600  1
  H  344  1  0.79203300  0.59133200  0.67303000  1
  H  345  1  0.81614300  0.47344700  0.70776800  1
  H  346  1  0.71559000  0.63992200  0.79658800  1
  H  367  1  0.59218600  0.87120600  0.82057700  1
  H  374  1  0.54304000  0.09008800  0.83541000  1
  H  375  1  0.42260300  0.10297400  0.81193900  1
  H  376  1  0.56156500  0.90591900  0.89852200  1
  H  397  1  0.87251100  0.49947600  0.48726200  1
  H  404  1  0.09111500  0.33026800  0.50228600  1
  H  405  1  0.10425100  0.43757400  0.47882900  1
  H  406  1  0.90605800  0.49637900  0.56524900  1
  H  427  1  0.50066200  0.58985100  0.15353100  1
  H  434  1  0.33090400  0.54105200  0.16886800  1
  H  435  1  0.43829200  0.42022400  0.14543200  1
  H  436  1  0.49654600  0.56052200  0.23155300  1
  H  457  1  0.38574600  0.10230700  0.32112800  1
  H  464  1  0.43470600  0.88364600  0.33534600  1
  H  465  1  0.55516300  0.87070300  0.31180700  1
  H  466  1  0.41555100  0.06829900  0.39904000  1
  H  487  1  0.10330000  0.47536100  0.98771300  1
  H  494  1  0.88447400  0.64506300  0.00187200  1
  H  495  1  0.87177200  0.53723600  0.97848000  1
  H  496  1  0.06844300  0.48044600  0.06563100  1
  H  517  1  0.47629900  0.38325000  0.65477900  1
  H  524  1  0.64575200  0.43273500  0.66874800  1
  H  525  1  0.53820400  0.55278600  0.64504600  1
  H  526  1  0.48012200  0.41460100  0.73259700  1
  C  1  1  0.45521300  0.25185000  0.76305600  1
  C  2  1  0.44226000  0.22211000  0.77222600  1
  C  3  1  0.44444000  0.21132400  0.79861900  1
  C  4  1  0.45765200  0.23255400  0.81716800  1
  C  5  1  0.47097700  0.26243900  0.80811700  1
  C  6  1  0.47027700  0.27105800  0.78151400  1
  C  9  1  0.45453500  0.26125900  0.73602200  1
  C  10  1  0.46426000  0.22875400  0.71692600  1
  C  11  1  0.46405300  0.23761300  0.69037300  1
  C  12  1  0.45660800  0.27953000  0.68210400  1
  C  13  1  0.44560400  0.31294700  0.70110500  1
  C  14  1  0.44400100  0.30360800  0.72744500  1
  C  23  1  0.43888900  0.35408100  0.69470100  1
  C  24  1  0.48260100  0.28539000  0.82497500  1
  C  25  1  0.43840500  0.17639800  0.80491500  1
  C  26  1  0.46728000  0.20593000  0.67314000  1
  C  31  1  0.25318600  0.25580900  0.42964800  1
  C  32  1  0.22351500  0.29856000  0.43894100  1
  C  33  1  0.21263900  0.30725500  0.46536700  1
  C  34  1  0.23371100  0.27286300  0.48382100  1
  C  35  1  0.26357300  0.22960500  0.47464500  1
  C  36  1  0.27228000  0.22159300  0.44801300  1
  C  39  1  0.26263100  0.24697700  0.40258100  1
  C  40  1  0.23015600  0.26971500  0.38359900  1
  C  41  1  0.23903100  0.26093700  0.35701300  1
  C  42  1  0.28093300  0.22637900  0.34859500  1
  C  43  1  0.31431900  0.20400600  0.36747900  1
  C  44  1  0.30496500  0.21506700  0.39385500  1
  C  53  1  0.35541300  0.16948600  0.36091700  1
  C  54  1  0.28634000  0.19504400  0.49139000  1
  C  55  1  0.17773900  0.34827200  0.47178000  1
  C  56  1  0.20735400  0.28929400  0.33989600  1
  C  61  1  0.25640300  0.45396200  0.09637200  1
  C  62  1  0.29919500  0.44058800  0.10557500  1
  C  63  1  0.30793900  0.44239900  0.13201800  1
  C  64  1  0.27351500  0.45567900  0.15056300  1
  C  65  1  0.23022900  0.46928500  0.14148700  1
  C  66  1  0.22218600  0.46894800  0.11485100  1
  C  69  1  0.24756300  0.45375300  0.06929000  1
  C  70  1  0.27049200  0.46352100  0.05041800  1
  C  71  1  0.26183100  0.46368300  0.02382100  1
  C  72  1  0.22728300  0.45648100  0.01527700  1
  C  73  1  0.20462100  0.44557100  0.03404800  1
  C  74  1  0.21551500  0.44365700  0.06043500  1
  C  83  1  0.17004800  0.43923300  0.02734300  1
  C  84  1  0.19565300  0.48102100  0.15833000  1
  C  85  1  0.34897600  0.43618500  0.13837000  1
  C  86  1  0.29047800  0.46681600  0.00679600  1
  C  91  1  0.52194000  0.72228600  0.26206100  1
  C  92  1  0.53508700  0.75187700  0.27137700  1
  C  93  1  0.53314800  0.76248800  0.29784000  1
  C  94  1  0.52002600  0.74120100  0.31629400  1
  C  95  1  0.50658000  0.71140400  0.30710100  1
  C  96  1  0.50701100  0.70298100  0.28044500  1
  C  99  1  0.52230300  0.71312000  0.23496600  1
  C  100  1  0.51244100  0.74576900  0.21610500  1
  C  101  1  0.51233600  0.73714700  0.18949800  1
  C  102  1  0.51961100  0.69533400  0.18093700  1
  C  103  1  0.53070300  0.66177900  0.19969400  1
  C  104  1  0.53263000  0.67088100  0.22608500  1
  C  113  1  0.53724200  0.62073700  0.19300000  1
  C  114  1  0.49492400  0.68848900  0.32385500  1
  C  115  1  0.53924200  0.79737400  0.30431700  1
  C  116  1  0.50900900  0.76893800  0.17248500  1
  C  121  1  0.72351300  0.71853100  0.92887400  1
  C  122  1  0.75312700  0.67586600  0.93810500  1
  C  123  1  0.76363500  0.66736700  0.96454200  1
  C  124  1  0.74224200  0.70189400  0.98305700  1
  C  125  1  0.71249800  0.74507700  0.97394300  1
  C  126  1  0.70416200  0.75288500  0.94731000  1
  C  129  1  0.71436800  0.72716200  0.90180900  1
  C  130  1  0.74702700  0.70428600  0.88282900  1
  C  131  1  0.73841800  0.71289300  0.85625200  1
  C  132  1  0.69661100  0.74741500  0.84785100  1
  C  133  1  0.66303100  0.76990300  0.86672500  1
  C  134  1  0.67211800  0.75899700  0.89308100  1
  C  143  1  0.62198500  0.80434700  0.86018900  1
  C  144  1  0.68947800  0.77975500  0.99075700  1
  C  145  1  0.79849700  0.62642900  0.97094200  1
  C  146  1  0.77021300  0.68435600  0.83910500  1
  C  151  1  0.71941100  0.52027200  0.59543500  1
  C  152  1  0.67678000  0.53318900  0.60480300  1
  C  153  1  0.66836600  0.53089500  0.63123700  1
  C  154  1  0.70292900  0.51761200  0.64962500  1
  C  155  1  0.74608400  0.50428800  0.64036600  1
  C  156  1  0.75381300  0.50509900  0.61372600  1
  C  159  1  0.72796300  0.52112800  0.56836800  1
  C  160  1  0.70512000  0.51146800  0.54933800  1
  C  161  1  0.71371800  0.51172900  0.52275700  1
  C  162  1  0.74819500  0.51916200  0.51439200  1
  C  163  1  0.77063200  0.53015400  0.53332600  1
  C  164  1  0.75972300  0.53172300  0.55969600  1
  C  173  1  0.80508600  0.53681700  0.52683500  1
  C  174  1  0.78080500  0.49250300  0.65704400  1
  C  175  1  0.62742400  0.53696900  0.63773300  1
  C  176  1  0.68530700  0.50842100  0.50560000  1
  C  181  1  0.34099700  0.42328300  0.97269200  1
  C  182  1  0.34966900  0.38532500  0.95881600  1
  C  183  1  0.37524700  0.37292400  0.93610500  1
  C  184  1  0.39346100  0.39879000  0.92745400  1
  C  185  1  0.38568300  0.43677100  0.94150100  1
  C  186  1  0.35937600  0.44866800  0.96408500  1
  C  188  1  0.41499200  0.38834000  0.90305300  1
  C  189  1  0.38875400  0.40614700  0.88066500  1
  C  190  1  0.40465000  0.38486500  0.85664500  1
  C  191  1  0.44572800  0.34614100  0.85458900  1
  C  192  1  0.47294000  0.33076900  0.87657300  1
  C  193  1  0.45790400  0.35132000  0.90088500  1
  C  211  1  0.42395300  0.19908800  0.63891600  1
  C  212  1  0.38618000  0.22845900  0.62509300  1
  C  213  1  0.37382700  0.21528600  0.60236100  1
  C  214  1  0.39955900  0.17114200  0.59362100  1
  C  215  1  0.43734500  0.14085300  0.60761700  1
  C  216  1  0.44919200  0.15525100  0.63023200  1
  C  218  1  0.38917500  0.15999900  0.56921300  1
  C  219  1  0.40712900  0.16819400  0.54679300  1
  C  220  1  0.38583100  0.17360400  0.52284400  1
  C  221  1  0.34694000  0.17156800  0.52094200  1
  C  222  1  0.33150200  0.15974600  0.54291600  1
  C  223  1  0.35201400  0.15431700  0.56717400  1
  C  241  1  0.20048800  0.33927000  0.30569400  1
  C  242  1  0.22980200  0.34770200  0.29178100  1
  C  243  1  0.21656100  0.37319000  0.26913000  1
  C  244  1  0.17239600  0.39157300  0.26058900  1
  C  245  1  0.14214500  0.38411500  0.27470900  1
  C  246  1  0.15661200  0.35789400  0.29723200  1
  C  248  1  0.16118300  0.41307300  0.23625600  1
  C  249  1  0.16935900  0.38689300  0.21376700  1
  C  250  1  0.17474000  0.40275700  0.18982700  1
  C  251  1  0.17250500  0.44376600  0.18796000  1
  C  252  1  0.16085600  0.47096800  0.21004800  1
  C  253  1  0.15543400  0.45593900  0.23430200  1
  C  271  1  0.63526800  0.55158200  0.47140800  1
  C  272  1  0.62670500  0.58945100  0.45765900  1
  C  273  1  0.60129700  0.60171600  0.43494400  1
  C  274  1  0.58317800  0.57577600  0.42614800  1
  C  275  1  0.59077400  0.53792800  0.44009100  1
  C  276  1  0.61687300  0.52619600  0.46270100  1
  C  278  1  0.56188400  0.58603300  0.40172500  1
  C  279  1  0.58836800  0.56805900  0.37934600  1
  C  280  1  0.57277600  0.58924100  0.35537300  1
  C  281  1  0.53179200  0.62800300  0.35337500  1
  C  282  1  0.50427400  0.64350500  0.37530500  1
  C  283  1  0.51900500  0.62305900  0.39957200  1
  C  301  1  0.55220300  0.77599500  0.13830800  1
  C  302  1  0.59009500  0.74675500  0.12438800  1
  C  303  1  0.60232800  0.75997300  0.10169200  1
  C  304  1  0.57635000  0.80404800  0.09309900  1
  C  305  1  0.53842700  0.83420500  0.10718900  1
  C  306  1  0.52670400  0.81975200  0.12975800  1
  C  308  1  0.58665900  0.81517900  0.06872300  1
  C  309  1  0.56884200  0.80665400  0.04631000  1
  C  310  1  0.59006000  0.80126500  0.02230400  1
  C  311  1  0.62873100  0.80370600  0.02028900  1
  C  312  1  0.64409100  0.81566000  0.04229900  1
  C  313  1  0.62360500  0.82118000  0.06659800  1
  C  331  1  0.77711500  0.63423000  0.80471200  1
  C  332  1  0.74777300  0.62576400  0.79081500  1
  C  333  1  0.76095600  0.60024000  0.76805200  1
  C  334  1  0.80508200  0.58190100  0.75935200  1
  C  335  1  0.83533800  0.58947300  0.77342200  1
  C  336  1  0.82092900  0.61571300  0.79606900  1
  C  338  1  0.81622300  0.56035600  0.73492300  1
  C  339  1  0.80788300  0.58650900  0.71253600  1
  C  340  1  0.80238000  0.57060000  0.68856400  1
  C  341  1  0.80446600  0.52964700  0.68661200  1
  C  342  1  0.81645800  0.50237400  0.70854700  1
  C  343  1  0.82198100  0.51748000  0.73282600  1
  C  361  1  0.57922400  0.88188700  0.86052200  1
  C  362  1  0.55654600  0.91433700  0.87942100  1
  C  363  1  0.52949600  0.95898500  0.87257600  1
  C  364  1  0.52587900  0.97120400  0.84621700  1
  C  365  1  0.54775100  0.93856900  0.82691800  1
  C  366  1  0.57396700  0.89416300  0.83433600  1
  C  368  1  0.50909700  0.01609400  0.83959300  1
  C  369  1  0.53720700  0.03410500  0.84219600  1
  C  370  1  0.52245700  0.07739600  0.83372900  1
  C  371  1  0.48069000  0.10290200  0.82261700  1
  C  372  1  0.45291500  0.08483300  0.82018200  1
  C  373  1  0.46680200  0.04141000  0.82844500  1
  C  391  1  0.88261100  0.50225300  0.52721500  1
  C  392  1  0.91476900  0.49276000  0.54616300  1
  C  393  1  0.95949300  0.47525700  0.53938300  1
  C  394  1  0.97206800  0.46641700  0.51303600  1
  C  395  1  0.93975700  0.47682900  0.49368300  1
  C  396  1  0.89525300  0.49501900  0.50103800  1
  C  398  1  0.01706900  0.43825300  0.50647600  1
  C  399  1  0.03505800  0.39215800  0.50907600  1
  C  400  1  0.07845300  0.36352800  0.50062500  1
  C  401  1  0.10407500  0.37967200  0.48951700  1
  C  402  1  0.08603200  0.42549000  0.48708200  1
  C  403  1  0.04251300  0.45511000  0.49533400  1
  C  421  1  0.50296100  0.57752500  0.19349000  1
  C  422  1  0.49318300  0.55516400  0.21246900  1
  C  423  1  0.47562300  0.52796700  0.20572300  1
  C  424  1  0.46704000  0.52391200  0.17938000  1
  C  425  1  0.47779800  0.54545500  0.16000900  1
  C  426  1  0.49600800  0.57177700  0.16732700  1
  C  428  1  0.43888400  0.50705000  0.17288800  1
  C  429  1  0.39277600  0.53524000  0.17552100  1
  C  430  1  0.36417000  0.52039800  0.16718200  1
  C  431  1  0.38035200  0.47848000  0.15613300  1
  C  432  1  0.42618000  0.45063900  0.15364300  1
  C  433  1  0.45577900  0.46460500  0.16179700  1
  C  451  1  0.39834200  0.09200300  0.36106000  1
  C  452  1  0.42080300  0.05971900  0.37992400  1
  C  453  1  0.44796100  0.01501500  0.37301100  1
  C  454  1  0.45185600  0.00255500  0.34662200  1
  C  455  1  0.43017900  0.03502100  0.32737100  1
  C  456  1  0.40395500  0.07950900  0.33484800  1
  C  458  1  0.46868900  0.95760900  0.33989400  1
  C  459  1  0.44057400  0.93960500  0.34241900  1
  C  460  1  0.45532400  0.89630300  0.33375800  1
  C  461  1  0.49707100  0.87079800  0.32250300  1
  C  462  1  0.52487700  0.88883400  0.32017300  1
  C  463  1  0.51099300  0.93226600  0.32863100  1
  C  481  1  0.09255400  0.47359900  0.02766500  1
  C  482  1  0.06007400  0.48354700  0.04651600  1
  C  483  1  0.01545600  0.50094600  0.03959300  1
  C  484  1  0.00329100  0.50916800  0.01320200  1
  C  485  1  0.03596200  0.49820000  0.99395200  1
  C  486  1  0.08033200  0.48021600  0.00144900  1
  C  488  1  0.95841600  0.53717800  0.00646000  1
  C  489  1  0.94038500  0.58332800  0.00894300  1
  C  490  1  0.89717100  0.61176700  0.00028200  1
  C  491  1  0.87177100  0.59537500  0.98908000  1
  C  492  1  0.88984400  0.54950300  0.98677700  1
  C  493  1  0.93318900  0.52006800  0.99524000  1
  C  511  1  0.47387900  0.39660300  0.69467600  1
  C  512  1  0.48360300  0.41944300  0.71347000  1
  C  513  1  0.50110400  0.44653200  0.70647500  1
  C  514  1  0.50972900  0.44993300  0.68007300  1
  C  515  1  0.49911200  0.42783000  0.66087800  1
  C  516  1  0.48092400  0.40166400  0.66844500  1
  C  518  1  0.53781700  0.46670400  0.67328900  1
  C  519  1  0.58393900  0.43865300  0.67583300  1
  C  520  1  0.61247800  0.45329400  0.66712200  1
  C  521  1  0.59621900  0.49488400  0.65581100  1
  C  522  1  0.55037500  0.52261200  0.65344000  1
  C  523  1  0.52084400  0.50882700  0.66194500  1
  N  8  1  0.45703000  0.22473700  0.84297400  1
  N  15  1  0.46089700  0.28693700  0.65663800  1
  N  38  1  0.22577900  0.28138400  0.50965200  1
  N  45  1  0.28835100  0.21454700  0.32310300  1
  N  68  1  0.28205000  0.45483900  0.17638500  1
  N  75  1  0.21574400  0.46093000  0.98977400  1
  N  98  1  0.52082100  0.74890100  0.34214100  1
  N  105  1  0.51506800  0.68816600  0.15543100  1
  N  128  1  0.74978800  0.69356300  0.00888900  1
  N  135  1  0.68946100  0.75908500  0.82238500  1
  N  158  1  0.69466800  0.51817800  0.67547200  1
  N  165  1  0.75990300  0.51484100  0.48889900  1
  N  197  1  0.48343800  0.33345000  0.92344800  1
  N  198  1  0.34554300  0.44250700  0.88303000  1
  N  199  1  0.38120900  0.33611100  0.92145500  1
  N  200  1  0.40363000  0.46238200  0.93233300  1
  N  209  1  0.45068100  0.32074400  0.83444000  1
  N  210  1  0.31293400  0.43370100  0.99197500  1
  N  227  1  0.33403200  0.14684300  0.58977900  1
  N  228  1  0.44362200  0.17482600  0.54908300  1
  N  229  1  0.33720500  0.24618900  0.58777300  1
  N  230  1  0.46283200  0.09722400  0.59836300  1
  N  239  1  0.32162400  0.19172100  0.50082000  1
  N  240  1  0.43437900  0.21671300  0.65822200  1
  N  257  1  0.14793800  0.48144900  0.25696700  1
  N  258  1  0.17599400  0.34377100  0.21596200  1
  N  259  1  0.24740900  0.37892200  0.25443200  1
  N  260  1  0.09847500  0.40228500  0.26567200  1
  N  269  1  0.19251900  0.44898900  0.16775100  1
  N  270  1  0.21811600  0.31138100  0.32496400  1
  N  287  1  0.49320700  0.64103600  0.42212100  1
  N  288  1  0.63151700  0.53166100  0.38170900  1
  N  289  1  0.59544900  0.63843300  0.42042200  1
  N  290  1  0.57287400  0.51227700  0.43079500  1
  N  299  1  0.52684500  0.65327400  0.33333333  1
  N  300  1  0.66315000  0.54129800  0.49072600  1
  N  317  1  0.64149000  0.82893500  0.08918700  1
  N  318  1  0.53255300  0.79970700  0.04863200  1
  N  319  1  0.63909200  0.72917800  0.08700400  1
  N  320  1  0.51270700  0.87775800  0.09807900  1
  N  329  1  0.65413800  0.78318600  0.00016700  1
  N  330  1  0.54196100  0.75831400  0.15758600  1
  N  347  1  0.82960500  0.49201300  0.75539800  1
  N  348  1  0.80118600  0.62966500  0.71488400  1
  N  349  1  0.73007800  0.59444700  0.75339400  1
  N  350  1  0.87894200  0.57141600  0.76420400  1
  N  359  1  0.78416700  0.52447900  0.66650300  1
  N  360  1  0.75945800  0.66230300  0.82403200  1
  N  377  1  0.43960300  0.02257400  0.82557100  1
  N  378  1  0.58001200  0.00833900  0.85257900  1
  N  379  1  0.50770100  0.99192000  0.89164300  1
  N  380  1  0.54556000  0.95116000  0.80076600  1
  N  389  1  0.47122900  0.14240600  0.81475600  1
  N  390  1  0.61189300  0.84312900  0.86770800  1
  N  407  1  0.02369600  0.50111300  0.49244500  1
  N  408  1  0.00917000  0.37522100  0.51942800  1
  N  409  1  0.99213400  0.46443400  0.55849400  1
  N  410  1  0.95274500  0.46613600  0.46754800  1
  N  419  1  0.14363100  0.34954700  0.48161000  1
  N  420  1  0.84381300  0.50825200  0.53433900  1
  N  437  1  0.50179700  0.43733400  0.15886900  1
  N  438  1  0.37580200  0.57821400  0.18580400  1
  N  439  1  0.46451600  0.50646900  0.22487000  1
  N  440  1  0.46737700  0.54283600  0.13388200  1
  N  449  1  0.35024900  0.46897800  0.14833900  1
  N  450  1  0.50889100  0.61037400  0.20067400  1
  N  467  1  0.53819800  0.95109100  0.32582600  1
  N  468  1  0.39774400  0.96540600  0.35288900  1
  N  469  1  0.46957400  0.98225300  0.39203200  1
  N  470  1  0.43256300  0.02219000  0.30119000  1
  N  479  1  0.50647500  0.83133800  0.31439200  1
  N  480  1  0.36552600  0.13074600  0.36833400  1
  N  497  1  0.95204100  0.47399700  0.99249100  1
  N  498  1  0.96606700  0.60050100  0.01938200  1
  N  499  1  0.98248800  0.51227400  0.05861000  1
  N  500  1  0.02343100  0.50822800  0.96775900  1
  N  509  1  0.83235200  0.62532800  0.98102700  1
  N  510  1  0.13124200  0.46777600  0.03487900  1
  N  527  1  0.47481100  0.53595600  0.65911500  1
  N  528  1  0.60098700  0.39599300  0.68639200  1
  N  529  1  0.51212600  0.46855600  0.72542700  1
  N  530  1  0.50960200  0.42977300  0.63468600  1
  N  539  1  0.62625700  0.50422500  0.64770000  1
  N  540  1  0.46782100  0.36395300  0.70196200  1
  O  201  1  0.51908000  0.33353900  0.92196300  1
  O  202  1  0.42926200  0.46408900  0.94859200  1
  O  203  1  0.39988200  0.30123600  0.93432400  1
  O  204  1  0.31698600  0.43275400  0.87654300  1
  O  205  1  0.49178500  0.29476600  0.92747600  1
  O  206  1  0.37402000  0.50088900  0.92718200  1
  O  207  1  0.34528700  0.34136600  0.91315400  1
  O  208  1  0.34074300  0.47431800  0.86961700  1
  O  231  1  0.33397200  0.11117900  0.58826700  1
  O  232  1  0.46423900  0.07004400  0.61456500  1
  O  233  1  0.30222500  0.26261600  0.60067500  1
  O  234  1  0.43406700  0.21305800  0.54266200  1
  O  235  1  0.29539300  0.17730100  0.59394000  1
  O  236  1  0.50144500  0.08808500  0.59319500  1
  O  237  1  0.34272300  0.27669300  0.57953300  1
  O  238  1  0.47538900  0.14766400  0.53555600  1
  O  261  1  0.11225300  0.51714700  0.25561400  1
  O  262  1  0.07137100  0.42808900  0.28202500  1
  O  263  1  0.26383000  0.39753000  0.26729600  1
  O  264  1  0.21421500  0.31508800  0.20935800  1
  O  265  1  0.17837000  0.48968200  0.26103900  1
  O  266  1  0.08928300  0.37282900  0.26051400  1
  O  267  1  0.27791800  0.34290100  0.24603200  1
  O  268  1  0.14881000  0.33915100  0.20252300  1
  O  291  1  0.45757300  0.64095900  0.42047600  1
  O  292  1  0.54707600  0.51073100  0.44698600  1
  O  293  1  0.57666400  0.67339200  0.43338000  1
  O  294  1  0.66020200  0.54130600  0.37538900  1
  O  295  1  0.48482700  0.67973400  0.42632800  1
  O  296  1  0.60250400  0.47371600  0.42559100  1
  O  297  1  0.63143700  0.63313100  0.41218100  1
  O  298  1  0.63641400  0.49979700  0.36815200  1
  O  321  1  0.64131100  0.86470700  0.08774000  1
  O  322  1  0.51104100  0.90511800  0.11437300  1
  O  323  1  0.67403500  0.71303900  0.09985200  1
  O  324  1  0.54237200  0.76136400  0.04211200  1
  O  325  1  0.68020700  0.79866200  0.09322000  1
  O  326  1  0.47419000  0.88659000  0.09294500  1
  O  327  1  0.63387600  0.69845600  0.07866700  1
  O  328  1  0.50068200  0.82664700  0.03521600  1
  O  351  1  0.86529000  0.45632000  0.75384700  1
  O  352  1  0.90618000  0.54567500  0.78039700  1
  O  353  1  0.71372700  0.57583700  0.76622300  1
  O  354  1  0.76290600  0.65829700  0.70849100  1
  O  355  1  0.79920600  0.48377400  0.75954300  1
  O  356  1  0.88798900  0.60095000  0.75911500  1
  O  357  1  0.69951800  0.63044300  0.74517500  1
  O  358  1  0.82824800  0.63432400  0.70136800  1
  O  381  1  0.43076300  0.02078000  0.80226700  1
  O  382  1  0.58272000  0.94173100  0.79215500  1
  O  383  1  0.53425900  0.99323000  0.90736100  1
  O  384  1  0.58530800  0.02577300  0.87243800  1
  O  385  1  0.40423800  0.04401300  0.83787400  1
  O  386  1  0.52982000  0.93319700  0.78674100  1
  O  387  1  0.48053600  0.98566300  0.90397000  1
  O  388  1  0.60916200  0.00222200  0.83638100  1
  O  411  1  0.02216900  0.51147500  0.46913800  1
  O  412  1  0.94354300  0.43822800  0.45891700  1
  O  413  1  0.99333200  0.43668100  0.57418800  1
  O  414  1  0.02636100  0.35269700  0.53929000  1
  O  415  1  0.04498100  0.51519400  0.50474900  1
  O  416  1  0.93491100  0.49966500  0.45350600  1
  O  417  1  0.98556900  0.49803000  0.57083900  1
  O  418  1  0.00324900  0.35201900  0.50321400  1
  O  441  1  0.51233300  0.42816100  0.13555800  1
  O  442  1  0.43964000  0.57985800  0.12521500  1
  O  443  1  0.43664600  0.53327000  0.24055700  1
  O  444  1  0.35310300  0.58387800  0.20569800  1
  O  445  1  0.51574500  0.40214700  0.17121900  1
  O  446  1  0.50106900  0.52686200  0.11984700  1
  O  447  1  0.49795600  0.47952400  0.23721900  1
  O  448  1  0.35275600  0.60710300  0.16956200  1
  O  471  1  0.54705200  0.95283800  0.30252700  1
  O  472  1  0.39546600  0.03155800  0.29254900  1
  O  473  1  0.44286700  0.98107600  0.40768100  1
  O  474  1  0.39238100  0.94800900  0.37265800  1
  O  475  1  0.57355800  0.92967000  0.33803100  1
  O  476  1  0.44843300  0.03999900  0.28722900  1
  O  477  1  0.49660300  0.98864100  0.40444400  1
  O  478  1  0.36863100  0.97151200  0.33669400  1
  O  501  1  0.95403000  0.46307400  0.96920800  1
  O  502  1  0.03278700  0.53591100  0.95906800  1
  O  503  1  0.98107400  0.54038100  0.07424200  1
  O  504  1  0.94846500  0.62350400  0.03914200  1
  O  505  1  0.93049100  0.46023300  0.00473800  1
  O  506  1  0.04149900  0.47434000  0.95384900  1
  O  507  1  0.98879300  0.47899000  0.07104400  1
  O  508  1  0.97233500  0.62331100  0.00316400  1
  O  531  1  0.46423600  0.54442600  0.63580400  1
  O  532  1  0.53740700  0.39254100  0.62613500  1
  O  533  1  0.53998600  0.44217700  0.74114600  1
  O  534  1  0.62369400  0.39098500  0.70616500  1
  O  535  1  0.46083100  0.57151400  0.67125200  1
  O  536  1  0.47595500  0.44532400  0.62070100  1
  O  537  1  0.47864400  0.49577400  0.73777000  1
  O  538  1  0.62404600  0.36661800  0.67025500  1
