# generated using pymatgen
data_HC3N2
_symmetry_space_group_name_H-M   'P 1'
_cell_length_a   9.80413333
_cell_length_b   42.91450000
_cell_length_c   42.91450000
_cell_angle_alpha   90.00000000
_cell_angle_beta   90.00000000
_cell_angle_gamma   90.00000000
_symmetry_Int_Tables_number   1
_chemical_formula_structural   HC3N2
_chemical_formula_sum   'H60 C180 N120'
_cell_volume   18055.82441160
_cell_formula_units_Z   60
loop_
 _symmetry_equiv_pos_site_id
 _symmetry_equiv_pos_as_xyz
  1  'x, y, z'
loop_
 _atom_site_type_symbol
 _atom_site_label
 _atom_site_symmetry_multiplicity
 _atom_site_fract_x
 _atom_site_fract_y
 _atom_site_fract_z
 _atom_site_occupancy
  C  1  1  0.03113700  0.23537300  0.05879700  1
  C  3  1  0.02904300  0.24332600  0.00417800  1
  C  5  1  0.02822400  0.28630900  0.03832300  1
  C  7  1  0.03133000  0.78458800  0.96114900  1
  C  9  1  0.02886700  0.77668600  0.01577400  1
  C  11  1  0.02865900  0.73367100  0.98166900  1
  C  13  1  0.03110800  0.96115600  0.23540100  1
  C  15  1  0.02903500  0.01578000  0.24332600  1
  C  17  1  0.02825100  0.98165700  0.28632800  1
  C  19  1  0.03129000  0.05880600  0.78459500  1
  C  21  1  0.02888600  0.00418500  0.77665200  1
  C  23  1  0.02872000  0.03832400  0.73366100  1
  C  25  1  0.02876100  0.28460600  0.55880000  1
  C  27  1  0.03092300  0.27665300  0.50418200  1
  C  29  1  0.03170900  0.23366900  0.53832400  1
  C  31  1  0.02856700  0.73538800  0.46114500  1
  C  33  1  0.03110600  0.74329000  0.51577000  1
  C  35  1  0.03127400  0.78630600  0.48166500  1
  C  37  1  0.02879200  0.55882300  0.73539700  1
  C  39  1  0.03092800  0.50420000  0.74332200  1
  C  41  1  0.03168600  0.53832200  0.78632400  1
  C  43  1  0.02860800  0.46116600  0.28459400  1
  C  45  1  0.03108200  0.51578600  0.27665000  1
  C  47  1  0.03120900  0.48165100  0.23366000  1
  C  49  1  0.02923000  0.18397300  0.17798900  1
  C  51  1  0.03100500  0.14297700  0.21475100  1
  C  53  1  0.03095900  0.19543400  0.23198300  1
  C  55  1  0.02916500  0.83598300  0.84197700  1
  C  57  1  0.03092700  0.87698800  0.80522200  1
  C  59  1  0.03096300  0.82453500  0.78797900  1
  C  61  1  0.02923000  0.84198800  0.18399000  1
  C  63  1  0.03096300  0.80523600  0.14298400  1
  C  65  1  0.03095400  0.78799000  0.19543600  1
  C  67  1  0.02917600  0.17799200  0.83598300  1
  C  69  1  0.03097200  0.21475900  0.87697700  1
  C  71  1  0.03098500  0.23198600  0.82451900  1
  C  73  1  0.03072900  0.33600300  0.67799300  1
  C  75  1  0.02901600  0.37700300  0.71474900  1
  C  77  1  0.02911400  0.32454800  0.73198800  1
  C  79  1  0.03080200  0.68399000  0.34197500  1
  C  81  1  0.02908600  0.64298600  0.30522100  1
  C  83  1  0.02910400  0.69543900  0.28797700  1
  C  85  1  0.03073400  0.67798800  0.68398600  1
  C  87  1  0.02905300  0.71474200  0.64298100  1
  C  89  1  0.02912500  0.73198800  0.69543200  1
  C  91  1  0.03078500  0.34198200  0.33598400  1
  C  93  1  0.02904700  0.30521600  0.37697800  1
  C  95  1  0.02909000  0.28798700  0.32452000  1
  C  97  1  0.02800300  0.45035400  0.10833700  1
  C  99  1  0.03173300  0.46442600  0.05555000  1
  C  101  1  0.03128500  0.41163300  0.06962500  1
  C  103  1  0.02867800  0.56964000  0.91164600  1
  C  105  1  0.02841700  0.55555800  0.96443700  1
  C  107  1  0.03199200  0.60834700  0.95037100  1
  C  109  1  0.02800300  0.91163200  0.45037500  1
  C  111  1  0.03173900  0.96442000  0.46444200  1
  C  113  1  0.03131600  0.95034100  0.41164900  1
  C  115  1  0.02871000  0.10834800  0.56962800  1
  C  117  1  0.02842700  0.05555300  0.55555400  1
  C  119  1  0.03199900  0.06962800  0.60834000  1
  C  121  1  0.15458500  0.36403300  0.05571400  1
  C  123  1  0.02726500  0.31830000  0.04378800  1
  C  124  1  0.90474200  0.33469600  0.04895500  1
  C  126  1  0.03203900  0.38039100  0.06092300  1
  C  129  1  0.15541100  0.65609100  0.96376500  1
  C  131  1  0.02800600  0.70167700  0.97623000  1
  C  132  1  0.90547100  0.68513200  0.97157200  1
  C  134  1  0.03285100  0.63958600  0.95908200  1
  C  137  1  0.15460600  0.96427300  0.36405700  1
  C  139  1  0.02728600  0.97621300  0.31831900  1
  C  140  1  0.90477800  0.97101000  0.33471200  1
  C  142  1  0.03207000  0.95904200  0.38040800  1
  C  145  1  0.15543100  0.05625200  0.65608800  1
  C  147  1  0.02803600  0.04378600  0.70167200  1
  C  148  1  0.90549600  0.04842800  0.68512800  1
  C  150  1  0.03286600  0.06092300  0.63958100  1
  C  153  1  0.90537000  0.15595800  0.55577500  1
  C  155  1  0.03266700  0.20167900  0.54378800  1
  C  156  1  0.15520700  0.18527200  0.54889900  1
  C  158  1  0.02793100  0.13958900  0.56092500  1
  C  161  1  0.90454800  0.86387400  0.46370100  1
  C  163  1  0.03192300  0.81830200  0.47622600  1
  C  164  1  0.15446800  0.83485800  0.47163600  1
  C  166  1  0.02711800  0.88039300  0.45908500  1
  C  169  1  0.90534900  0.55576600  0.86403900  1
  C  171  1  0.03264600  0.54376700  0.81831600  1
  C  172  1  0.15516700  0.54891300  0.83472000  1
  C  174  1  0.02790400  0.56093600  0.88040400  1
  C  177  1  0.90452800  0.46365900  0.15609800  1
  C  179  1  0.03188700  0.47618900  0.20166900  1
  C  180  1  0.15444300  0.47161700  0.18511200  1
  C  182  1  0.02710600  0.45905700  0.13957700  1
  C  185  1  0.90596700  0.19993900  0.13055100  1
  C  187  1  0.03227500  0.21702100  0.08591200  1
  C  188  1  0.15447800  0.21134800  0.10238500  1
  C  190  1  0.02828200  0.19402700  0.14682200  1
  C  193  1  0.90597500  0.82004500  0.88944100  1
  C  195  1  0.03241200  0.80291300  0.93400400  1
  C  196  1  0.15463600  0.80858200  0.91755000  1
  C  198  1  0.02826400  0.82591700  0.87313900  1
  C  201  1  0.90593000  0.88942500  0.19996500  1
  C  203  1  0.03224300  0.93401600  0.21707100  1
  C  204  1  0.15451300  0.91759000  0.21137000  1
  C  206  1  0.02825800  0.87315300  0.19405400  1
  C  209  1  0.90594600  0.13050900  0.82011500  1
  C  211  1  0.03231000  0.08593400  0.80293900  1
  C  212  1  0.15452400  0.10242500  0.80854100  1
  C  214  1  0.02824000  0.14682400  0.82593300  1
  C  217  1  0.15397300  0.32001500  0.63056100  1
  C  219  1  0.02764900  0.30295600  0.58591400  1
  C  220  1  0.90545100  0.30864900  0.60238200  1
  C  222  1  0.03166800  0.32594600  0.64682600  1
  C  225  1  0.15397200  0.69995200  0.38943300  1
  C  227  1  0.02751700  0.71706300  0.43400000  1
  C  228  1  0.90529800  0.71137100  0.41755400  1
  C  230  1  0.03168700  0.69405700  0.37313700  1
  C  233  1  0.15401800  0.63055900  0.69998500  1
  C  235  1  0.02768600  0.58596100  0.71706600  1
  C  236  1  0.90542000  0.60237900  0.71134000  1
  C  238  1  0.03169300  0.64682400  0.69405000  1
  C  241  1  0.15399800  0.38945800  0.32008800  1
  C  243  1  0.02761900  0.43404000  0.30293500  1
  C  244  1  0.90540600  0.41755400  0.30856000  1
  C  246  1  0.03170400  0.37314900  0.32593200  1
  C  249  1  0.15425800  0.22364100  0.92629600  1
  C  251  1  0.02797900  0.23275300  0.97316100  1
  C  252  1  0.90575200  0.23034100  0.95593600  1
  C  254  1  0.03197900  0.22101800  0.90914800  1
  C  257  1  0.15415100  0.79636300  0.09365000  1
  C  259  1  0.02776900  0.78728900  0.04678000  1
  C  260  1  0.90560300  0.78968200  0.06403000  1
  C  262  1  0.03190800  0.79898900  0.11081000  1
  C  265  1  0.15425900  0.09365400  0.22364300  1
  C  267  1  0.02794500  0.04679800  0.23274800  1
  C  268  1  0.90571600  0.06401600  0.23030600  1
  C  270  1  0.03198900  0.11080400  0.22100600  1
  C  273  1  0.15415600  0.92630700  0.79629100  1
  C  275  1  0.02780500  0.97316600  0.78722100  1
  C  276  1  0.90558400  0.95595200  0.78970300  1
  C  278  1  0.03189100  0.90916200  0.79897000  1
  C  281  1  0.90575200  0.29638500  0.42630600  1
  C  283  1  0.03202500  0.28722700  0.47316400  1
  C  284  1  0.15424400  0.28959000  0.45593000  1
  C  286  1  0.02803300  0.29896000  0.40914900  1
  C  289  1  0.90585900  0.72356700  0.59363900  1
  C  291  1  0.03223000  0.73268700  0.54677600  1
  C  292  1  0.15439700  0.73034100  0.56403600  1
  C  294  1  0.02809800  0.72098700  0.61080500  1
  C  297  1  0.90575100  0.42633400  0.72359200  1
  C  299  1  0.03205600  0.47318100  0.73274300  1
  C  300  1  0.15427900  0.45595600  0.73034800  1
  C  302  1  0.02802400  0.40917400  0.72100100  1
  C  305  1  0.90585300  0.59366000  0.29633600  1
  C  307  1  0.03219600  0.54680600  0.28722000  1
  C  308  1  0.15441100  0.56402900  0.28966000  1
  C  310  1  0.02811800  0.61081200  0.29897100  1
  C  313  1  0.90586000  0.25150700  0.28997700  1
  C  315  1  0.03193800  0.21764300  0.25620500  1
  C  316  1  0.15417600  0.22995300  0.26849000  1
  C  318  1  0.02809400  0.26376400  0.30231500  1
  C  321  1  0.90589500  0.76845400  0.72998700  1
  C  323  1  0.03195400  0.80233300  0.76375100  1
  C  324  1  0.15419300  0.79002900  0.75146200  1
  C  326  1  0.02813200  0.75621800  0.71762900  1
  C  329  1  0.90586800  0.72998400  0.25150000  1
  C  331  1  0.03193800  0.76375800  0.21763300  1
  C  332  1  0.15417300  0.75148100  0.22995200  1
  C  334  1  0.02809800  0.71763900  0.26374800  1
  C  337  1  0.90588900  0.28997700  0.76844400  1
  C  339  1  0.03196900  0.25620700  0.80231000  1
  C  340  1  0.15420200  0.26851300  0.79002200  1
  C  342  1  0.02811800  0.30234300  0.75621300  1
  C  345  1  0.90495100  0.52059300  0.99936900  1
  C  347  1  0.03251500  0.48729000  0.03268600  1
  C  348  1  0.15521300  0.49936800  0.02059700  1
  C  350  1  0.02764900  0.53269000  0.98729800  1
  C  353  1  0.90495600  0.02060700  0.52060500  1
  C  355  1  0.03252000  0.98728700  0.48730400  1
  C  356  1  0.15521800  0.99938700  0.49937000  1
  C  358  1  0.02765500  0.03268900  0.53269000  1
  H  127  1  0.24758100  0.37445200  0.05838100  1
  H  128  1  0.81182800  0.32405800  0.04714200  1
  H  135  1  0.24841300  0.64577700  0.96072700  1
  H  136  1  0.81247100  0.69566300  0.97374800  1
  H  143  1  0.24760700  0.96161200  0.37447700  1
  H  144  1  0.81186800  0.97280900  0.32407500  1
  H  151  1  0.24843400  0.05929300  0.64577300  1
  H  152  1  0.81250000  0.04624100  0.69565800  1
  H  159  1  0.81237800  0.14554700  0.55848500  1
  H  160  1  0.24812200  0.19590100  0.54704400  1
  H  167  1  0.81155200  0.87417800  0.46061600  1
  H  168  1  0.24746600  0.82433700  0.47385900  1
  H  175  1  0.81235300  0.55846600  0.87445300  1
  H  176  1  0.24808600  0.54707200  0.82408800  1
  H  183  1  0.81153700  0.46056900  0.14579400  1
  H  184  1  0.24743900  0.47385200  0.19563200  1
  H  191  1  0.81299000  0.19673800  0.14081800  1
  H  192  1  0.24729500  0.21686400  0.09305900  1
  H  199  1  0.81298000  0.82328100  0.87919300  1
  H  200  1  0.24745300  0.80305500  0.92686700  1
  H  207  1  0.81296400  0.87915800  0.19675100  1
  H  208  1  0.24731700  0.92692500  0.21688100  1
  H  215  1  0.81295100  0.14074800  0.82338200  1
  H  216  1  0.24732600  0.09312500  0.80297100  1
  H  223  1  0.24695500  0.32320100  0.64083000  1
  H  224  1  0.81262400  0.30314900  0.59305100  1
  H  231  1  0.24696900  0.69673200  0.37918200  1
  H  232  1  0.81246900  0.71688400  0.42687500  1
  H  239  1  0.24698500  0.64083300  0.69678800  1
  H  240  1  0.81260700  0.59304000  0.71683500  1
  H  247  1  0.24699300  0.37921500  0.32334100  1
  H  248  1  0.81259300  0.42686100  0.30300700  1
  H  255  1  0.24726100  0.22159400  0.91574900  1
  H  256  1  0.81286300  0.23359000  0.96623100  1
  H  263  1  0.24717800  0.79839500  0.10418700  1
  H  264  1  0.81269400  0.78643100  0.05374400  1
  H  271  1  0.24726600  0.10419900  0.22160700  1
  H  272  1  0.81282300  0.05371800  0.23354600  1
  H  279  1  0.24716800  0.91575800  0.79829900  1
  H  280  1  0.81267900  0.96625200  0.78649200  1
  H  287  1  0.81275500  0.29846800  0.41576600  1
  H  288  1  0.24712200  0.28630400  0.46622000  1
  H  295  1  0.81283200  0.72150200  0.60416900  1
  H  296  1  0.24729200  0.73362600  0.55375500  1
  H  303  1  0.81274600  0.41579400  0.72152300  1
  H  304  1  0.24716300  0.46624800  0.73362200  1
  H  311  1  0.81284300  0.60420200  0.29837500  1
  H  312  1  0.24731100  0.55373400  0.28641800  1
  H  319  1  0.81286900  0.25937400  0.29729600  1
  H  320  1  0.24716800  0.22263900  0.26061800  1
  H  327  1  0.81290800  0.76057800  0.72267900  1
  H  328  1  0.24718400  0.79734800  0.75933100  1
  H  335  1  0.81287700  0.72267000  0.25936900  1
  H  336  1  0.24716400  0.75935700  0.22264300  1
  H  343  1  0.81289800  0.29728400  0.76056600  1
  H  344  1  0.24719800  0.26065300  0.79734400  1
  H  351  1  0.81197100  0.52820900  0.99175800  1
  H  352  1  0.24818800  0.49176200  0.02821500  1
  H  359  1  0.81198100  0.02821300  0.52822500  1
  H  360  1  0.24819800  0.99177500  0.49175700  1
  N  2  1  0.03065200  0.22367100  0.02921800  1
  N  4  1  0.02791400  0.27461100  0.00900200  1
  N  6  1  0.02979100  0.26667000  0.06297300  1
  N  8  1  0.03052500  0.79631900  0.99071700  1
  N  10  1  0.02797600  0.74539600  0.01097900  1
  N  12  1  0.03032200  0.75328900  0.95700300  1
  N  14  1  0.03062700  0.99072800  0.22368300  1
  N  16  1  0.02793400  0.01097200  0.27461400  1
  N  18  1  0.02979100  0.95699900  0.26670000  1
  N  20  1  0.03047900  0.02923000  0.79630500  1
  N  22  1  0.02804300  0.00900400  0.74536600  1
  N  24  1  0.03032700  0.06297600  0.75329800  1
  N  26  1  0.02927800  0.29630800  0.52922000  1
  N  28  1  0.03206500  0.24536900  0.50900500  1
  N  30  1  0.03010600  0.25330800  0.56297500  1
  N  32  1  0.02940700  0.72365800  0.49071300  1
  N  34  1  0.03200600  0.77458000  0.51097700  1
  N  36  1  0.02957700  0.76669000  0.45700000  1
  N  38  1  0.02930800  0.52925000  0.72367900  1
  N  40  1  0.03204400  0.50900800  0.77460800  1
  N  42  1  0.03010700  0.56298000  0.76669700  1
  N  44  1  0.02945500  0.49074300  0.29630100  1
  N  46  1  0.03193800  0.51096700  0.24536500  1
  N  48  1  0.02956600  0.45699700  0.25329400  1
  N  50  1  0.02988300  0.15304600  0.18472700  1
  N  52  1  0.03152400  0.16431900  0.23825300  1
  N  54  1  0.02989300  0.20497800  0.20174100  1
  N  56  1  0.02978800  0.86691200  0.83524500  1
  N  58  1  0.03149900  0.85565000  0.78171500  1
  N  60  1  0.02988300  0.81498400  0.81822000  1
  N  62  1  0.02985500  0.83525900  0.15306100  1
  N  64  1  0.03148900  0.78172900  0.16432000  1
  N  66  1  0.02989900  0.81823000  0.20498900  1
  N  68  1  0.02981500  0.18473400  0.86691000  1
  N  70  1  0.03153500  0.23826000  0.85563200  1
  N  72  1  0.02989300  0.20174300  0.81497700  1
  N  74  1  0.03007500  0.36693000  0.68472700  1
  N  76  1  0.02856100  0.35566300  0.73825400  1
  N  78  1  0.03011300  0.31499900  0.70174700  1
  N  80  1  0.03017300  0.65306200  0.33524300  1
  N  82  1  0.02857300  0.66432100  0.28171400  1
  N  84  1  0.03012700  0.70498800  0.31821700  1
  N  86  1  0.03009700  0.68472000  0.65305700  1
  N  88  1  0.02858800  0.73825000  0.66431600  1
  N  90  1  0.03011800  0.70174700  0.70498600  1
  N  92  1  0.03013900  0.33524100  0.36691100  1
  N  94  1  0.02854600  0.28171600  0.35563500  1
  N  96  1  0.03011700  0.31823100  0.31497800  1
  N  98  1  0.02947500  0.47267700  0.08601600  1
  N  100  1  0.03257600  0.43395600  0.04730200  1
  N  102  1  0.02899600  0.41979500  0.10017800  1
  N  104  1  0.02750600  0.54731400  0.93396700  1
  N  106  1  0.03063600  0.58602400  0.97269300  1
  N  108  1  0.03091400  0.60019400  0.91981100  1
  N  110  1  0.02947100  0.93395500  0.47269800  1
  N  112  1  0.03260100  0.97266500  0.43397200  1
  N  114  1  0.02901600  0.91978700  0.41981400  1
  N  116  1  0.02752900  0.08602300  0.54730500  1
  N  118  1  0.03063700  0.04730200  0.58602100  1
  N  120  1  0.03093400  0.10018600  0.60018200  1
  N  122  1  0.14761400  0.33349100  0.04772400  1
  N  125  1  0.91168300  0.36513100  0.05734400  1
  N  130  1  0.14835400  0.68662400  0.97178600  1
  N  133  1  0.91245800  0.65470400  0.96316400  1
  N  138  1  0.14762300  0.97227300  0.33351700  1
  N  141  1  0.91171800  0.96261000  0.36514500  1
  N  146  1  0.14839200  0.04823100  0.68662100  1
  N  149  1  0.91247300  0.05683100  0.65469700  1
  N  154  1  0.91232500  0.18650000  0.54778200  1
  N  157  1  0.14828200  0.15483700  0.55729000  1
  N  162  1  0.91158600  0.83334100  0.47172200  1
  N  165  1  0.14750600  0.86528800  0.46323100  1
  N  170  1  0.91231600  0.54776100  0.83350200  1
  N  173  1  0.14825100  0.55731500  0.86515100  1
  N  178  1  0.91155100  0.47168000  0.18663200  1
  N  181  1  0.14748800  0.46321400  0.15468100  1
  N  186  1  0.91285500  0.21188200  0.10124100  1
  N  189  1  0.14789400  0.20028000  0.13204500  1
  N  194  1  0.91286700  0.80809300  0.91875000  1
  N  197  1  0.14793900  0.81965300  0.88789100  1
  N  202  1  0.91274900  0.91873200  0.21191900  1
  N  205  1  0.14789500  0.88793100  0.20029600  1
  N  210  1  0.91282600  0.10120000  0.80816500  1
  N  213  1  0.14787800  0.13208500  0.81960900  1
  N  218  1  0.14707300  0.30807500  0.60124900  1
  N  221  1  0.91204500  0.31971500  0.63204300  1
  N  226  1  0.14706300  0.71190400  0.41874200  1
  N  229  1  0.91200500  0.70030000  0.38789500  1
  N  234  1  0.14718500  0.60125200  0.71193700  1
  N  237  1  0.91205000  0.63203800  0.70026700  1
  N  242  1  0.14710300  0.41876800  0.30814100  1
  N  245  1  0.91206100  0.38789500  0.31962900  1
  N  250  1  0.14758800  0.22989600  0.95733600  1
  N  253  1  0.91233500  0.22450200  0.92481400  1
  N  258  1  0.14739400  0.79012000  0.06260700  1
  N  261  1  0.91223900  0.79551000  0.09515400  1
  N  266  1  0.14757700  0.06261200  0.22990100  1
  N  269  1  0.91232600  0.09513900  0.22446900  1
  N  274  1  0.14744900  0.95734800  0.79003400  1
  N  277  1  0.91221800  0.92483000  0.79554300  1
  N  282  1  0.91241800  0.29013000  0.45734700  1
  N  285  1  0.14767000  0.29542900  0.42480800  1
  N  290  1  0.91260600  0.72981200  0.56259600  1
  N  293  1  0.14776100  0.72451300  0.59515800  1
  N  298  1  0.91242300  0.45737500  0.72985100  1
  N  301  1  0.14767500  0.42483300  0.72451100  1
  N  306  1  0.91255100  0.56261900  0.29007500  1
  N  309  1  0.14778200  0.59515100  0.29549900  1
  N  314  1  0.91243200  0.22920100  0.26746400  1
  N  317  1  0.14760300  0.25248100  0.29078100  1
  N  322  1  0.91245300  0.79075900  0.75250300  1
  N  325  1  0.14763300  0.76750500  0.72916600  1
  N  330  1  0.91243800  0.75250100  0.22919700  1
  N  333  1  0.14760300  0.72918300  0.25247400  1
  N  338  1  0.91245900  0.26745500  0.79074200  1
  N  341  1  0.14762800  0.29081600  0.76750300  1
  N  346  1  0.91194300  0.49830000  0.02168000  1
  N  349  1  0.14822000  0.52168600  0.99830900  1
  N  354  1  0.91195300  0.99828800  0.49831700  1
  N  357  1  0.14822600  0.02168300  0.52168200  1
