# generated using pymatgen
data_CoH8C14O5
_symmetry_space_group_name_H-M   'P 1'
_cell_length_a   13.86968000
_cell_length_b   20.61590000
_cell_length_c   25.27396000
_cell_angle_alpha   87.38128000
_cell_angle_beta   74.25420000
_cell_angle_gamma   80.64491000
_symmetry_Int_Tables_number   1
_chemical_formula_structural   CoH8C14O5
_chemical_formula_sum   'Co12 H96 C168 O60'
_cell_volume   6863.03203754
_cell_formula_units_Z   12
loop_
 _symmetry_equiv_pos_site_id
 _symmetry_equiv_pos_as_xyz
  1  'x, y, z'
loop_
 _atom_site_type_symbol
 _atom_site_label
 _atom_site_symmetry_multiplicity
 _atom_site_fract_x
 _atom_site_fract_y
 _atom_site_fract_z
 _atom_site_occupancy
  Co  Co1  1  0.84087000  0.62101000  0.62338000  1.0
  Co  Co2  1  0.19190000  0.68603000  0.21908000  1.0
  Co  Co3  1  0.53514000  0.87843000  0.62354000  1.0
  Co  Co4  1  0.58575000  0.81385000  0.22177000  1.0
  Co  Co5  1  0.15873000  0.37859000  0.37674000  1.0
  Co  Co6  1  0.80726000  0.31392000  0.78091000  1.0
  Co  Co7  1  0.46437000  0.12026000  0.37691000  1.0
  Co  Co8  1  0.41455000  0.18437000  0.77986000  1.0
  Co  Co9  1  0.40386000  0.74982000  0.19037000  1.0
  Co  Co10  1  0.68353000  0.74991000  0.63362000  1.0
  Co  Co11  1  0.59422000  0.24877000  0.81052000  1.0
  Co  Co12  1  0.31658000  0.24977000  0.36653000  1.0
  H  H1  1  0.43919000  0.69468000  0.31190000  1.0
  H  H2  1  0.55059000  0.67786000  0.53243000  1.0
  H  H3  1  0.45880000  0.62969000  0.47487000  1.0
  H  H4  1  0.54810000  0.64047000  0.37045000  1.0
  H  H5  1  0.49159000  0.68726000  0.78103000  1.0
  H  H6  1  0.27915000  0.52865000  0.33500000  1.0
  H  H7  1  0.80082000  0.52054000  0.48522000  1.0
  H  H8  1  0.38694000  0.47508000  0.39441000  1.0
  H  H9  1  0.88784000  0.97656000  0.27867000  1.0
  H  H10  1  0.26220000  0.93353000  0.20093000  1.0
  H  H11  1  0.13583000  0.16364000  0.36819000  1.0
  H  H12  1  0.54712000  0.61706000  0.93864000  1.0
  H  H13  1  0.17289000  0.04848000  0.22183000  1.0
  H  H14  1  0.29720000  0.50919000  0.99245000  1.0
  H  H15  1  0.70455000  0.50737000  0.75577000  1.0
  H  H16  1  0.39881000  0.64480000  0.87232000  1.0
  H  H17  1  0.08021000  0.06872000  0.33273000  1.0
  H  H18  1  0.49601000  0.67351000  0.03020000  1.0
  H  H19  1  0.24436000  0.56767000  0.08341000  1.0
  H  H20  1  0.61129000  0.46498000  0.84624000  1.0
  H  H21  1  0.99053000  0.29656000  0.26684000  1.0
  H  H22  1  0.71144000  0.47400000  0.42477000  1.0
  H  H23  1  0.97876000  0.86070000  0.25770000  1.0
  H  H24  1  0.94010000  0.20010000  0.22838000  1.0
  H  H25  1  0.24411000  0.80661000  0.31344000  1.0
  H  H26  1  0.91820000  0.82291000  0.53228000  1.0
  H  H27  1  0.06550000  0.87242000  0.47498000  1.0
  H  H28  1  0.07748000  0.86184000  0.37078000  1.0
  H  H29  1  0.72629000  0.81104000  0.78054000  1.0
  H  H30  1  0.38346000  0.97138000  0.33689000  1.0
  H  H31  1  0.71192000  0.97943000  0.48596000  1.0
  H  H32  1  0.21699000  0.02603000  0.39516000  1.0
  H  H33  1  0.83369000  0.52314000  0.27924000  1.0
  H  H34  1  0.53655000  0.56587000  0.20114000  1.0
  H  H35  1  0.49424000  0.33680000  0.36912000  1.0
  H  H36  1  0.51566000  0.88117000  0.93914000  1.0
  H  H37  1  0.60521000  0.45104000  0.22216000  1.0
  H  H38  1  0.71140000  0.98903000  0.99375000  1.0
  H  H39  1  0.53968000  0.99217000  0.75658000  1.0
  H  H40  1  0.73048000  0.85189000  0.87194000  1.0
  H  H41  1  0.58636000  0.43120000  0.33387000  1.0
  H  H42  1  0.47255000  0.82630000  0.03144000  1.0
  H  H43  1  0.67036000  0.93212000  0.08547000  1.0
  H  H44  1  0.54497000  0.03297000  0.84729000  1.0
  H  H45  1  0.73838000  0.20328000  0.26808000  1.0
  H  H46  1  0.85973000  0.02736000  0.42560000  1.0
  H  H47  1  0.76340000  0.63893000  0.25793000  1.0
  H  H48  1  0.82844000  0.29903000  0.22979000  1.0
  H  H49  1  0.55877000  0.30653000  0.68824000  1.0
  H  H50  1  0.45101000  0.32298000  0.46773000  1.0
  H  H51  1  0.54196000  0.37205000  0.52515000  1.0
  H  H52  1  0.45092000  0.36093000  0.62942000  1.0
  H  H53  1  0.50592000  0.31173000  0.21952000  1.0
  H  H54  1  0.71976000  0.47205000  0.66561000  1.0
  H  H55  1  0.19957000  0.47951000  0.51399000  1.0
  H  H56  1  0.61370000  0.52562000  0.60548000  1.0
  H  H57  1  0.11303000  0.02389000  0.72090000  1.0
  H  H58  1  0.73881000  0.06617000  0.79939000  1.0
  H  H59  1  0.86358000  0.83641000  0.63193000  1.0
  H  H60  1  0.45267000  0.38161000  0.06156000  1.0
  H  H61  1  0.82822000  0.95143000  0.77790000  1.0
  H  H62  1  0.70272000  0.48956000  0.00771000  1.0
  H  H63  1  0.29487000  0.49230000  0.24407000  1.0
  H  H64  1  0.60005000  0.35347000  0.12826000  1.0
  H  H65  1  0.92009000  0.93128000  0.66685000  1.0
  H  H66  1  0.50317000  0.32580000  0.96975000  1.0
  H  H67  1  0.75460000  0.43170000  0.91652000  1.0
  H  H68  1  0.38933000  0.53417000  0.15352000  1.0
  H  H69  1  0.00920000  0.70365000  0.73320000  1.0
  H  H70  1  0.28777000  0.52706000  0.57436000  1.0
  H  H71  1  0.02166000  0.13957000  0.74242000  1.0
  H  H72  1  0.06046000  0.80000000  0.77111000  1.0
  H  H73  1  0.75399000  0.19361000  0.68739000  1.0
  H  H74  1  0.08426000  0.17754000  0.46756000  1.0
  H  H75  1  0.93541000  0.12939000  0.52497000  1.0
  H  H76  1  0.92098000  0.13952000  0.62929000  1.0
  H  H77  1  0.27174000  0.18759000  0.21866000  1.0
  H  H78  1  0.61750000  0.02712000  0.66466000  1.0
  H  H79  1  0.28756000  0.02009000  0.51506000  1.0
  H  H80  1  0.78437000  0.97381000  0.60553000  1.0
  H  H81  1  0.16731000  0.47457000  0.71972000  1.0
  H  H82  1  0.46358000  0.43239000  0.79826000  1.0
  H  H83  1  0.50419000  0.66346000  0.63133000  1.0
  H  H84  1  0.48375000  0.11544000  0.06229000  1.0
  H  H85  1  0.39565000  0.54704000  0.77672000  1.0
  H  H86  1  0.28718000  0.00877000  0.00728000  1.0
  H  H87  1  0.45934000  0.00791000  0.24490000  1.0
  H  H88  1  0.26897000  0.14472000  0.12758000  1.0
  H  H89  1  0.41333000  0.56819000  0.66553000  1.0
  H  H90  1  0.52633000  0.17132000  0.97045000  1.0
  H  H91  1  0.32745000  0.06674000  0.91609000  1.0
  H  H92  1  0.45588000  0.96517000  0.15448000  1.0
  H  H93  1  0.25774000  0.79500000  0.73282000  1.0
  H  H94  1  0.13802000  0.97349000  0.57552000  1.0
  H  H95  1  0.23719000  0.35890000  0.74138000  1.0
  H  H96  1  0.16917000  0.69824000  0.77026000  1.0
  C  C1  1  0.35272000  0.61520000  0.31967000  1.0
  C  C2  1  0.12584000  0.89041000  0.22759000  1.0
  C  C3  1  0.36671000  0.62448000  0.06206000  1.0
  C  C4  1  0.68150000  0.60227000  0.51208000  1.0
  C  C5  1  0.66215000  0.62690000  0.71020000  1.0
  C  C6  1  0.42809000  0.64675000  0.33025000  1.0
  C  C7  1  0.60387000  0.60021000  0.76274000  1.0
  C  C8  1  0.47275000  0.55478000  0.38563000  1.0
  C  C9  1  0.58527000  0.63332000  0.50871000  1.0
  C  C10  1  0.53435000  0.60693000  0.47647000  1.0
  C  C11  1  0.42343000  0.56083000  0.96072000  1.0
  C  C12  1  0.48845000  0.61680000  0.36311000  1.0
  C  C13  1  0.51738000  0.63889000  0.79577000  1.0
  C  C14  1  0.33733000  0.55323000  0.34310000  1.0
  C  C15  1  0.50067000  0.55268000  0.86389000  1.0
  C  C16  1  0.33639000  0.65883000  0.11577000  1.0
  C  C17  1  0.73041000  0.62870000  0.55017000  1.0
  C  C18  1  0.06601000  0.23549000  0.31969000  1.0
  C  C19  1  0.72677000  0.54447000  0.48201000  1.0
  C  C20  1  0.39737000  0.52295000  0.37590000  1.0
  C  C21  1  0.96958000  0.96599000  0.26168000  1.0
  C  C22  1  0.58138000  0.54981000  0.44621000  1.0
  C  C23  1  0.18043000  0.94337000  0.21797000  1.0
  C  C24  1  0.09249000  0.17120000  0.33786000  1.0
  C  C25  1  0.48101000  0.60666000  0.97044000  1.0
  C  C26  1  0.13083000  0.00737000  0.22969000  1.0
  C  C27  1  0.00734000  0.13004000  0.27856000  1.0
  C  C28  1  0.33909000  0.54565000  0.00133000  1.0
  C  C29  1  0.63720000  0.53723000  0.78094000  1.0
  C  C30  1  0.46572000  0.61542000  0.84634000  1.0
  C  C31  1  0.06256000  0.11832000  0.31787000  1.0
  C  C32  1  0.02537000  0.01804000  0.25109000  1.0
  C  C33  1  0.45250000  0.63800000  0.02126000  1.0
  C  C34  1  0.31058000  0.57790000  0.05160000  1.0
  C  C35  1  0.58572000  0.51325000  0.83134000  1.0
  C  C36  1  0.01025000  0.24649000  0.28040000  1.0
  C  C37  1  0.67739000  0.51838000  0.44873000  1.0
  C  C38  1  0.02022000  0.90211000  0.24983000  1.0
  C  C39  1  0.98204000  0.19364000  0.25933000  1.0
  C  C40  1  0.18148000  0.82277000  0.21511000  1.0
  C  C41  1  0.29254000  0.64598000  0.28307000  1.0
  C  C42  1  0.09554000  0.29062000  0.34256000  1.0
  C  C43  1  0.32433000  0.88536000  0.32124000  1.0
  C  C44  1  0.64616000  0.60921000  0.22798000  1.0
  C  C45  1  0.57002000  0.87515000  0.06358000  1.0
  C  C46  1  0.80601000  0.89793000  0.51255000  1.0
  C  C47  1  0.62610000  0.87289000  0.71032000  1.0
  C  C48  1  0.23769000  0.85459000  0.33145000  1.0
  C  C49  1  0.63239000  0.89863000  0.76309000  1.0
  C  C50  1  0.13840000  0.94723000  0.38603000  1.0
  C  C51  1  0.90609000  0.86773000  0.50894000  1.0
  C  C52  1  0.98818000  0.89495000  0.47677000  1.0
  C  C53  1  0.61747000  0.93715000  0.96148000  1.0
  C  C54  1  0.14469000  0.88520000  0.36366000  1.0
  C  C55  1  0.68630000  0.85924000  0.79576000  1.0
  C  C56  1  0.31679000  0.94733000  0.34452000  1.0
  C  C57  1  0.63718000  0.94457000  0.86431000  1.0
  C  C58  1  0.54587000  0.84096000  0.11737000  1.0
  C  C59  1  0.72065000  0.86958000  0.55028000  1.0
  C  C60  1  0.61121000  0.26455000  0.32088000  1.0
  C  C61  1  0.78939000  0.95599000  0.48277000  1.0
  C  C62  1  0.22414000  0.97830000  0.37669000  1.0
  C  C63  1  0.76878000  0.53352000  0.26219000  1.0
  C  C64  1  0.97007000  0.95215000  0.44659000  1.0
  C  C65  1  0.60133000  0.55617000  0.21829000  1.0
  C  C66  1  0.56771000  0.32898000  0.33890000  1.0
  C  C67  1  0.54939000  0.89185000  0.97123000  1.0
  C  C68  1  0.63937000  0.49217000  0.23009000  1.0
  C  C69  1  0.71274000  0.36964000  0.27976000  1.0
  C  C70  1  0.66017000  0.95289000  0.00255000  1.0
  C  C71  1  0.58186000  0.96160000  0.78157000  1.0
  C  C72  1  0.68881000  0.88186000  0.84641000  1.0
  C  C73  1  0.61849000  0.38161000  0.31901000  1.0
  C  C74  1  0.72349000  0.48143000  0.25165000  1.0
  C  C75  1  0.52567000  0.86136000  0.02243000  1.0
  C  C76  1  0.63692000  0.92147000  0.05324000  1.0
  C  C77  1  0.58431000  0.98468000  0.83206000  1.0
  C  C78  1  0.70588000  0.25334000  0.28168000  1.0
  C  C79  1  0.87105000  0.98291000  0.44948000  1.0
  C  C80  1  0.72982000  0.59743000  0.25019000  1.0
  C  C81  1  0.75594000  0.30588000  0.26072000  1.0
  C  C82  1  0.60208000  0.67699000  0.21606000  1.0
  C  C83  1  0.42112000  0.85403000  0.28519000  1.0
  C  C84  1  0.55907000  0.20936000  0.34406000  1.0
  C  C85  1  0.64521000  0.38596000  0.68116000  1.0
  C  C86  1  0.87478000  0.10961000  0.77249000  1.0
  C  C87  1  0.63229000  0.37492000  0.93797000  1.0
  C  C88  1  0.31981000  0.39801000  0.48748000  1.0
  C  C89  1  0.33532000  0.37301000  0.28981000  1.0
  C  C90  1  0.57013000  0.35453000  0.67009000  1.0
  C  C91  1  0.39437000  0.39909000  0.23727000  1.0
  C  C92  1  0.52636000  0.44670000  0.61449000  1.0
  C  C93  1  0.41613000  0.36766000  0.49117000  1.0
  C  C94  1  0.46647000  0.39467000  0.52337000  1.0
  C  C95  1  0.57616000  0.43815000  0.03944000  1.0
  C  C96  1  0.51029000  0.38467000  0.63698000  1.0
  C  C97  1  0.48079000  0.36011000  0.20450000  1.0
  C  C98  1  0.66133000  0.44773000  0.65751000  1.0
  C  C99  1  0.49901000  0.44619000  0.13622000  1.0
  C  C100  1  0.66257000  0.34069000  0.88423000  1.0
  C  C101  1  0.27165000  0.36988000  0.44977000  1.0
  C  C102  1  0.93348000  0.76449000  0.68026000  1.0
  C  C103  1  0.27379000  0.45595000  0.51726000  1.0
  C  C104  1  0.60211000  0.47807000  0.62432000  1.0
  C  C105  1  0.03128000  0.03418000  0.73811000  1.0
  C  C106  1  0.41873000  0.45183000  0.55346000  1.0
  C  C107  1  0.82051000  0.05650000  0.78210000  1.0
  C  C108  1  0.90736000  0.82884000  0.66206000  1.0
  C  C109  1  0.51853000  0.39232000  0.02972000  1.0
  C  C110  1  0.87025000  0.99257000  0.77019000  1.0
  C  C111  1  0.99337000  0.87005000  0.72103000  1.0
  C  C112  1  0.66046000  0.45336000  0.99881000  1.0
  C  C113  1  0.36199000  0.46219000  0.21898000  1.0
  C  C114  1  0.53323000  0.38330000  0.15394000  1.0
  C  C115  1  0.93798000  0.88172000  0.68177000  1.0
  C  C116  1  0.97571000  0.98198000  0.74877000  1.0
  C  C117  1  0.54672000  0.36122000  0.97880000  1.0
  C  C118  1  0.68858000  0.42138000  0.94843000  1.0
  C  C119  1  0.41412000  0.48586000  0.16862000  1.0
  C  C120  1  0.98966000  0.75360000  0.71939000  1.0
  C  C121  1  0.32260000  0.48266000  0.55056000  1.0
  C  C122  1  0.98041000  0.09804000  0.75014000  1.0
  C  C123  1  0.01851000  0.80640000  0.74017000  1.0
  C  C124  1  0.81855000  0.17719000  0.78484000  1.0
  C  C125  1  0.70491000  0.35526000  0.71806000  1.0
  C  C126  1  0.90428000  0.70908000  0.65735000  1.0
  C  C127  1  0.67543000  0.11389000  0.67987000  1.0
  C  C128  1  0.35386000  0.38889000  0.77178000  1.0
  C  C129  1  0.42880000  0.12297000  0.93795000  1.0
  C  C130  1  0.19482000  0.10186000  0.48803000  1.0
  C  C131  1  0.37171000  0.12705000  0.28985000  1.0
  C  C132  1  0.76116000  0.14561000  0.66925000  1.0
  C  C133  1  0.36565000  0.10050000  0.23732000  1.0
  C  C134  1  0.86106000  0.05369000  0.61418000  1.0
  C  C135  1  0.09530000  0.13287000  0.49127000  1.0
  C  C136  1  0.01241000  0.10645000  0.52347000  1.0
  C  C137  1  0.38187000  0.05988000  0.03968000  1.0
  C  C138  1  0.85416000  0.11576000  0.63655000  1.0
  C  C139  1  0.31193000  0.13915000  0.20415000  1.0
  C  C140  1  0.68356000  0.05183000  0.65662000  1.0
  C  C141  1  0.36237000  0.05266000  0.13656000  1.0
  C  C142  1  0.45342000  0.15724000  0.88415000  1.0
  C  C143  1  0.28130000  0.12853000  0.45003000  1.0
  C  C144  1  0.38602000  0.73474000  0.67999000  1.0
  C  C145  1  0.21036000  0.04397000  0.51814000  1.0
  C  C146  1  0.77620000  0.02171000  0.62393000  1.0
  C  C147  1  0.23203000  0.46421000  0.73689000  1.0
  C  C148  1  0.02955000  0.04923000  0.55379000  1.0
  C  C149  1  0.39875000  0.44207000  0.78113000  1.0
  C  C150  1  0.43061000  0.67064000  0.66145000  1.0
  C  C151  1  0.44984000  0.10522000  0.03013000  1.0
  C  C152  1  0.36105000  0.50604000  0.76894000  1.0
  C  C153  1  0.28623000  0.62868000  0.71977000  1.0
  C  C154  1  0.33851000  0.04486000  0.99868000  1.0
  C  C155  1  0.41700000  0.03752000  0.21948000  1.0
  C  C156  1  0.31020000  0.11549000  0.15371000  1.0
  C  C157  1  0.38069000  0.61756000  0.68073000  1.0
  C  C158  1  0.27706000  0.51651000  0.74723000  1.0
  C  C159  1  0.47330000  0.13623000  0.97918000  1.0
  C  C160  1  0.36149000  0.07686000  0.94820000  1.0
  C  C161  1  0.41546000  0.01342000  0.16919000  1.0
  C  C162  1  0.29107000  0.74512000  0.71897000  1.0
  C  C163  1  0.12800000  0.01786000  0.55138000  1.0
  C  C164  1  0.27068000  0.40040000  0.74919000  1.0
  C  C165  1  0.24183000  0.69203000  0.73942000  1.0
  C  C166  1  0.39750000  0.32142000  0.78467000  1.0
  C  C167  1  0.57892000  0.14450000  0.71632000  1.0
  C  C168  1  0.43807000  0.79027000  0.65761000  1.0
  O  O1  1  0.31413000  0.69775000  0.25464000  1.0
  O  O2  1  0.63291000  0.68514000  0.69619000  1.0
  O  O3  1  0.21450000  0.62259000  0.27794000  1.0
  O  O4  1  0.68743000  0.68232000  0.57458000  1.0
  O  O5  1  0.39474000  0.69388000  0.12679000  1.0
  O  O6  1  0.12773000  0.77524000  0.22751000  1.0
  O  O7  1  0.53362000  0.51883000  0.41533000  1.0
  O  O8  1  0.24866000  0.64955000  0.14823000  1.0
  O  O9  1  0.74124000  0.58801000  0.68264000  1.0
  O  O10  1  0.81206000  0.59367000  0.55817000  1.0
  O  O11  1  0.44832000  0.52558000  0.91233000  1.0
  O  O12  1  0.96948000  0.08096000  0.25911000  1.0
  O  O13  1  0.27602000  0.81535000  0.19329000  1.0
  O  O14  1  0.15726000  0.27948000  0.37401000  1.0
  O  O15  1  0.06242000  0.35088000  0.33441000  1.0
  O  O16  1  0.42781000  0.80235000  0.25672000  1.0
  O  O17  1  0.66740000  0.81459000  0.69601000  1.0
  O  O18  1  0.50438000  0.87713000  0.28056000  1.0
  O  O19  1  0.74230000  0.81586000  0.57410000  1.0
  O  O20  1  0.47707000  0.80555000  0.12740000  1.0
  O  O21  1  0.64383000  0.72457000  0.22810000  1.0
  O  O22  1  0.04783000  0.98356000  0.41527000  1.0
  O  O23  1  0.59962000  0.85051000  0.15070000  1.0
  O  O24  1  0.57629000  0.91263000  0.68222000  1.0
  O  O25  1  0.62996000  0.90290000  0.55790000  1.0
  O  O26  1  0.64275000  0.97134000  0.91257000  1.0
  O  O27  1  0.77091000  0.41828000  0.25971000  1.0
  O  O28  1  0.52783000  0.68449000  0.19531000  1.0
  O  O29  1  0.46649000  0.22003000  0.37568000  1.0
  O  O30  1  0.60062000  0.14910000  0.33594000  1.0
  O  O31  1  0.68517000  0.30236000  0.74529000  1.0
  O  O32  1  0.36251000  0.31469000  0.30424000  1.0
  O  O33  1  0.78106000  0.37991000  0.72442000  1.0
  O  O34  1  0.31561000  0.31594000  0.42623000  1.0
  O  O35  1  0.60470000  0.30527000  0.87325000  1.0
  O  O36  1  0.87207000  0.22486000  0.77249000  1.0
  O  O37  1  0.46589000  0.48309000  0.58461000  1.0
  O  O38  1  0.74993000  0.35037000  0.85175000  1.0
  O  O39  1  0.25716000  0.41251000  0.31752000  1.0
  O  O40  1  0.18916000  0.40381000  0.44185000  1.0
  O  O41  1  0.55128000  0.47353000  0.08783000  1.0
  O  O42  1  0.03148000  0.91895000  0.74069000  1.0
  O  O43  1  0.72395000  0.18444000  0.80641000  1.0
  O  O44  1  0.84299000  0.71982000  0.62556000  1.0
  O  O45  1  0.93762000  0.64894000  0.66573000  1.0
  O  O46  1  0.57174000  0.19728000  0.74359000  1.0
  O  O47  1  0.32826000  0.18512000  0.30384000  1.0
  O  O48  1  0.49646000  0.11992000  0.72227000  1.0
  O  O49  1  0.26226000  0.18211000  0.42550000  1.0
  O  O50  1  0.52389000  0.19137000  0.87329000  1.0
  O  O51  1  0.35709000  0.27330000  0.77230000  1.0
  O  O52  1  0.95159000  0.01786000  0.58470000  1.0
  O  O53  1  0.39820000  0.14898000  0.85131000  1.0
  O  O54  1  0.42348000  0.08798000  0.31745000  1.0
  O  O55  1  0.37096000  0.09367000  0.44220000  1.0
  O  O56  1  0.35748000  0.02523000  0.08841000  1.0
  O  O57  1  0.22910000  0.57919000  0.73828000  1.0
  O  O58  1  0.47018000  0.31485000  0.80673000  1.0
  O  O59  1  0.53117000  0.77945000  0.62652000  1.0
  O  O60  1  0.39672000  0.85051000  0.66576000  1.0
