# generated using pymatgen
data_H32C55(NO)8
_symmetry_space_group_name_H-M   'P 1'
_cell_length_a   21.48010000
_cell_length_b   37.20445135
_cell_length_c   64.44020000
_cell_angle_alpha   90.00005773
_cell_angle_beta   89.99830000
_cell_angle_gamma   89.99984600
_symmetry_Int_Tables_number   1
_chemical_formula_structural   H32C55(NO)8
_chemical_formula_sum   'H192 C330 N48 O48'
_cell_volume   51497.72961959
_cell_formula_units_Z   6
loop_
 _symmetry_equiv_pos_site_id
 _symmetry_equiv_pos_as_xyz
  1  'x, y, z'
loop_
 _atom_site_type_symbol
 _atom_site_label
 _atom_site_symmetry_multiplicity
 _atom_site_fract_x
 _atom_site_fract_y
 _atom_site_fract_z
 _atom_site_occupancy
  C  1  1  0.94060300  0.02503900  0.00351200  1
  C  2  1  0.94399500  0.06302600  0.00498100  1
  C  3  1  0.06103800  0.06128200  0.00327600  1
  C  4  1  0.06060100  0.02325500  0.00167000  1
  C  5  1  0.11914700  0.00536700  0.99994200  1
  C  6  1  0.17611800  0.02438700  0.00017600  1
  C  7  1  0.17441800  0.06214700  0.00143900  1
  C  8  1  0.11776900  0.08032300  0.00312500  1
  C  9  1  0.88920800  0.08372800  0.00640300  1
  C  10  1  0.83075900  0.06734100  0.00580000  1
  C  11  1  0.82519900  0.02981500  0.00354700  1
  C  12  1  0.88024000  0.00898400  0.00314200  1
  C  13  1  0.49549900  0.48140100  0.98230500  1
  C  14  1  0.49158300  0.44334300  0.98280900  1
  C  15  1  0.49883500  0.44288500  0.02176900  1
  C  16  1  0.50166300  0.48095000  0.02235500  1
  C  17  1  0.50096000  0.42271000  0.04026600  1
  C  18  1  0.50674800  0.43976200  0.05946100  1
  C  19  1  0.51122300  0.47745100  0.06075900  1
  C  20  1  0.00692500  0.99767300  0.04223000  1
  C  21  1  0.99379500  0.99854500  0.96248700  1
  C  22  1  0.48942800  0.47866200  0.94382300  1
  C  23  1  0.48363200  0.44101000  0.94513400  1
  C  24  1  0.48539700  0.42356900  0.96428500  1
  C  37  1  0.99961400  0.00265800  0.00239500  1
  C  38  1  0.49288200  0.42249500  0.00226300  1
  C  41  1  0.00357700  0.08274100  0.00521100  1
  C  48  1  0.50021600  0.45872800  0.67015000  1
  C  49  1  0.44157200  0.44139700  0.67162800  1
  C  50  1  0.38556500  0.50076100  0.66994700  1
  C  51  1  0.94278800  0.01958700  0.66832900  1
  C  52  1  0.94027500  0.05780300  0.66666667  1
  C  53  1  0.88322800  0.07674500  0.66685300  1
  C  54  1  0.82747700  0.05698300  0.66813500  1
  C  55  1  0.82860500  0.01957100  0.66981500  1
  C  56  1  0.43797500  0.40365100  0.67304300  1
  C  57  1  0.49181500  0.38264900  0.67242700  1
  C  58  1  0.55085100  0.39866500  0.67017200  1
  C  59  1  0.55451800  0.43660400  0.66977000  1
  C  60  1  0.03810000  0.00802200  0.64893700  1
  C  61  1  0.09709500  0.02514600  0.64942700  1
  C  62  1  0.09424600  0.02898100  0.68838700  1
  C  63  1  0.03577200  0.01132100  0.68898800  1
  C  64  1  0.12347000  0.04014600  0.70687700  1
  C  65  1  0.09507200  0.03447300  0.72608100  1
  C  66  1  0.03635000  0.01780800  0.72739600  1
  C  67  1  0.50812600  0.50555800  0.70887200  1
  C  68  1  0.51322100  0.49857500  0.62912500  1
  C  69  1  0.04518300  0.00634600  0.61045200  1
  C  70  1  0.10451300  0.02233300  0.61175000  1
  C  71  1  0.12979500  0.03197000  0.63089500  1
  C  84  1  0.50421300  0.49942700  0.66903600  1
  C  85  1  0.12773500  0.03624300  0.66887300  1
  C  88  1  0.38217700  0.46129800  0.67187400  1
  C  95  1  0.07192000  0.02154000  0.33645600  1
  C  96  1  0.62519000  0.50090800  0.33830500  1
  C  97  1  0.56406700  0.44325400  0.33659400  1
  C  98  1  0.50724000  0.46248200  0.33498800  1
  C  99  1  0.45114200  0.44215100  0.33325600  1
  C  100  1  0.45119300  0.40415600  0.33348900  1
  C  101  1  0.50868500  0.38612900  0.33475200  1
  C  102  1  0.56427000  0.40536800  0.33643800  1
  C  103  1  0.18531900  0.01803700  0.33941700  1
  C  104  1  0.18965500  0.05552800  0.33909300  1
  C  105  1  0.13608300  0.07699100  0.33670800  1
  C  106  1  0.07760200  0.05976600  0.33589600  1
  C  107  1  0.97933600  0.01542600  0.31568800  1
  C  108  1  0.92429800  0.03629800  0.31624100  1
  C  109  1  0.92121600  0.03402400  0.35511100  1
  C  110  1  0.97741100  0.01427900  0.35618900  1
  C  111  1  0.89054300  0.04554100  0.37315700  1
  C  112  1  0.91793800  0.04133400  0.39252700  1
  C  113  1  0.96804300  0.01757100  0.39473400  1
  C  114  1  0.49570300  0.50211700  0.37555000  1
  C  115  1  0.50357900  0.50825400  0.29580600  1
  C  116  1  0.97633700  0.02015700  0.27720000  1
  C  117  1  0.92270700  0.04180900  0.27870800  1
  C  118  1  0.89645200  0.04933400  0.29796300  1
  C  131  1  0.50682800  0.50327300  0.33571500  1
  C  132  1  0.89267600  0.04573200  0.33559500  1
  C  135  1  0.62498100  0.46125900  0.33853400  1
  C  142  1  0.54936200  0.49623600  0.11440700  1
  C  143  1  0.58870400  0.48075900  0.12954700  1
  C  145  1  0.03193400  0.00708400  0.15772300  1
  C  146  1  0.99170100  0.02452300  0.14333100  1
  C  147  1  0.00131300  0.01881100  0.12180700  1
  C  149  1  0.02276500  0.00646300  0.17966100  1
  C  150  1  0.07005300  0.00980900  0.19502300  1
  C  151  1  0.05316700  0.00730500  0.21626300  1
  C  152  1  0.99098800  0.00074500  0.22240900  1
  C  153  1  0.94679000  0.99691500  0.20633600  1
  C  158  1  0.13169200  0.01729100  0.19027600  1
  C  159  1  0.94503300  0.04752100  0.14985500  1
  C  166  1  0.97030600  0.00039000  0.24291500  1
  C  167  1  0.55504400  0.48564300  0.09371000  1
  C  170  1  0.98919600  0.02740700  0.78108600  1
  C  171  1  0.99244500  0.05482000  0.79623000  1
  C  173  1  0.48132900  0.51323500  0.82439100  1
  C  174  1  0.47553100  0.48440500  0.80998700  1
  C  175  1  0.47935100  0.49208400  0.78846600  1
  C  177  1  0.48677100  0.50894800  0.84632800  1
  C  178  1  0.95808200  0.03091600  0.86168200  1
  C  179  1  0.97032500  0.02376400  0.88292000  1
  C  180  1  0.51143900  0.49605700  0.88906500  1
  C  181  1  0.53927200  0.47583900  0.87299700  1
  C  186  1  0.91599100  0.05792500  0.85694100  1
  C  187  1  0.46438800  0.44957600  0.81652000  1
  C  194  1  0.52225300  0.48591900  0.90957700  1
  C  195  1  0.00243200  0.03553200  0.76040600  1
  C  198  1  0.47232900  0.48160100  0.44772200  1
  C  199  1  0.42943000  0.46967300  0.46286200  1
  C  201  1  0.49728700  0.48489700  0.49103500  1
  C  202  1  0.54357700  0.49629000  0.47664800  1
  C  203  1  0.02696900  0.99524900  0.45449000  1
  C  205  1  0.50091800  0.48980500  0.51297000  1
  C  206  1  0.48227900  0.46449600  0.52833200  1
  C  207  1  0.48691600  0.47420400  0.54956900  1
  C  208  1  0.00809900  0.00859100  0.55568400  1
  C  209  1  0.02453500  0.03261500  0.53961800  1
  C  214  1  0.46269200  0.42993300  0.52360000  1
  C  215  1  0.10127500  0.00787400  0.48254700  1
  C  222  1  0.01776700  0.01908500  0.57620700  1
  C  223  1  0.45360900  0.48405800  0.42702400  1
  C  226  1  0.66323800  0.01353400  0.99106200  1
  C  227  1  0.61700100  0.03516100  0.98176000  1
  C  229  1  0.53394700  0.99771500  0.99405700  1
  C  230  1  0.07797400  0.47471100  0.00385400  1
  C  231  1  0.14234000  0.48297100  0.00207200  1
  C  233  1  0.46778900  0.99492700  0.99566000  1
  C  234  1  0.42539100  0.00226700  0.97920900  1
  C  235  1  0.36108200  0.00475200  0.98379300  1
  C  236  1  0.33821800  0.00003200  0.00417900  1
  C  237  1  0.88240000  0.49177100  0.01966400  1
  C  242  1  0.44373300  0.00763100  0.95878200  1
  C  243  1  0.05924100  0.44379300  0.01396600  1
  C  250  1  0.27830500  0.01038700  0.00974700  1
  C  251  1  0.72525200  0.02424000  0.98967900  1
  C  254  1  0.65622900  0.32589500  0.65762700  1
  C  255  1  0.64667500  0.29192300  0.64840100  1
  C  257  1  0.74429100  0.26901400  0.66069800  1
  C  258  1  0.75702700  0.30256700  0.67042000  1
  C  259  1  0.71256200  0.33067400  0.66862500  1
  C  261  1  0.78137600  0.23726600  0.66233800  1
  C  262  1  0.79144500  0.21233900  0.64590300  1
  C  263  1  0.81992500  0.17895900  0.65049200  1
  C  264  1  0.83851100  0.16994600  0.67087800  1
  C  265  1  0.82895200  0.19621000  0.68634200  1
  C  270  1  0.77410000  0.21876900  0.62546500  1
  C  271  1  0.81276600  0.30863300  0.68053700  1
  C  278  1  0.85309900  0.13482700  0.67643500  1
  C  279  1  0.60929500  0.35162800  0.65621200  1
  C  282  1  0.19135800  0.16614700  0.32433800  1
  C  283  1  0.24687200  0.17843500  0.31501600  1
  C  285  1  0.23218800  0.23862600  0.32735800  1
  C  286  1  0.17573400  0.22809800  0.33719000  1
  C  287  1  0.15595700  0.19179600  0.33540300  1
  C  289  1  0.26108600  0.27308000  0.32896400  1
  C  290  1  0.29322100  0.29063200  0.31250500  1
  C  291  1  0.32913700  0.32152600  0.31708900  1
  C  292  1  0.33359400  0.33527500  0.33748200  1
  C  293  1  0.29918000  0.31729000  0.35297600  1
  C  298  1  0.29198900  0.27881400  0.29207100  1
  C  299  1  0.13876300  0.25288700  0.34733800  1
  C  306  1  0.37912900  0.36003200  0.34303600  1
  C  307  1  0.17660100  0.12982800  0.32294300  1
  C  310  1  0.44060200  0.52503900  0.00351200  1
  C  311  1  0.44399300  0.56302600  0.00498100  1
  C  312  1  0.56103800  0.56128200  0.00327600  1
  C  313  1  0.56060100  0.52325600  0.00167000  1
  C  314  1  0.61914400  0.50536800  0.99994200  1
  C  315  1  0.67611700  0.52438700  0.00017600  1
  C  316  1  0.67441400  0.56214900  0.00143900  1
  C  317  1  0.61776600  0.58032200  0.00312500  1
  C  318  1  0.38920900  0.58372800  0.00640300  1
  C  319  1  0.33075600  0.56734000  0.00580000  1
  C  320  1  0.32519800  0.52981500  0.00354700  1
  C  321  1  0.38023900  0.50898400  0.00314200  1
  C  322  1  0.99549700  0.98140200  0.98230500  1
  C  323  1  0.99158000  0.94334500  0.98280900  1
  C  324  1  0.99883600  0.94288600  0.02176900  1
  C  325  1  0.00166300  0.98095100  0.02235500  1
  C  326  1  0.00095900  0.92271100  0.04026600  1
  C  327  1  0.00674600  0.93976300  0.05946100  1
  C  328  1  0.01122200  0.97745200  0.06075900  1
  C  329  1  0.50692700  0.49767100  0.04223000  1
  C  330  1  0.49379700  0.49854400  0.96248700  1
  C  331  1  0.98942500  0.97866300  0.94382300  1
  C  332  1  0.98362900  0.94101200  0.94513400  1
  C  333  1  0.98539600  0.92357000  0.96428500  1
  C  346  1  0.49961100  0.50265700  0.00239500  1
  C  347  1  0.99288000  0.92249600  0.00226300  1
  C  350  1  0.50357700  0.58274100  0.00521100  1
  C  357  1  0.00021700  0.95872900  0.67015000  1
  C  358  1  0.94157100  0.94139600  0.67162800  1
  C  359  1  0.88556300  0.00075900  0.66994700  1
  C  360  1  0.44278700  0.51958900  0.66832900  1
  C  361  1  0.44027600  0.55780200  0.66666667  1
  C  362  1  0.38322800  0.57674600  0.66685300  1
  C  363  1  0.32747500  0.55698200  0.66813500  1
  C  364  1  0.32860500  0.51957300  0.66981500  1
  C  365  1  0.93797400  0.90365000  0.67304300  1
  C  366  1  0.99181400  0.88264700  0.67242700  1
  C  367  1  0.05085000  0.89866700  0.67017200  1
  C  368  1  0.05451800  0.93660600  0.66977000  1
  C  369  1  0.53809700  0.50802300  0.64893800  1
  C  370  1  0.59709400  0.52514700  0.64942700  1
  C  371  1  0.59424600  0.52898300  0.68838900  1
  C  372  1  0.53577000  0.51132100  0.68898800  1
  C  373  1  0.62346800  0.54014600  0.70687700  1
  C  374  1  0.59507000  0.53447400  0.72608100  1
  C  375  1  0.53634800  0.51781000  0.72739600  1
  C  376  1  0.00812800  0.00555700  0.70887200  1
  C  377  1  0.01322100  0.99857700  0.62912500  1
  C  378  1  0.54518400  0.50634600  0.61045500  1
  C  379  1  0.60451700  0.52233300  0.61175200  1
  C  380  1  0.62979500  0.53197200  0.63089700  1
  C  393  1  0.00421000  0.99942900  0.66903500  1
  C  394  1  0.62773400  0.53624300  0.66887300  1
  C  397  1  0.88217700  0.96129600  0.67187400  1
  C  404  1  0.56990000  0.52159100  0.33683200  1
  C  405  1  0.12705800  0.00081800  0.33783900  1
  C  406  1  0.06505600  0.94316600  0.33675100  1
  C  407  1  0.00839400  0.96254300  0.33552100  1
  C  408  1  0.95187700  0.94254500  0.33373100  1
  C  409  1  0.95133100  0.90451800  0.33362900  1
  C  410  1  0.00868100  0.88631300  0.33478000  1
  C  411  1  0.06457600  0.90529200  0.33646600  1
  C  412  1  0.68363000  0.51795400  0.33972600  1
  C  413  1  0.68826500  0.55537200  0.33912900  1
  C  414  1  0.63475200  0.57690900  0.33686400  1
  C  415  1  0.57599100  0.55980100  0.33646300  1
  C  416  1  0.47699500  0.51596000  0.31562500  1
  C  417  1  0.42184900  0.53692800  0.31612900  1
  C  418  1  0.41753700  0.53353300  0.35508900  1
  C  419  1  0.47323700  0.51309700  0.35567400  1
  C  420  1  0.38620300  0.54254800  0.37358700  1
  C  421  1  0.40890000  0.53114400  0.39278300  1
  C  422  1  0.46324000  0.51009800  0.39407900  1
  C  423  1  0.99914000  0.00509000  0.37657400  1
  C  424  1  0.00486000  0.00776200  0.29569900  1
  C  425  1  0.47595800  0.52040000  0.27714500  1
  C  426  1  0.42233200  0.54208600  0.27845500  1
  C  427  1  0.39526900  0.54990200  0.29760600  1
  C  440  1  0.00909300  0.00322300  0.33597400  1
  C  441  1  0.38991200  0.54669000  0.33558300  1
  C  444  1  0.12626100  0.96110500  0.33836700  1
  C  451  1  0.04936000  0.99623700  0.11440700  1
  C  452  1  0.08870200  0.98076100  0.12954800  1
  C  454  1  0.53193700  0.50708700  0.15771800  1
  C  455  1  0.49169800  0.52452600  0.14333000  1
  C  456  1  0.50131400  0.51881100  0.12180600  1
  C  458  1  0.52276900  0.50646300  0.17965500  1
  C  459  1  0.57005800  0.50981000  0.19501200  1
  C  460  1  0.55319000  0.50729700  0.21624900  1
  C  461  1  0.49103500  0.50069800  0.22239100  1
  C  462  1  0.44679400  0.49690500  0.20632300  1
  C  467  1  0.63169700  0.51729300  0.19027300  1
  C  468  1  0.44503100  0.54752300  0.14985500  1
  C  475  1  0.47044200  0.50032400  0.24290600  1
  C  476  1  0.05504200  0.98564500  0.09371000  1
  C  479  1  0.48919500  0.52740800  0.78108600  1
  C  480  1  0.49244300  0.55482100  0.79623000  1
  C  482  1  0.98132800  0.01323600  0.82439100  1
  C  483  1  0.97553000  0.98440700  0.80998700  1
  C  484  1  0.97934900  0.99208600  0.78846600  1
  C  486  1  0.98677100  0.00894900  0.84632800  1
  C  487  1  0.45808200  0.53091600  0.86168200  1
  C  488  1  0.47032400  0.52376600  0.88292000  1
  C  489  1  0.01143800  0.99605900  0.88906500  1
  C  490  1  0.03927100  0.97584100  0.87299700  1
  C  495  1  0.41599000  0.55792600  0.85694100  1
  C  496  1  0.96438500  0.94957500  0.81652000  1
  C  503  1  0.02225500  0.98592000  0.90957700  1
  C  504  1  0.50243100  0.53553300  0.76040600  1
  C  507  1  0.96771300  0.98301600  0.44770100  1
  C  508  1  0.92762900  0.97045600  0.46346200  1
  C  510  1  0.99799400  0.98512600  0.49091600  1
  C  511  1  0.04288400  0.99664100  0.47603100  1
  C  512  1  0.53021400  0.49433600  0.45512500  1
  C  514  1  0.00168400  0.98979500  0.51290500  1
  C  515  1  0.98246400  0.96455100  0.52827300  1
  C  516  1  0.98693300  0.97422700  0.54952400  1
  C  517  1  0.50808300  0.50858500  0.55570300  1
  C  518  1  0.52453500  0.53259000  0.53963100  1
  C  523  1  0.96275000  0.92998000  0.52357400  1
  C  524  1  0.60140100  0.50812500  0.48317500  1
  C  531  1  0.51777400  0.51909200  0.57621500  1
  C  532  1  0.94819600  0.97749600  0.42717100  1
  C  535  1  0.16323800  0.51353400  0.99106200  1
  C  536  1  0.11700100  0.53516300  0.98176000  1
  C  538  1  0.03394700  0.49771300  0.99405700  1
  C  539  1  0.57797300  0.97471000  0.00385400  1
  C  540  1  0.64234000  0.98297000  0.00207200  1
  C  542  1  0.96779200  0.49492600  0.99566000  1
  C  543  1  0.92538800  0.50226600  0.97920900  1
  C  544  1  0.86108000  0.50475300  0.98379300  1
  C  545  1  0.83821700  0.50003100  0.00417900  1
  C  546  1  0.38239700  0.99177000  0.01966400  1
  C  551  1  0.94373200  0.50763100  0.95878200  1
  C  552  1  0.55923900  0.94379500  0.01396600  1
  C  559  1  0.77830400  0.51038700  0.00974700  1
  C  560  1  0.22525000  0.52424200  0.98967900  1
  C  563  1  0.15622800  0.82589600  0.65762700  1
  C  564  1  0.14667500  0.79192200  0.64840100  1
  C  566  1  0.24429200  0.76901600  0.66069800  1
  C  567  1  0.25702600  0.80256800  0.67042000  1
  C  568  1  0.21256000  0.83067500  0.66862500  1
  C  570  1  0.28137500  0.73726700  0.66233800  1
  C  571  1  0.29144300  0.71234000  0.64590300  1
  C  572  1  0.31992600  0.67895900  0.65049200  1
  C  573  1  0.33851000  0.66994700  0.67087800  1
  C  574  1  0.32895100  0.69621000  0.68634200  1
  C  579  1  0.27409900  0.71876900  0.62546500  1
  C  580  1  0.31276400  0.80863500  0.68053700  1
  C  587  1  0.35309700  0.63482800  0.67643500  1
  C  588  1  0.10929300  0.85162700  0.65621200  1
  C  591  1  0.69127800  0.66604400  0.32435800  1
  C  592  1  0.74678200  0.67836800  0.31502900  1
  C  594  1  0.73218100  0.73860500  0.32735800  1
  C  595  1  0.67572400  0.72806900  0.33718700  1
  C  596  1  0.65594200  0.69175300  0.33540600  1
  C  598  1  0.76109600  0.77307900  0.32896400  1
  C  599  1  0.79323500  0.79064200  0.31250700  1
  C  600  1  0.82916600  0.82154600  0.31708600  1
  C  601  1  0.83365700  0.83534100  0.33746800  1
  C  602  1  0.79924600  0.81732100  0.35296200  1
  C  607  1  0.79199300  0.77881500  0.29207400  1
  C  608  1  0.63876300  0.75287500  0.34733500  1
  C  615  1  0.87919900  0.86018200  0.34299700  1
  C  616  1  0.67639100  0.62967200  0.32300400  1
  H  25  1  0.47831800  0.42581600  0.93201500  1
  H  26  1  0.48167700  0.39614500  0.96458800  1
  H  27  1  0.49816500  0.39525100  0.03991800  1
  H  28  1  0.50740100  0.42431700  0.07259700  1
  H  29  1  0.00870700  0.02506600  0.04323300  1
  H  30  1  0.99624700  0.02594100  0.96161300  1
  H  31  1  0.62040000  0.47798700  0.99868800  1
  H  32  1  0.21469100  0.07682000  0.00099400  1
  H  33  1  0.11829200  0.10778000  0.00410300  1
  H  34  1  0.37620700  0.48168400  0.00198800  1
  H  35  1  0.89141400  0.11111800  0.00769900  1
  H  36  1  0.79194400  0.08319100  0.00678100  1
  H  39  1  0.44986800  0.40680600  0.00312300  1
  H  40  1  0.53212800  0.40380800  0.00135700  1
  H  42  1  0.00615400  0.09780800  0.01976600  1
  H  43  1  0.00275700  0.10198000  0.99236900  1
  H  72  1  0.12992500  0.02729600  0.59862700  1
  H  73  1  0.17276000  0.04386200  0.63119000  1
  H  74  1  0.16602200  0.05251300  0.70651900  1
  H  75  1  0.11794100  0.04252800  0.73921000  1
  H  76  1  0.46616800  0.49272400  0.70988500  1
  H  77  1  0.47094100  0.48605000  0.62826000  1
  H  78  1  0.98069600  0.07214400  0.66533700  1
  H  79  1  0.78530700  0.06975900  0.66769500  1
  H  80  1  0.28718200  0.50608300  0.67080100  1
  H  81  1  0.59746600  0.44826200  0.66860900  1
  H  82  1  0.39580900  0.39103500  0.67434000  1
  H  83  1  0.48749500  0.35531300  0.67339800  1
  H  86  1  0.17281800  0.02262500  0.66971900  1
  H  87  1  0.13605300  0.06521900  0.66797000  1
  H  89  1  0.35832500  0.45503000  0.68643400  1
  H  90  1  0.35372000  0.45125800  0.65903800  1
  H  119  1  0.90200700  0.05217400  0.26571500  1
  H  120  1  0.85705300  0.06480900  0.29851900  1
  H  121  1  0.84914400  0.05908600  0.37228300  1
  H  122  1  0.89185700  0.04898600  0.40510100  1
  H  123  1  0.53590900  0.48753000  0.37655200  1
  H  124  1  0.54346700  0.49334100  0.29493300  1
  H  125  1  0.40944100  0.45521200  0.33200300  1
  H  126  1  0.51056500  0.35865600  0.33430400  1
  H  127  1  0.60519300  0.39138100  0.33742200  1
  H  128  1  0.03854600  0.07535700  0.33478800  1
  H  129  1  0.72361500  0.50316000  0.34102800  1
  H  130  1  0.23265000  0.06714400  0.34039000  1
  H  133  1  0.88917900  0.07508300  0.33612300  1
  H  134  1  0.84565300  0.03450300  0.33490900  1
  H  136  1  0.64628700  0.45243500  0.35308900  1
  H  137  1  0.65426100  0.45205300  0.32569400  1
  H  148  1  0.97187400  0.03067400  0.11134800  1
  H  155  1  0.58652700  0.51064300  0.22745400  1
  H  156  1  0.90075200  0.99252300  0.20945600  1
  H  157  1  0.62377800  0.46357900  0.12548400  1
  H  162  1  0.12378800  0.06312600  0.17820100  1
  H  165  1  0.93489200  0.09337600  0.16161800  1
  H  168  1  0.58850300  0.46803000  0.09030100  1
  H  169  1  0.92654800  0.99247500  0.24540600  1
  H  176  1  0.47647000  0.47142600  0.77800500  1
  H  183  1  0.94859300  0.03874300  0.89412600  1
  H  184  1  0.56890900  0.45503300  0.87612100  1
  H  185  1  0.00075900  0.08094600  0.79218600  1
  H  190  1  0.85144600  0.03127500  0.84458000  1
  H  193  1  0.40008700  0.42129700  0.82764200  1
  H  196  1  0.01213600  0.06107200  0.75699800  1
  H  197  1  0.55584000  0.46788600  0.91204500  1
  H  204  1  0.05912900  0.00281000  0.44360800  1
  H  211  1  0.47525100  0.45587100  0.56077800  1
  H  212  1  0.04086900  0.05784400  0.54275300  1
  H  213  1  0.38612600  0.46072700  0.45879600  1
  H  218  1  0.53540900  0.41096200  0.51153700  1
  H  221  1  0.17463700  0.99032500  0.49493000  1
  H  224  1  0.41046300  0.47613100  0.42361200  1
  H  225  1  0.02791000  0.04490900  0.57867500  1
  H  232  1  0.17455600  0.46646200  0.00888300  1
  H  239  1  0.33066700  0.01190700  0.97224900  1
  H  240  1  0.86957400  0.48945200  0.03487900  1
  H  241  1  0.62817100  0.05807300  0.97383400  1
  H  246  1  0.48362100  0.96376200  0.95296800  1
  H  249  1  0.03059100  0.39725800  0.00789300  1
  H  252  1  0.73554000  0.04290600  0.97910500  1
  H  253  1  0.77365600  0.52399100  0.02298700  1
  H  260  1  0.72135100  0.35506000  0.67538900  1
  H  267  1  0.82428400  0.16014000  0.63896000  1
  H  268  1  0.83919500  0.19105000  0.70154200  1
  H  269  1  0.60669400  0.28609600  0.64047900  1
  H  274  1  0.82081200  0.26033400  0.61960700  1
  H  277  1  0.89733300  0.31629900  0.67444900  1
  H  280  1  0.57622100  0.34748300  0.64560800  1
  H  281  1  0.83515000  0.12569800  0.68969400  1
  H  288  1  0.11514100  0.18389900  0.34223500  1
  H  295  1  0.35502700  0.33317500  0.30553800  1
  H  296  1  0.30219200  0.32483000  0.36819300  1
  H  297  1  0.27563900  0.16141100  0.30706900  1
  H  302  1  0.20621200  0.28081300  0.28630700  1
  H  305  1  0.08323300  0.29047400  0.34131700  1
  H  308  1  0.19931600  0.11543600  0.31228800  1
  H  309  1  0.40185700  0.35553800  0.35627600  1
  H  334  1  0.97831900  0.92581700  0.93201500  1
  H  335  1  0.98167700  0.89614600  0.96458800  1
  H  336  1  0.99816400  0.89525200  0.03991800  1
  H  337  1  0.00739900  0.92431600  0.07259700  1
  H  338  1  0.50870400  0.52506600  0.04323300  1
  H  339  1  0.49624300  0.52594100  0.96161300  1
  H  340  1  0.12039800  0.97798600  0.99868800  1
  H  341  1  0.71468900  0.57681900  0.00099400  1
  H  342  1  0.61829200  0.60778100  0.00410300  1
  H  343  1  0.87620700  0.98168500  0.00198800  1
  H  344  1  0.39141300  0.61111700  0.00769900  1
  H  345  1  0.29194400  0.58319000  0.00678100  1
  H  348  1  0.94986800  0.90680700  0.00312300  1
  H  349  1  0.03212800  0.90380900  0.00135700  1
  H  351  1  0.50615400  0.59781000  0.01976600  1
  H  352  1  0.50275600  0.60198000  0.99236900  1
  H  381  1  0.62992800  0.52729500  0.59862800  1
  H  382  1  0.67276000  0.54386300  0.63119000  1
  H  383  1  0.66602200  0.55251200  0.70651900  1
  H  384  1  0.61793900  0.54252700  0.73921000  1
  H  385  1  0.96616800  0.99272500  0.70988500  1
  H  386  1  0.97094200  0.98605100  0.62826000  1
  H  387  1  0.48069600  0.57214400  0.66533700  1
  H  388  1  0.28530700  0.56976000  0.66769500  1
  H  389  1  0.78718300  0.00608100  0.67080100  1
  H  390  1  0.09746700  0.94826300  0.66860900  1
  H  391  1  0.89580900  0.89103300  0.67434000  1
  H  392  1  0.98749400  0.85531200  0.67339800  1
  H  395  1  0.67281800  0.52262600  0.66971900  1
  H  396  1  0.63605300  0.56521800  0.66797000  1
  H  398  1  0.85832500  0.95503100  0.68643400  1
  H  399  1  0.85371900  0.95126000  0.65903800  1
  H  428  1  0.40219100  0.55233700  0.26533800  1
  H  429  1  0.35597300  0.56545600  0.29791000  1
  H  430  1  0.34639500  0.55765900  0.37323800  1
  H  431  1  0.38540000  0.53853500  0.40591900  1
  H  432  1  0.03491800  0.98716900  0.37816200  1
  H  433  1  0.04472900  0.99288900  0.29458500  1
  H  434  1  0.91041600  0.95585800  0.33249000  1
  H  435  1  0.01026700  0.85884000  0.33418900  1
  H  436  1  0.10532500  0.89111100  0.33725100  1
  H  437  1  0.53705100  0.57546100  0.33529600  1
  H  438  1  0.22528700  0.00331000  0.34094300  1
  H  439  1  0.73144600  0.56685700  0.34010300  1
  H  442  1  0.38785300  0.57604100  0.33644200  1
  H  443  1  0.34227200  0.53639300  0.33467900  1
  H  445  1  0.14768100  0.95252300  0.35294100  1
  H  446  1  0.15523000  0.95151200  0.32554900  1
  H  457  1  0.47187400  0.53067500  0.11134700  1
  H  464  1  0.08650600  0.01065600  0.22746800  1
  H  465  1  0.40075600  0.49251300  0.20944500  1
  H  466  1  0.12377700  0.96358000  0.12548500  1
  H  471  1  0.62379200  0.56312900  0.17819900  1
  H  474  1  0.43489000  0.59337800  0.16161800  1
  H  477  1  0.08850200  0.96803100  0.09030100  1
  H  478  1  0.42661400  0.49252400  0.24537600  1
  H  485  1  0.97646900  0.97142700  0.77800500  1
  H  492  1  0.44859200  0.53874300  0.89412600  1
  H  493  1  0.06891100  0.95503100  0.87612100  1
  H  494  1  0.50075600  0.58094700  0.79218600  1
  H  499  1  0.35144500  0.53127600  0.84458000  1
  H  502  1  0.90008600  0.92129600  0.82764200  1
  H  505  1  0.51213500  0.56107300  0.75699800  1
  H  506  1  0.05583900  0.96788500  0.91204500  1
  H  513  1  0.56273700  0.50312000  0.44466700  1
  H  520  1  0.97518000  0.95589400  0.56072600  1
  H  521  1  0.54095400  0.55781000  0.54275000  1
  H  522  1  0.88462700  0.96031800  0.46003800  1
  H  527  1  0.03541800  0.91093900  0.51152700  1
  H  530  1  0.67524200  0.49027200  0.49494900  1
  H  533  1  0.91831200  0.95758700  0.42458300  1
  H  534  1  0.52791600  0.54491600  0.57868100  1
  H  541  1  0.67455600  0.96646100  0.00888300  1
  H  548  1  0.83066400  0.51190800  0.97224900  1
  H  549  1  0.36957500  0.98945300  0.03487900  1
  H  550  1  0.12817100  0.55807400  0.97383400  1
  H  555  1  0.98362100  0.46376300  0.95296800  1
  H  558  1  0.53058900  0.89725700  0.00789300  1
  H  561  1  0.23553800  0.54290700  0.97910500  1
  H  562  1  0.27365700  0.02399000  0.02298700  1
  H  569  1  0.22134900  0.85505900  0.67538900  1
  H  576  1  0.32428500  0.66013900  0.63896000  1
  H  577  1  0.33919500  0.69105200  0.70154200  1
  H  578  1  0.10669200  0.78609700  0.64047900  1
  H  583  1  0.32081000  0.76033400  0.61960700  1
  H  586  1  0.39733100  0.81630000  0.67444900  1
  H  589  1  0.07622100  0.84748200  0.64560800  1
  H  590  1  0.33515000  0.62569700  0.68969400  1
  H  597  1  0.61512500  0.68388300  0.34224800  1
  H  604  1  0.85503700  0.83319800  0.30553300  1
  H  605  1  0.80225100  0.82486900  0.36817900  1
  H  606  1  0.77553500  0.66134000  0.30708000  1
  H  611  1  0.70621200  0.78081500  0.28630900  1
  H  614  1  0.58324200  0.79047200  0.34131700  1
  H  617  1  0.69928000  0.61519200  0.31243600  1
  H  618  1  0.90196800  0.85562600  0.35622000  1
  N  44  1  0.01411200  0.99245300  0.07957500  1
  N  45  1  0.76820800  0.01535400  0.00271800  1
  N  46  1  0.23128000  0.00867600  0.99734100  1
  N  47  1  0.98633400  0.99374700  0.92499600  1
  N  91  1  0.51244500  0.51172200  0.74621600  1
  N  92  1  0.60104400  0.37741300  0.66933100  1
  N  93  1  0.87912600  0.11217800  0.66401100  1
  N  94  1  0.52412600  0.49722300  0.59163100  1
  N  138  1  0.48428200  0.50113900  0.41289500  1
  N  139  1  0.14228400  0.11272100  0.33606700  1
  N  140  1  0.40004300  0.38443300  0.33064600  1
  N  141  1  0.50012700  0.51440300  0.25831700  1
  N  144  1  0.57815900  0.48613200  0.15001500  1
  N  154  1  0.96390100  0.99982000  0.18623900  1
  N  172  1  0.98958800  0.04683700  0.81669400  1
  N  182  1  0.52627400  0.48289200  0.85290300  1
  N  200  1  0.44274700  0.47226400  0.48332900  1
  N  210  1  0.02072300  0.02259200  0.51951300  1
  N  228  1  0.55610600  0.02684000  0.98376800  1
  N  238  1  0.94383000  0.49021500  0.01498500  1
  N  256  1  0.68947500  0.26557200  0.65043400  1
  N  266  1  0.80064800  0.22771900  0.68165100  1
  N  284  1  0.26479900  0.21302800  0.31703800  1
  N  294  1  0.26609900  0.28736900  0.34829700  1
  N  353  1  0.51411300  0.49245100  0.07957500  1
  N  354  1  0.26820600  0.51535400  0.00271800  1
  N  355  1  0.73128000  0.50867700  0.99734100  1
  N  356  1  0.48633400  0.49374800  0.92499600  1
  N  400  1  0.01244800  0.01172200  0.74621600  1
  N  401  1  0.10104500  0.87741400  0.66933100  1
  N  402  1  0.37912400  0.61217700  0.66401100  1
  N  403  1  0.02412200  0.99722500  0.59162500  1
  N  447  1  0.95779500  0.99710900  0.41115700  1
  N  448  1  0.64153800  0.61263600  0.33602800  1
  N  449  1  0.90006800  0.88478300  0.33070400  1
  N  450  1  0.00004300  0.01442400  0.25831700  1
  N  453  1  0.07815600  0.98613100  0.15001500  1
  N  463  1  0.46389800  0.49982400  0.18622700  1
  N  481  1  0.48958800  0.54683600  0.81669400  1
  N  491  1  0.02627300  0.98289400  0.85290300  1
  N  509  1  0.94315800  0.97249600  0.48370600  1
  N  519  1  0.52038400  0.52256400  0.51953800  1
  N  537  1  0.05610500  0.52684100  0.98376800  1
  N  547  1  0.44382800  0.99021600  0.01498500  1
  N  565  1  0.18947400  0.76557300  0.65043400  1
  N  575  1  0.30064600  0.72772000  0.68165100  1
  N  593  1  0.76474300  0.71297600  0.31703800  1
  N  603  1  0.76613200  0.78739200  0.34829200  1
  O  160  1  0.66665500  0.49148900  0.18929700  1
  O  161  1  0.14641800  0.04334700  0.17948000  1
  O  163  1  0.89250500  0.04433500  0.14268600  1
  O  164  1  0.96107700  0.07615100  0.15791400  1
  O  188  1  0.93672000  0.08843800  0.85605900  1
  O  189  1  0.86965600  0.05248000  0.84605200  1
  O  191  1  0.49615300  0.42512700  0.80944100  1
  O  192  1  0.41283800  0.44306400  0.82406500  1
  O  216  1  0.40650700  0.42535500  0.52262000  1
  O  217  1  0.49442500  0.40953700  0.51281200  1
  O  219  1  0.12271000  0.03606100  0.47585500  1
  O  220  1  0.63631200  0.48579200  0.49124300  1
  O  244  1  0.44579000  0.03867800  0.95267000  1
  O  245  1  0.47879600  0.98667800  0.94962000  1
  O  247  1  0.08031400  0.43751400  0.03125400  1
  O  248  1  0.04006800  0.41886900  0.00308200  1
  O  272  1  0.72625100  0.20434500  0.61953100  1
  O  273  1  0.78849600  0.24669800  0.61631300  1
  O  275  1  0.81227600  0.32281400  0.69768900  1
  O  276  1  0.86001000  0.31046900  0.66968200  1
  O  300  1  0.33749700  0.26227200  0.28592400  1
  O  301  1  0.24298000  0.27177400  0.28293400  1
  O  303  1  0.11890700  0.24545300  0.36463400  1
  O  304  1  0.11089100  0.27494000  0.33648100  1
  O  469  1  0.16664900  0.99148800  0.18929700  1
  O  470  1  0.64642200  0.54334900  0.17947800  1
  O  472  1  0.39250400  0.54433500  0.14268600  1
  O  473  1  0.46107700  0.57615100  0.15791400  1
  O  497  1  0.43672000  0.58843800  0.85605900  1
  O  498  1  0.36965600  0.55248000  0.84605200  1
  O  500  1  0.99615300  0.92512900  0.80944100  1
  O  501  1  0.91283500  0.94306500  0.82406500  1
  O  525  1  0.90655700  0.92537800  0.52262600  1
  O  526  1  0.99443500  0.90953400  0.51280900  1
  O  528  1  0.62289700  0.53597600  0.47600400  1
  O  529  1  0.13577900  0.98579800  0.49114200  1
  O  553  1  0.94579000  0.53867900  0.95267000  1
  O  554  1  0.97879700  0.48667700  0.94962000  1
  O  556  1  0.58031300  0.93751300  0.03125400  1
  O  557  1  0.54006600  0.91887000  0.00308200  1
  O  581  1  0.22625100  0.70434600  0.61953100  1
  O  582  1  0.28849500  0.74669900  0.61631300  1
  O  584  1  0.31227400  0.82281600  0.69768900  1
  O  585  1  0.36000900  0.81047000  0.66968200  1
  O  609  1  0.83749700  0.76227400  0.28592400  1
  O  610  1  0.74298000  0.77177600  0.28293500  1
  O  612  1  0.61891000  0.74545100  0.36463300  1
  O  613  1  0.61089500  0.77493700  0.33648000  1
