# generated using pymatgen
data_Ga3FeP4H22C8(N3O8)2
_symmetry_space_group_name_H-M   'P 1'
_cell_length_a   13.37333000
_cell_length_b   14.30758000
_cell_length_c   14.43241023
_cell_angle_alpha   111.22906973
_cell_angle_beta   107.39343937
_cell_angle_gamma   107.84430000
_symmetry_Int_Tables_number   1
_chemical_formula_structural   Ga3FeP4H22C8(N3O8)2
_chemical_formula_sum   'Ga9 Fe3 P12 H66 C24 N18 O48'
_cell_volume   2173.15513221
_cell_formula_units_Z   3
loop_
 _symmetry_equiv_pos_site_id
 _symmetry_equiv_pos_as_xyz
  1  'x, y, z'
loop_
 _atom_site_type_symbol
 _atom_site_label
 _atom_site_symmetry_multiplicity
 _atom_site_fract_x
 _atom_site_fract_y
 _atom_site_fract_z
 _atom_site_occupancy
  Ga  Ga0  1  0.81321000  0.12877000  0.54615000  1
  Ga  Ga1  1  0.14096000  0.16695000  0.61596000  1
  Ga  Ga2  1  0.26916000  0.45403000  0.58276000  1
  Ga  Ga3  1  0.52565000  0.37484000  0.54628000  1
  Ga  Ga4  1  0.68285000  0.43055000  0.86258000  1
  Ga  Ga5  1  0.97338000  0.44945000  0.82780000  1
  Ga  Ga6  1  0.17369000  0.86211000  0.43165000  1
  Ga  Ga7  1  0.74378000  0.56908000  0.43047000  1
  Ga  Ga8  1  0.31557000  0.56922000  0.14198000  1
  Fe  Fe9  1  0.85966000  0.85101000  0.39054000  1
  Fe  Fe10  1  0.47294000  0.60591000  0.45873000  1
  Fe  Fe11  1  0.02292000  0.54588000  0.15770000  1
  P  P12  1  0.93443000  0.05588000  0.38849000  1
  P  P13  1  0.93387000  0.65185000  0.33249000  1
  P  P14  1  0.54552000  0.60550000  0.66325000  1
  P  P15  1  0.60308000  0.67031000  0.32181000  1
  P  P16  1  0.87375000  0.33632000  0.93690000  1
  P  P17  1  0.28333000  0.67661000  0.35378000  1
  P  P18  1  0.06628000  0.94852000  0.60766000  1
  P  P19  1  0.05816000  0.35083000  0.65658000  1
  P  P20  1  0.46291000  0.38864000  0.33811000  1
  P  P21  1  0.39524000  0.33464000  0.68425000  1
  P  P22  1  0.12329000  0.66008000  0.05447000  1
  P  P23  1  0.70913000  0.30900000  0.65003000  1
  H  H24  1  0.75020000  0.10484000  0.34186000  1
  H  H25  1  0.65767000  0.14060000  0.39269000  1
  H  H26  1  0.89759000  0.18505000  0.75539000  1
  H  H27  1  0.96299000  0.11575000  0.69773000  1
  H  H28  1  0.63199000  0.91357000  0.26574000  1
  H  H29  1  0.51730000  0.84417000  0.35781000  1
  H  H30  1  0.50942000  0.97157000  0.41365000  1
  H  H31  1  0.63730000  0.01886000  0.63565000  1
  H  H32  1  0.61553000  0.87711000  0.56257000  1
  H  H33  1  0.80818000  0.01742000  0.75351000  1
  H  H34  1  0.82832000  0.94334000  0.63625000  1
  H  H35  1  0.41306000  0.65997000  0.76249000  1
  H  H36  1  0.27212000  0.61304000  0.75087000  1
  H  H37  1  0.14067000  0.24225000  0.42995000  1
  H  H38  1  0.26294000  0.29487000  0.41726000  1
  H  H39  1  0.37119000  0.73606000  0.64822000  1
  H  H40  1  0.16402000  0.64841000  0.49346000  1
  H  H41  1  0.10368000  0.59344000  0.56639000  1
  H  H42  1  0.00746000  0.36824000  0.39019000  1
  H  H43  1  0.05624000  0.44009000  0.32080000  1
  H  H44  1  0.05655000  0.24520000  0.26630000  1
  H  H45  1  0.19386000  0.36135000  0.30946000  1
  H  H46  1  0.68241000  0.24110000  0.94034000  1
  H  H47  1  0.54282000  0.23948000  0.89408000  1
  H  H48  1  0.71241000  0.59687000  0.82843000  1
  H  H49  1  0.84171000  0.59447000  0.87372000  1
  H  H50  1  0.75287000  0.41560000  0.11374000  1
  H  H51  1  0.61051000  0.49884000  0.11785000  1
  H  H52  1  0.50625000  0.39071000  0.97428000  1
  H  H53  1  0.63311000  0.62929000  0.99951000  1
  H  H54  1  0.74858000  0.67089000  0.13084000  1
  H  H55  1  0.81645000  0.75011000  0.01466000  1
  H  H56  1  0.88898000  0.67529000  0.05637000  1
  H  H57  1  0.25616000  0.94347000  0.70320000  1
  H  H58  1  0.34247000  0.88751000  0.65022000  1
  H  H59  1  0.10092000  0.81875000  0.22894000  1
  H  H60  1  0.03140000  0.88231000  0.28752000  1
  H  H61  1  0.35850000  0.11375000  0.70148000  1
  H  H62  1  0.49784000  0.11432000  0.61686000  1
  H  H63  1  0.45842000  0.96784000  0.57718000  1
  H  H64  1  0.36135000  0.98209000  0.36481000  1
  H  H65  1  0.38256000  0.12048000  0.45003000  1
  H  H66  1  0.19898000  0.00111000  0.25645000  1
  H  H67  1  0.17274000  0.05893000  0.37411000  1
  H  H68  1  0.56007000  0.29774000  0.23511000  1
  H  H69  1  0.70364000  0.35212000  0.23891000  1
  H  H70  1  0.87191000  0.77258000  0.59034000  1
  H  H71  1  0.74433000  0.71570000  0.59564000  1
  H  H72  1  0.65267000  0.29379000  0.40225000  1
  H  H73  1  0.87523000  0.37526000  0.49481000  1
  H  H74  1  0.88366000  0.41883000  0.39335000  1
  H  H75  1  0.99224000  0.62959000  0.61414000  1
  H  H76  1  0.92787000  0.54575000  0.66721000  1
  H  H77  1  0.94016000  0.74417000  0.74312000  1
  H  H78  1  0.79674000  0.62751000  0.68362000  1
  H  H79  1  0.31735000  0.75974000  0.05508000  1
  H  H80  1  0.45790000  0.76230000  0.10598000  1
  H  H81  1  0.28328000  0.40367000  0.17897000  1
  H  H82  1  0.15442000  0.40617000  0.12936000  1
  H  H83  1  0.24716000  0.58380000  0.88806000  1
  H  H84  1  0.38637000  0.49720000  0.88586000  1
  H  H85  1  0.49070000  0.60528000  0.02904000  1
  H  H86  1  0.36358000  0.36794000  0.00345000  1
  H  H87  1  0.24681000  0.32675000  0.87345000  1
  H  H88  1  0.18260000  0.24927000  0.99266000  1
  H  H89  1  0.10813000  0.32175000  0.94861000  1
  C  C90  1  0.61277000  0.97056000  0.32310000  1
  C  C91  1  0.56944000  0.93641000  0.39609000  1
  C  C92  1  0.67201000  0.96636000  0.59157000  1
  C  C93  1  0.80134000  0.00688000  0.67239000  1
  C  C94  1  0.29568000  0.68164000  0.65054000  1
  C  C95  1  0.17908000  0.60943000  0.54602000  1
  C  C96  1  0.08445000  0.41070000  0.37973000  1
  C  C97  1  0.13084000  0.32628000  0.33671000  1
  C  C98  1  0.66403000  0.37440000  0.04487000  1
  C  C99  1  0.60051000  0.44227000  0.03626000  1
  C  C100  1  0.71166000  0.62073000  0.03950000  1
  C  C101  1  0.80455000  0.66725000  0.00500000  1
  C  C102  1  0.37616000  0.04202000  0.67027000  1
  C  C103  1  0.42663000  0.03189000  0.59019000  1
  C  C104  1  0.32520000  0.02953000  0.41261000  1
  C  C105  1  0.20045000  0.99883000  0.33193000  1
  C  C106  1  0.70612000  0.32602000  0.36628000  1
  C  C107  1  0.83467000  0.40471000  0.44050000  1
  C  C108  1  0.90887000  0.58397000  0.61475000  1
  C  C109  1  0.86658000  0.66848000  0.66581000  1
  C  C110  1  0.33603000  0.62455000  0.95680000  1
  C  C111  1  0.39648000  0.55459000  0.96714000  1
  C  C112  1  0.28510000  0.37729000  0.96497000  1
  C  C113  1  0.19321000  0.33141000  0.00084000  1
  N  N114  1  0.69490000  0.08753000  0.37764000  1
  N  N115  1  0.67212000  0.98506000  0.50109000  1
  N  N116  1  0.88285000  0.11500000  0.68671000  1
  N  N117  1  0.32289000  0.62617000  0.71149000  1
  N  N118  1  0.17561000  0.50193000  0.48746000  1
  N  N119  1  0.19582000  0.30995000  0.42843000  1
  N  N120  1  0.62491000  0.27390000  0.95866000  1
  N  N121  1  0.67741000  0.50108000  0.00220000  1
  N  N122  1  0.76822000  0.58609000  0.88583000  1
  N  N123  1  0.32981000  0.95645000  0.68440000  1
  N  N124  1  0.31866000  0.99996000  0.49776000  1
  N  N125  1  0.11232000  0.88381000  0.30016000  1
  N  N126  1  0.65213000  0.31551000  0.26833000  1
  N  N127  1  0.81782000  0.49868000  0.50099000  1
  N  N128  1  0.81207000  0.70159000  0.58404000  1
  N  N129  1  0.37621000  0.72658000  0.04024000  1
  N  N130  1  0.31903000  0.49670000  0.00149000  1
  N  N131  1  0.22898000  0.41386000  0.11937000  1
  O  O132  1  0.88354000  0.03786000  0.47081000  1
  O  O133  1  0.91228000  0.93160000  0.31549000  1
  O  O134  1  0.07441000  0.13399000  0.46669000  1
  O  O135  1  0.88359000  0.10591000  0.32415000  1
  O  O136  1  0.88225000  0.72773000  0.30477000  1
  O  O137  1  0.91921000  0.56051000  0.22117000  1
  O  O138  1  0.87096000  0.58854000  0.38033000  1
  O  O139  1  0.06863000  0.72668000  0.41689000  1
  O  O140  1  0.41374000  0.52348000  0.56522000  1
  O  O141  1  0.59526000  0.68035000  0.61388000  1
  O  O142  1  0.60829000  0.52620000  0.66100000  1
  O  O143  1  0.56077000  0.67145000  0.77861000  1
  O  O144  1  0.57915000  0.69835000  0.42566000  1
  O  O145  1  0.69465000  0.78457000  0.34238000  1
  O  O146  1  0.49180000  0.61940000  0.21230000  1
  O  O147  1  0.65766000  0.58728000  0.31161000  1
  O  O148  1  0.83430000  0.42924000  0.94081000  1
  O  O149  1  0.97048000  0.38923000  0.06180000  1
  O  O150  1  0.94236000  0.33271000  0.86247000  1
  O  O151  1  0.77811000  0.21984000  0.89415000  1
  O  O152  1  0.15722000  0.57124000  0.27782000  1
  O  O153  1  0.35469000  0.65437000  0.44407000  1
  O  O154  1  0.27961000  0.78666000  0.41511000  1
  O  O155  1  0.34542000  0.68764000  0.27961000  1
  O  O156  1  0.10861000  0.95008000  0.51794000  1
  O  O157  1  0.09057000  0.07611000  0.67550000  1
  O  O158  1  0.92678000  0.87248000  0.54077000  1
  O  O159  1  0.12419000  0.91190000  0.68506000  1
  O  O160  1  0.11366000  0.28391000  0.69932000  1
  O  O161  1  0.07592000  0.45227000  0.76353000  1
  O  O162  1  0.11663000  0.40093000  0.59802000  1
  O  O163  1  0.92318000  0.27303000  0.57703000  1
  O  O164  1  0.59106000  0.48472000  0.42892000  1
  O  O165  1  0.42441000  0.31795000  0.39604000  1
  O  O166  1  0.38523000  0.45241000  0.32954000  1
  O  O167  1  0.44743000  0.31253000  0.22452000  1
  O  O168  1  0.40986000  0.29388000  0.57514000  1
  O  O169  1  0.30453000  0.22603000  0.67384000  1
  O  O170  1  0.50885000  0.38802000  0.79183000  1
  O  O171  1  0.34373000  0.41921000  0.69194000  1
  O  O172  1  0.16284000  0.56966000  0.06151000  1
  O  O173  1  0.02630000  0.60104000  0.92755000  1
  O  O174  1  0.05552000  0.67042000  0.12853000  1
  O  O175  1  0.21789000  0.77465000  0.09083000  1
  O  O176  1  0.83029000  0.41948000  0.71697000  1
  O  O177  1  0.63012000  0.31242000  0.54662000  1
  O  O178  1  0.71922000  0.19972000  0.60613000  1
  O  O179  1  0.64555000  0.30824000  0.72441000  1
