# generated using pymatgen
data_V2H12C24SO13
_symmetry_space_group_name_H-M   'P 1'
_cell_length_a   7.25839000
_cell_length_b   13.67811000
_cell_length_c   20.05701000
_cell_angle_alpha   77.16448000
_cell_angle_beta   90.00222000
_cell_angle_gamma   90.00046000
_symmetry_Int_Tables_number   1
_chemical_formula_structural   V2H12C24SO13
_chemical_formula_sum   'V4 H24 C48 S2 O26'
_cell_volume   1941.52265653
_cell_formula_units_Z   2
loop_
 _symmetry_equiv_pos_site_id
 _symmetry_equiv_pos_as_xyz
  1  'x, y, z'
loop_
 _atom_site_type_symbol
 _atom_site_label
 _atom_site_symmetry_multiplicity
 _atom_site_fract_x
 _atom_site_fract_y
 _atom_site_fract_z
 _atom_site_occupancy
  V  V0  1  0.93534000  0.51189000  0.49769000  1
  V  V1  1  0.43534000  0.48811000  0.50231000  1
  V  V2  1  0.35182000  0.98811000  0.00231000  1
  V  V3  1  0.85182000  0.01189000  0.99769000  1
  H  H4  1  0.27960000  0.17403000  0.47885000  1
  H  H5  1  0.77968000  0.82597000  0.52116000  1
  H  H6  1  0.39589000  0.02363000  0.29409000  1
  H  H7  1  0.89592000  0.97637000  0.70593000  1
  H  H8  1  0.36319000  0.05931000  0.40627000  1
  H  H9  1  0.86326000  0.94068000  0.59374000  1
  H  H10  1  0.05395000  0.38238000  0.30819000  1
  H  H11  1  0.55389000  0.61764000  0.69180000  1
  H  H12  1  0.00798000  0.32319000  0.01759000  1
  H  H13  1  0.50792000  0.67683000  0.98240000  1
  H  H14  1  0.02292000  0.42235000  0.20270000  1
  H  H15  1  0.52280000  0.57768000  0.79728000  1
  H  H16  1  0.95305000  0.45215000  0.08276000  1
  H  H17  1  0.45292000  0.54788000  0.91722000  1
  H  H18  1  0.32796000  0.05938000  0.17408000  1
  H  H19  1  0.82809000  0.94058000  0.82593000  1
  H  H20  1  0.89469000  0.26256000  0.82976000  1
  H  H21  1  0.39406000  0.73785000  0.17039000  1
  H  H22  1  0.89739000  0.37466000  0.71640000  1
  H  H23  1  0.39674000  0.62576000  0.28375000  1
  H  H24  1  0.39149000  0.23526000  0.66572000  1
  H  H25  1  0.89217000  0.76429000  0.33413000  1
  H  H26  1  0.64134000  0.11296000  0.69614000  1
  H  H27  1  0.14317000  0.88595000  0.30345000  1
  C  C28  1  0.65532000  0.61675000  0.38503000  1
  C  C29  1  0.15533000  0.38324000  0.61497000  1
  C  C30  1  0.65516000  0.63773000  0.56346000  1
  C  C31  1  0.15516000  0.36227000  0.43654000  1
  C  C32  1  0.29383000  0.12890000  0.38349000  1
  C  C33  1  0.79386000  0.87110000  0.61652000  1
  C  C34  1  0.15749000  0.28451000  0.39703000  1
  C  C35  1  0.65750000  0.71550000  0.60297000  1
  C  C36  1  0.05054000  0.30927000  0.07066000  1
  C  C37  1  0.55048000  0.69074000  0.92932000  1
  C  C38  1  0.01677000  0.38194000  0.10767000  1
  C  C39  1  0.51667000  0.61808000  0.89232000  1
  C  C40  1  0.05718000  0.36334000  0.17718000  1
  C  C41  1  0.55710000  0.63669000  0.82281000  1
  C  C42  1  0.13876000  0.27172000  0.21113000  1
  C  C43  1  0.63871000  0.72830000  0.78887000  1
  C  C44  1  0.18720000  0.20087000  0.17145000  1
  C  C45  1  0.68719000  0.79913000  0.82855000  1
  C  C46  1  0.17078000  0.24718000  0.28323000  1
  C  C47  1  0.67076000  0.75284000  0.71677000  1
  C  C48  1  0.26156000  0.15571000  0.31290000  1
  C  C49  1  0.76157000  0.84430000  0.68710000  1
  C  C50  1  0.32203000  0.09206000  0.27197000  1
  C  C51  1  0.82205000  0.90794000  0.72804000  1
  C  C52  1  0.28276000  0.11319000  0.20265000  1
  C  C53  1  0.78281000  0.88680000  0.79736000  1
  C  C54  1  0.11751000  0.31037000  0.32707000  1
  C  C55  1  0.61748000  0.68965000  0.67292000  1
  C  C56  1  0.24361000  0.19325000  0.42507000  1
  C  C57  1  0.74366000  0.80675000  0.57493000  1
  C  C58  1  0.13398000  0.21834000  0.10179000  1
  C  C59  1  0.63396000  0.78166000  0.89821000  1
  C  C60  1  0.00402000  0.25450000  0.79462000  1
  C  C61  1  0.50370000  0.74573000  0.20546000  1
  C  C62  1  0.00536000  0.31908000  0.72969000  1
  C  C63  1  0.50502000  0.68116000  0.27039000  1
  C  C64  1  0.14754000  0.31383000  0.68325000  1
  C  C65  1  0.64754000  0.68616000  0.31675000  1
  C  C66  1  0.28425000  0.24092000  0.70214000  1
  C  C67  1  0.78465000  0.75882000  0.29778000  1
  C  C68  1  0.28077000  0.17286000  0.76579000  1
  C  C69  1  0.78123000  0.82688000  0.23413000  1
  C  C70  1  0.14226000  0.18131000  0.81443000  1
  C  C71  1  0.64232000  0.81869000  0.18557000  1
  C  C72  1  0.63145000  0.86228000  0.93608000  1
  C  C73  1  0.13146000  0.13772000  0.06392000  1
  C  C74  1  0.63532000  0.88495000  0.11534000  1
  C  C75  1  0.13531000  0.11506000  0.88466000  1
  S  S76  1  0.44269000  0.07408000  0.77833000  1
  S  S77  1  0.94377000  0.92538000  0.22154000  1
  O  O78  1  0.49319000  0.59970000  0.55044000  1
  O  O79  1  0.99319000  0.40030000  0.44956000  1
  O  O80  1  0.81994000  0.59576000  0.41204000  1
  O  O81  1  0.31994000  0.40424000  0.58796000  1
  O  O82  1  0.82257000  0.61170000  0.54762000  1
  O  O83  1  0.32257000  0.38830000  0.45238000  1
  O  O84  1  0.99811000  0.41635000  0.58610000  1
  O  O85  1  0.49811000  0.58365000  0.41390000  1
  O  O86  1  0.66251000  0.43589000  0.51247000  1
  O  O87  1  0.16251000  0.56411000  0.48753000  1
  O  O88  1  0.79663000  0.91626000  0.08608000  1
  O  O89  1  0.29663000  0.08374000  0.91392000  1
  O  O90  1  0.46446000  0.88829000  0.95238000  1
  O  O91  1  0.96446000  0.11171000  0.04762000  1
  O  O92  1  0.46722000  0.90422000  0.08796000  1
  O  O93  1  0.96722000  0.09578000  0.91204000  1
  O  O94  1  0.29184000  0.09972000  0.05045000  1
  O  O95  1  0.79184000  0.90028000  0.94955000  1
  O  O96  1  0.62470000  0.06406000  0.98752000  1
  O  O97  1  0.12470000  0.93594000  0.01248000  1
  O  O98  1  0.59253000  0.09353000  0.82548000  1
  O  O99  1  0.34941000  0.97643000  0.80916000  1
  O  O100  1  0.53574000  0.06588000  0.70294000  1
  O  O101  1  0.09295000  0.90588000  0.17414000  1
  O  O102  1  0.85079000  0.02324000  0.19096000  1
  O  O103  1  0.03779000  0.93317000  0.29687000  1
