# generated using pymatgen
data_VH10C12O7
_symmetry_space_group_name_H-M   'P 1'
_cell_length_a   7.04054000
_cell_length_b   14.56927000
_cell_length_c   16.04592000
_cell_angle_alpha   89.95011000
_cell_angle_beta   89.05651000
_cell_angle_gamma   89.16436000
_symmetry_Int_Tables_number   1
_chemical_formula_structural   VH10C12O7
_chemical_formula_sum   'V4 H40 C48 O28'
_cell_volume   1645.52021472
_cell_formula_units_Z   4
loop_
 _symmetry_equiv_pos_site_id
 _symmetry_equiv_pos_as_xyz
  1  'x, y, z'
loop_
 _atom_site_type_symbol
 _atom_site_label
 _atom_site_symmetry_multiplicity
 _atom_site_fract_x
 _atom_site_fract_y
 _atom_site_fract_z
 _atom_site_occupancy
  V  V0  1  0.93565000  0.51088000  0.50000000  1
  V  V1  1  0.43566000  0.48912000  0.50000000  1
  V  V2  1  0.32966000  0.98912000  1.00000000  1
  V  V3  1  0.82967000  0.01093000  0.00003000  1
  H  H4  1  0.73202000  0.13716000  0.27472000  1
  H  H5  1  0.73467000  0.23623000  0.19480000  1
  H  H6  1  0.73964000  0.24384000  0.38555000  1
  H  H7  1  0.77439000  0.34248000  0.31119000  1
  H  H8  1  0.58463000  0.29674000  0.70670000  1
  H  H9  1  0.56040000  0.19356000  0.83053000  1
  H  H10  1  0.87121000  0.74436000  0.13540000  1
  H  H11  1  0.21947000  0.88539000  0.26480000  1
  H  H12  1  0.22893000  0.69301000  0.33552000  1
  H  H13  1  0.19221000  0.64933000  0.72557000  1
  H  H14  1  0.44995000  0.36273000  0.13423000  1
  H  H15  1  0.56593000  0.45094000  0.19130000  1
  H  H16  1  0.31194000  0.44480000  0.19762000  1
  H  H17  1  0.66243000  0.22860000  0.97603000  1
  H  H18  1  0.64201000  0.34831000  0.00050000  1
  H  H19  1  0.75903000  0.31408000  0.90536000  1
  H  H20  1  0.89861000  0.63722000  0.25414000  1
  H  H21  1  0.33939000  0.64477000  0.20977000  1
  H  H22  1  0.38289000  0.70234000  0.11072000  1
  H  H23  1  0.16564000  0.64503000  0.13069000  1
  H  H24  1  0.33761000  0.72255000  0.49209000  1
  H  H25  1  0.08298000  0.72693000  0.46847000  1
  H  H26  1  0.18907000  0.81479000  0.52915000  1
  H  H27  1  0.92646000  0.74039000  0.65799000  1
  H  H28  1  0.53784000  0.02191000  0.24411000  1
  H  H29  1  0.28815000  0.03646000  0.24342000  1
  H  H30  1  0.42419000  0.09331000  0.32240000  1
  H  H31  1  0.82656000  0.98065000  0.71045000  1
  H  H32  1  0.98889000  0.90716000  0.64932000  1
  H  H33  1  0.07760000  0.98229000  0.72745000  1
  H  H34  1  0.17950000  0.75718000  0.83663000  1
  H  H35  1  0.64493000  0.64728000  0.87119000  1
  H  H36  1  0.48351000  0.55825000  0.90789000  1
  H  H37  1  0.59353000  0.63359000  0.97947000  1
  H  H38  1  0.38216000  0.58113000  0.77596000  1
  H  H39  1  0.84513000  0.15178000  0.76451000  1
  H  H40  1  0.86855000  0.26203000  0.64811000  1
  H  H41  1  0.80115000  0.40347000  0.78812000  1
  H  H42  1  0.70545000  0.51728000  0.77984000  1
  H  H43  1  0.70908000  0.44527000  0.68952000  1
  C  C44  1  0.65529000  0.61834000  0.38674000  1
  C  C45  1  0.65333000  0.61827000  0.61331000  1
  C  C46  1  0.15524000  0.38253000  0.61385000  1
  C  C47  1  0.15853000  0.38347000  0.38517000  1
  C  C48  1  0.00753000  0.24975000  0.31925000  1
  C  C49  1  0.15838000  0.30880000  0.32241000  1
  C  C50  1  0.31246000  0.28769000  0.26756000  1
  C  C51  1  0.30006000  0.21048000  0.21280000  1
  C  C52  1  0.12175000  0.18018000  0.18871000  1
  C  C53  1  0.98687000  0.19104000  0.25206000  1
  C  C54  1  0.78357000  0.20386000  0.25362000  1
  C  C55  1  0.80311000  0.26936000  0.32617000  1
  C  C56  1  0.27513000  0.23929000  0.80323000  1
  C  C57  1  0.11814000  0.18417000  0.81714000  1
  C  C58  1  0.96900000  0.19454000  0.75952000  1
  C  C59  1  0.98228000  0.25801000  0.69246000  1
  C  C60  1  0.14419000  0.31341000  0.68118000  1
  C  C61  1  0.28870000  0.29941000  0.73839000  1
  C  C62  1  0.48865000  0.32252000  0.75745000  1
  C  C63  1  0.46999000  0.25689000  0.83320000  1
  C  C64  1  0.51034000  0.75995000  0.31917000  1
  C  C65  1  0.64871000  0.68932000  0.32042000  1
  C  C66  1  0.78600000  0.68866000  0.25508000  1
  C  C67  1  0.77189000  0.75037000  0.18720000  1
  C  C68  1  0.62209000  0.81496000  0.18285000  1
  C  C69  1  0.49409000  0.81734000  0.25004000  1
  C  C70  1  0.28188000  0.81586000  0.25487000  1
  C  C71  1  0.29947000  0.76107000  0.33596000  1
  C  C72  1  0.47018000  0.71116000  0.72110000  1
  C  C73  1  0.63952000  0.69187000  0.67718000  1
  C  C74  1  0.79540000  0.74880000  0.69361000  1
  C  C75  1  0.78651000  0.81581000  0.75789000  1
  C  C76  1  0.62232000  0.82332000  0.81030000  1
  C  C77  1  0.46302000  0.77420000  0.78590000  1
  C  C78  1  0.31778000  0.71995000  0.83333000  1
  C  C79  1  0.32575000  0.65026000  0.76148000  1
  C  C80  1  0.61137000  0.88510000  0.88397000  1
  C  C81  1  0.61013000  0.88207000  0.11356000  1
  C  C82  1  0.10808000  0.11528000  0.11642000  1
  C  C83  1  0.10997000  0.11665000  0.88561000  1
  C  C84  1  0.44523000  0.40282000  0.19323000  1
  C  C85  1  0.63978000  0.29779000  0.94890000  1
  C  C86  1  0.27560000  0.68743000  0.16004000  1
  C  C87  1  0.21435000  0.76717000  0.47609000  1
  C  C88  1  0.42189000  0.07288000  0.25560000  1
  C  C89  1  0.95780000  0.93708000  0.71190000  1
  C  C90  1  0.53063000  0.62991000  0.91666000  1
  C  C91  1  0.68881000  0.44579000  0.75825000  1
  O  O92  1  0.49430000  0.58389000  0.58669000  1
  O  O93  1  0.82404000  0.59492000  0.41392000  1
  O  O94  1  0.99434000  0.41611000  0.41331000  1
  O  O95  1  0.82402000  0.59492000  0.58607000  1
  O  O96  1  0.99432000  0.41611000  0.58669000  1
  O  O97  1  0.49432000  0.58389000  0.41331000  1
  O  O98  1  0.66080000  0.44133000  0.50000000  1
  O  O99  1  0.32404000  0.40508000  0.58608000  1
  O  O100  1  0.32406000  0.40508000  0.41393000  1
  O  O101  1  0.16064000  0.55867000  0.50000000  1
  O  O102  1  0.77100000  0.91607000  0.08667000  1
  O  O103  1  0.44123000  0.90507000  0.91392000  1
  O  O104  1  0.27100000  0.08390000  0.91331000  1
  O  O105  1  0.44128000  0.90507000  0.08607000  1
  O  O106  1  0.27104000  0.08390000  0.08669000  1
  O  O107  1  0.77095000  0.91607000  0.91329000  1
  O  O108  1  0.60454000  0.05865000  0.99998000  1
  O  O109  1  0.94133000  0.09496000  0.08610000  1
  O  O110  1  0.94128000  0.09496000  0.91395000  1
  O  O111  1  0.10466000  0.94135000  0.00002000  1
  O  O112  1  0.46525000  0.34512000  0.26321000  1
  O  O113  1  0.46136000  0.30345000  0.91049000  1
  O  O114  1  0.18830000  0.77010000  0.18888000  1
  O  O115  1  0.25236000  0.81926000  0.40415000  1
  O  O116  1  0.45089000  0.15039000  0.20263000  1
  O  O117  1  0.94407000  0.86826000  0.77337000  1
  O  O118  1  0.37287000  0.69099000  0.91461000  1
  O  O119  1  0.50537000  0.41562000  0.78026000  1
