# generated using pymatgen
data_HC
_symmetry_space_group_name_H-M   'P 1'
_cell_length_a   14.58790000
_cell_length_b   22.71162500
_cell_length_c   22.71160000
_cell_angle_alpha   119.99989076
_cell_angle_beta   90.00000000
_cell_angle_gamma   90.00000000
_symmetry_Int_Tables_number   1
_chemical_formula_structural   HC
_chemical_formula_sum   'H144 C144'
_cell_volume   6516.58143495
_cell_formula_units_Z   144
loop_
 _symmetry_equiv_pos_site_id
 _symmetry_equiv_pos_as_xyz
  1  'x, y, z'
loop_
 _atom_site_type_symbol
 _atom_site_label
 _atom_site_symmetry_multiplicity
 _atom_site_fract_x
 _atom_site_fract_y
 _atom_site_fract_z
 _atom_site_occupancy
  C  1  1  0.96778300  0.63926250  0.67898850  1
  C  2  1  0.90058750  0.59595600  0.61843000  1
  C  3  1  0.97886900  0.71183100  0.68580200  1
  C  4  1  0.01455500  0.70794750  0.61763050  1
  C  7  1  0.93668800  0.66638850  0.56505150  1
  C  8  1  0.93018750  0.59113600  0.55007300  1
  C  13  1  0.02987700  0.56012400  0.53089100  1
  C  14  1  0.10174700  0.59526850  0.59079150  1
  C  17  1  0.10894100  0.66949450  0.60247850  1
  C  20  1  0.06644400  0.60688900  0.66109400  1
  C  23  1  0.63330200  0.05983300  0.37741400  1
  C  24  1  0.56647400  0.04210700  0.42056100  1
  C  25  1  0.64495600  0.99419100  0.30480100  1
  C  26  1  0.68144450  0.93005150  0.30863650  1
  C  29  1  0.60386950  0.91850950  0.35003050  1
  C  30  1  0.59689450  0.97867500  0.42529800  1
  C  35  1  0.69661350  0.99108100  0.45641400  1
  C  36  1  0.76807100  0.01629750  0.42141750  1
  C  39  1  0.77568650  0.95388900  0.34716200  1
  C  42  1  0.73187600  0.07488000  0.40998100  1
  C  45  1  0.30119300  0.33742650  0.95593950  1
  C  46  1  0.23425100  0.39823050  0.97361350  1
  C  47  1  0.31275700  0.33041500  0.02156000  1
  C  48  1  0.34906500  0.39839950  0.08575650  1
  C  51  1  0.27139800  0.45126050  0.09726050  1
  C  52  1  0.26445100  0.46641150  0.03712450  1
  C  57  1  0.36414200  0.48525300  0.02483100  1
  C  58  1  0.43575600  0.42514150  0.99967850  1
  C  61  1  0.44330900  0.41323650  0.06205050  1
  C  64  1  0.39977900  0.35507750  0.94103350  1
  C  67  1  0.46778800  0.38504300  0.32911400  1
  C  68  1  0.40058900  0.42834600  0.38966900  1
  C  69  1  0.47887800  0.31247550  0.32230550  1
  C  70  1  0.51456000  0.31636250  0.39048150  1
  C  73  1  0.43668800  0.35792100  0.44305800  1
  C  74  1  0.43018300  0.43317400  0.45803300  1
  C  79  1  0.52987200  0.46419050  0.47721350  1
  C  80  1  0.60174800  0.42904650  0.41731650  1
  C  83  1  0.60894500  0.35482250  0.40563150  1
  C  86  1  0.56645200  0.41742000  0.34701100  1
  C  89  1  0.13330100  0.96447800  0.63071300  1
  C  90  1  0.06648900  0.98221100  0.58755800  1
  C  91  1  0.14497100  0.03012300  0.70332100  1
  C  92  1  0.18149100  0.09425000  0.69947500  1
  C  95  1  0.10394100  0.10580500  0.65807600  1
  C  96  1  0.09694200  0.04563000  0.58281300  1
  C  101  1  0.19665500  0.03315850  0.55167750  1
  C  102  1  0.26810400  0.00796500  0.58669900  1
  C  105  1  0.27572300  0.07039350  0.66094250  1
  C  108  1  0.23188600  0.94940800  0.59816600  1
  C  111  1  0.80119450  0.68688950  0.05216550  1
  C  112  1  0.73424500  0.62609200  0.03448700  1
  C  113  1  0.81275750  0.69390650  0.98654550  1
  C  114  1  0.84904900  0.62591900  0.92234400  1
  C  117  1  0.77137400  0.57306600  0.91084300  1
  C  118  1  0.76443600  0.55790700  0.97097500  1
  C  123  1  0.86413000  0.53904550  0.98323850  1
  C  124  1  0.93574400  0.59916100  0.00840900  1
  C  127  1  0.94329750  0.61108350  0.94604850  1
  C  130  1  0.89976850  0.66921950  0.06706950  1
  C  133  1  0.35778800  0.47647150  0.51046750  1
  C  134  1  0.28135100  0.44788000  0.52551700  1
  C  135  1  0.19819300  0.48349900  0.55386100  1
  C  136  1  0.19079700  0.55370900  0.57123800  1
  C  137  1  0.27296500  0.58436000  0.56599500  1
  C  139  1  0.35172000  0.54691400  0.53444700  1
  C  142  1  0.12564100  0.43900500  0.55828800  1
  C  146  1  0.02467000  0.05535550  0.53979850  1
  C  147  1  0.94773400  0.09838150  0.56874750  1
  C  148  1  0.86443900  0.09109750  0.53327750  1
  C  149  1  0.85720000  0.03868600  0.46290200  1
  C  150  1  0.93970250  0.00348850  0.43199150  1
  C  152  1  0.01881600  0.00959800  0.46918600  1
  C  155  1  0.79172100  0.13965550  0.57798450  1
  C  159  1  0.69200900  0.50526000  0.96129300  1
  C  160  1  0.61536800  0.49084700  0.91795600  1
  C  161  1  0.53215700  0.46246300  0.92508900  1
  C  162  1  0.52487000  0.44445350  0.97747050  1
  C  163  1  0.60726700  0.44899150  0.01287950  1
  C  165  1  0.68614800  0.48052850  0.00714950  1
  C  168  1  0.45955000  0.45843200  0.87638000  1
  C  172  1  0.85779000  0.54784350  0.49763650  1
  C  173  1  0.78134100  0.57644100  0.48261200  1
  C  174  1  0.69816300  0.54083650  0.45431250  1
  C  175  1  0.69079600  0.47060500  0.43686200  1
  C  176  1  0.77295800  0.43996750  0.44215050  1
  C  178  1  0.85175700  0.47738950  0.47361850  1
  C  181  1  0.62564400  0.58529750  0.44979250  1
  C  185  1  0.52458050  0.96891550  0.46827050  1
  C  186  1  0.44777200  0.92575850  0.43937350  1
  C  187  1  0.36449000  0.93306750  0.47486650  1
  C  188  1  0.35723600  0.98555950  0.54521450  1
  C  189  1  0.43975900  0.02071500  0.57614600  1
  C  191  1  0.51868550  0.01482200  0.53885000  1
  C  194  1  0.29177100  0.88449550  0.43017450  1
  C  198  1  0.19207900  0.51907250  0.04676950  1
  C  199  1  0.11537500  0.53340650  0.09005950  1
  C  200  1  0.03218700  0.56187000  0.08300500  1
  C  201  1  0.02486500  0.57984300  0.03060000  1
  C  202  1  0.10727900  0.57540300  0.99525400  1
  C  204  1  0.18618700  0.54389600  0.00099600  1
  C  207  1  0.95953600  0.56573600  0.13161200  1
  C  211  1  0.09576500  0.90113200  0.62898000  1
  C  212  1  0.08908900  0.83999800  0.56589300  1
  C  213  1  0.06417200  0.77649200  0.55825700  1
  C  214  1  0.03414000  0.77398100  0.61748900  1
  C  215  1  0.03235500  0.83683000  0.68000200  1
  C  217  1  0.06398700  0.89811000  0.68600700  1
  C  220  1  0.07778750  0.71984850  0.48613550  1
  C  224  1  0.76377000  0.74851800  0.11554800  1
  C  225  1  0.75739050  0.74660800  0.17671200  1
  C  226  1  0.73226750  0.80241650  0.24019250  1
  C  227  1  0.70164550  0.86400750  0.24264050  1
  C  228  1  0.69973650  0.86366600  0.17979800  1
  C  230  1  0.73165150  0.80849000  0.11855200  1
  C  233  1  0.74632400  0.78706700  0.29688500  1
  C  237  1  0.43092300  0.38676450  0.26733150  1
  C  238  1  0.42484800  0.44983000  0.26918800  1
  C  239  1  0.39971800  0.45754200  0.21340900  1
  C  240  1  0.36916000  0.39840800  0.15179100  1
  C  241  1  0.36710800  0.33590400  0.15212700  1
  C  243  1  0.39879200  0.32981950  0.20734850  1
  C  246  1  0.41386750  0.52959100  0.22879400  1
  C  250  1  0.59579050  0.12318500  0.37914400  1
  C  251  1  0.58918250  0.18433500  0.44221800  1
  C  252  1  0.56420350  0.24783400  0.44986600  1
  C  253  1  0.53418500  0.25033100  0.39062500  1
  C  254  1  0.53234700  0.18748100  0.32811800  1
  C  256  1  0.56397800  0.12620200  0.32211800  1
  C  259  1  0.57780300  0.30448000  0.52198800  1
  C  263  1  0.26377050  0.27579900  0.89255500  1
  C  264  1  0.25739000  0.27771000  0.83138900  1
  C  265  1  0.23233900  0.22188400  0.76790100  1
  C  266  1  0.20170900  0.16030200  0.76546300  1
  C  267  1  0.19976000  0.16064600  0.82830700  1
  C  269  1  0.23165450  0.21582800  0.88955500  1
  C  272  1  0.24639300  0.23723500  0.71121000  1
  C  276  1  0.93091850  0.63754800  0.74077400  1
  C  277  1  0.92484450  0.57448500  0.73892100  1
  C  278  1  0.89977400  0.56678200  0.79471500  1
  C  279  1  0.86916900  0.62591800  0.85631600  1
  C  280  1  0.86705600  0.68841250  0.85596550  1
  C  282  1  0.89873500  0.69448800  0.80074000  1
  C  285  1  0.91381100  0.49471900  0.77931200  1
  H  5  1  0.02659600  0.74146150  0.72751450  1
  H  6  1  0.91321900  0.73873800  0.70037200  1
  H  9  1  0.87204700  0.69335050  0.58603750  1
  H  10  1  0.94284400  0.66472350  0.51685150  1
  H  11  1  0.83174600  0.61812700  0.63247300  1
  H  12  1  0.89530700  0.54422350  0.60964350  1
  H  15  1  0.05381700  0.56320600  0.48682500  1
  H  16  1  0.02822800  0.50643150  0.51295750  1
  H  18  1  0.14180100  0.66628800  0.55818700  1
  H  19  1  0.15545300  0.70011600  0.64494100  1
  H  21  1  0.06907300  0.56008900  0.66227800  1
  H  22  1  0.11421300  0.63999150  0.70144150  1
  H  27  1  0.69244000  0.00659800  0.27528300  1
  H  28  1  0.57937300  0.98151700  0.27779100  1
  H  31  1  0.53927850  0.91221000  0.32292700  1
  H  32  1  0.61049550  0.87197050  0.35164550  1
  H  33  1  0.49766400  0.03362550  0.39828550  1
  H  34  1  0.56083850  0.08493900  0.47233400  1
  H  37  1  0.72114100  0.94409250  0.45338950  1
  H  38  1  0.69475600  0.02688400  0.51007600  1
  H  40  1  0.80922050  0.91298750  0.35031550  1
  H  41  1  0.82177300  0.96609950  0.31659050  1
  H  43  1  0.73393850  0.12276950  0.45691550  1
  H  44  1  0.77942350  0.08259700  0.37706600  1
  H  49  1  0.36030250  0.28852900  0.00918500  1
  H  50  1  0.24716900  0.31600900  0.03415400  1
  H  53  1  0.20682550  0.43037300  0.10347400  1
  H  54  1  0.27792100  0.49940200  0.14383300  1
  H  55  1  0.16544100  0.38434800  0.98199300  1
  H  56  1  0.22869100  0.40718850  0.93078450  1
  H  59  1  0.38853700  0.52924250  0.07185350  1
  H  60  1  0.36227500  0.50310900  0.98902600  1
  H  62  1  0.47669200  0.45732500  0.10301000  1
  H  63  1  0.48951100  0.37052450  0.04987450  1
  H  65  1  0.40196250  0.35414600  0.89315900  1
  H  66  1  0.44739550  0.31450300  0.93336800  1
  H  71  1  0.52660900  0.28284450  0.28059450  1
  H  72  1  0.41322800  0.28556750  0.30773250  1
  H  75  1  0.37205000  0.33095950  0.42207250  1
  H  76  1  0.44284850  0.35959000  0.49125900  1
  H  77  1  0.33174900  0.40617200  0.37562700  1
  H  78  1  0.39530200  0.48007550  0.39845250  1
  H  81  1  0.55381100  0.46111400  0.52128100  1
  H  82  1  0.52821400  0.51788300  0.49514000  1
  H  84  1  0.64180300  0.35803500  0.44992800  1
  H  85  1  0.65545700  0.32419850  0.36317050  1
  H  87  1  0.56908300  0.46421550  0.34581850  1
  H  88  1  0.61422400  0.38431450  0.30666550  1
  H  93  1  0.19244300  0.01771400  0.73284300  1
  H  94  1  0.07938700  0.04281000  0.73033000  1
  H  97  1  0.03936300  0.11212650  0.68519950  1
  H  98  1  0.11058000  0.15233100  0.65644000  1
  H  99  1  0.99768000  0.99071050  0.60983750  1
  H  100  1  0.06083700  0.93938300  0.53578200  1
  H  103  1  0.22121300  0.08011550  0.55464950  1
  H  104  1  0.19477300  0.99730300  0.49803100  1
  H  106  1  0.30923700  0.11128750  0.65776450  1
  H  107  1  0.32182450  0.05820150  0.69151850  1
  H  109  1  0.23395900  0.90150050  0.55124950  1
  H  110  1  0.27941500  0.94171050  0.63110150  1
  H  115  1  0.86030600  0.73578800  0.99891800  1
  H  116  1  0.74716900  0.70831600  0.97395700  1
  H  119  1  0.70679600  0.59395650  0.90463850  1
  H  120  1  0.77789300  0.52493000  0.86426700  1
  H  121  1  0.66543700  0.63998050  0.02611550  1
  H  122  1  0.72868550  0.61713750  0.07731950  1
  H  125  1  0.88851600  0.49507100  0.93620300  1
  H  126  1  0.86227900  0.52115050  0.01901250  1
  H  128  1  0.97669600  0.56700700  0.90509300  1
  H  129  1  0.98948700  0.65380600  0.95824100  1
  H  131  1  0.90193200  0.67012500  0.11493200  1
  H  132  1  0.94739400  0.70979600  0.07475200  1
  H  138  1  0.28291500  0.39745250  0.51064550  1
  H  140  1  0.27647100  0.63437550  0.57980850  1
  H  141  1  0.40152000  0.57200400  0.52424200  1
  H  143  1  0.14864900  0.42159150  0.59279450  1
  H  144  1  0.11470000  0.39445950  0.50812450  1
  H  145  1  0.05883200  0.46168400  0.57584300  1
  H  151  1  0.94920700  0.13363600  0.61926900  1
  H  153  1  0.94333950  0.96774100  0.38183000  1
  H  154  1  0.06872000  0.97453900  0.44375700  1
  H  156  1  0.81453600  0.19171400  0.59588200  1
  H  157  1  0.78083500  0.13350800  0.62221800  1
  H  158  1  0.72493900  0.13463400  0.55530700  1
  H  164  1  0.61691150  0.50611900  0.88270600  1
  H  166  1  0.61091400  0.43461100  0.04865200  1
  H  167  1  0.73604500  0.49024250  0.04223550  1
  H  169  1  0.48255300  0.42428350  0.82437150  1
  H  170  1  0.44852500  0.50877600  0.88246600  1
  H  171  1  0.39280000  0.44067300  0.88131000  1
  H  177  1  0.78289200  0.62687250  0.49749150  1
  H  179  1  0.77645900  0.38993250  0.42825350  1
  H  180  1  0.90153200  0.45231700  0.48386000  1
  H  182  1  0.64868600  0.60264550  0.41523850  1
  H  183  1  0.61469500  0.62988600  0.49992300  1
  H  184  1  0.55882900  0.56262100  0.43224800  1
  H  190  1  0.44929200  0.89044450  0.38886950  1
  H  192  1  0.44334700  0.05667750  0.62623450  1
  H  193  1  0.56859750  0.04989000  0.56423800  1
  H  195  1  0.31455700  0.83244450  0.41234950  1
  H  196  1  0.28093300  0.89057300  0.38589200  1
  H  197  1  0.22496600  0.88956600  0.45283400  1
  H  203  1  0.11690100  0.51809350  0.12527650  1
  H  205  1  0.11092300  0.58981500  0.95950400  1
  H  206  1  0.23611500  0.53425150  0.96594750  1
  H  208  1  0.98250900  0.59975950  0.18365650  1
  H  209  1  0.94848100  0.51532600  0.12535300  1
  H  210  1  0.89280550  0.58356500  0.12673800  1
  H  216  1  0.10800600  0.84075000  0.52295200  1
  H  218  1  0.01149800  0.83926150  0.72396650  1
  H  219  1  0.06406900  0.94043200  0.73316900  1
  H  221  1  0.14705200  0.72237100  0.46909400  1
  H  222  1  0.02897100  0.72593600  0.45308200  1
  H  223  1  0.07084100  0.66841450  0.47640450  1
  H  229  1  0.77641750  0.70293650  0.17596650  1
  H  231  1  0.67856500  0.90512800  0.17735200  1
  H  232  1  0.73152700  0.81330350  0.07621450  1
  H  234  1  0.81576750  0.76779000  0.29437500  1
  H  235  1  0.69786550  0.74774500  0.29084900  1
  H  236  1  0.73922150  0.82878800  0.34829600  1
  H  242  1  0.44402900  0.49272750  0.31282750  1
  H  244  1  0.34590800  0.29201100  0.11065400  1
  H  245  1  0.39844400  0.28268850  0.20258150  1
  H  247  1  0.48342050  0.54622750  0.24787450  1
  H  248  1  0.36562850  0.56292400  0.26827900  1
  H  249  1  0.40651100  0.53937950  0.18715450  1
  H  255  1  0.60803450  0.18357400  0.48516900  1
  H  257  1  0.51146300  0.18504500  0.28415800  1
  H  258  1  0.56401900  0.08387300  0.27496000  1
  H  260  1  0.64706750  0.30196800  0.53903700  1
  H  261  1  0.52898800  0.29838400  0.55503600  1
  H  262  1  0.57084650  0.35591200  0.53171600  1
  H  268  1  0.27643300  0.32138150  0.83214250  1
  H  270  1  0.17858500  0.11918400  0.83075500  1
  H  271  1  0.23152600  0.21101900  0.93189400  1
  H  273  1  0.31583000  0.25652800  0.71373400  1
  H  274  1  0.19791750  0.27654450  0.71723550  1
  H  275  1  0.23931700  0.19550850  0.65979750  1
  H  281  1  0.94402500  0.53158500  0.69528200  1
  H  283  1  0.84580500  0.73229200  0.89742800  1
  H  284  1  0.89836900  0.74161400  0.80549900  1
  H  286  1  0.98332350  0.47801700  0.76016800  1
  H  287  1  0.86548750  0.46143500  0.73986900  1
  H  288  1  0.90649350  0.48494050  0.82096150  1
