# generated using pymatgen
data_Cd3H12C32(NO5)4
_symmetry_space_group_name_H-M   'P 1'
_cell_length_a   9.91747000
_cell_length_b   10.58350000
_cell_length_c   12.56868000
_cell_angle_alpha   111.55348000
_cell_angle_beta   101.36126000
_cell_angle_gamma   94.05169000
_symmetry_Int_Tables_number   1
_chemical_formula_structural   Cd3H12C32(NO5)4
_chemical_formula_sum   'Cd3 H12 C32 N4 O20'
_cell_volume   1188.04796311
_cell_formula_units_Z   1
loop_
 _symmetry_equiv_pos_site_id
 _symmetry_equiv_pos_as_xyz
  1  'x, y, z'
loop_
 _atom_site_type_symbol
 _atom_site_label
 _atom_site_symmetry_multiplicity
 _atom_site_fract_x
 _atom_site_fract_y
 _atom_site_fract_z
 _atom_site_occupancy
  Cd  Cd0  1  0.45235000  0.16851000  0.24811000  1
  Cd  Cd1  1  0.54765000  0.83149000  0.75189000  1
  Cd  Cd2  1  0.50000000  0.50000000  0.50000000  1
  H  H3  1  0.87949000  0.44450000  0.64077000  1
  H  H4  1  0.29495000  0.37385000  0.59968000  1
  H  H5  1  0.94530000  0.21905000  0.29684000  1
  H  H6  1  0.29999000  0.72545000  0.93175000  1
  H  H7  1  0.46503000  0.72185000  0.27378000  1
  H  H8  1  0.31091000  0.33737000  0.97707000  1
  H  H9  1  0.12051000  0.55550000  0.35923000  1
  H  H10  1  0.70505000  0.62615000  0.40032000  1
  H  H11  1  0.05469000  0.78095000  0.70316000  1
  H  H12  1  0.70000000  0.27455000  0.06825000  1
  H  H13  1  0.53497000  0.27814000  0.72622000  1
  H  H14  1  0.68909000  0.66262000  0.02293000  1
  C  C15  1  0.73984000  0.31666000  0.41665000  1
  C  C16  1  0.89525000  0.33100000  0.46345000  1
  C  C17  1  0.94871000  0.40150000  0.58432000  1
  C  C18  1  0.09109000  0.41210000  0.63199000  1
  C  C19  1  0.18376000  0.35976000  0.56155000  1
  C  C20  1  0.13007000  0.29390000  0.44029000  1
  C  C21  1  0.98584000  0.27622000  0.39123000  1
  C  C22  1  0.22652000  0.23841000  0.36175000  1
  C  C23  1  0.29716000  0.52285000  0.94230000  1
  C  C24  1  0.32352000  0.66730000  0.98688000  1
  C  C25  1  0.38575000  0.73783000  0.10655000  1
  C  C26  1  0.41993000  0.66568000  0.17988000  1
  C  C27  1  0.39346000  0.52117000  0.13303000  1
  C  C28  1  0.33229000  0.44912000  0.01368000  1
  C  C29  1  0.43017000  0.44211000  0.21037000  1
  C  C30  1  0.41387000  0.89183000  0.15620000  1
  C  C31  1  0.26015000  0.68333000  0.58335000  1
  C  C32  1  0.10474000  0.66900000  0.53655000  1
  C  C33  1  0.05129000  0.59849000  0.41568000  1
  C  C34  1  0.90890000  0.58790000  0.36801000  1
  C  C35  1  0.81623000  0.64023000  0.43845000  1
  C  C36  1  0.86992000  0.70610000  0.55971000  1
  C  C37  1  0.01415000  0.72378000  0.60877000  1
  C  C38  1  0.77347000  0.76158000  0.63825000  1
  C  C39  1  0.70283000  0.47715000  0.05769000  1
  C  C40  1  0.67647000  0.33269000  0.01311000  1
  C  C41  1  0.61424000  0.26216000  0.89345000  1
  C  C42  1  0.58007000  0.33431000  0.82012000  1
  C  C43  1  0.60654000  0.47882000  0.86697000  1
  C  C44  1  0.66771000  0.55088000  0.98632000  1
  C  C45  1  0.56982000  0.55789000  0.78963000  1
  C  C46  1  0.58612000  0.10816000  0.84380000  1
  N  N47  1  0.13688000  0.48831000  0.75582000  1
  N  N48  1  0.24156000  0.44054000  0.82036000  1
  N  N49  1  0.86311000  0.51169000  0.24418000  1
  N  N50  1  0.75843000  0.55945000  0.17964000  1
  O  O51  1  0.68910000  0.24972000  0.30672000  1
  O  O52  1  0.67384000  0.37361000  0.49413000  1
  O  O53  1  0.17940000  0.14899000  0.26077000  1
  O  O54  1  0.35911000  0.28618000  0.40592000  1
  O  O55  1  0.39435000  0.31244000  0.15912000  1
  O  O56  1  0.49422000  0.51185000  0.31683000  1
  O  O57  1  0.38904000  0.95352000  0.08610000  1
  O  O58  1  0.46054000  0.95583000  0.26728000  1
  O  O59  1  0.08005000  0.58541000  0.80957000  1
  O  O60  1  0.27235000  0.32425000  0.77218000  1
  O  O61  1  0.31090000  0.75028000  0.69327000  1
  O  O62  1  0.32615000  0.62638000  0.50586000  1
  O  O63  1  0.82060000  0.85101000  0.73922000  1
  O  O64  1  0.64088000  0.71382000  0.59408000  1
  O  O65  1  0.60564000  0.68756000  0.84088000  1
  O  O66  1  0.50578000  0.48815000  0.68317000  1
  O  O67  1  0.61096000  0.04648000  0.91390000  1
  O  O68  1  0.53945000  0.04416000  0.73272000  1
  O  O69  1  0.91994000  0.41458000  0.19043000  1
  O  O70  1  0.72764000  0.67574000  0.22782000  1
