# generated using pymatgen
data_Cd3H16(CO)28
_symmetry_space_group_name_H-M   'P 1'
_cell_length_a   8.80491000
_cell_length_b   18.30508000
_cell_length_c   19.81166000
_cell_angle_alpha   102.65204000
_cell_angle_beta   89.95727000
_cell_angle_gamma   89.97987000
_symmetry_Int_Tables_number   1
_chemical_formula_structural   Cd3H16(CO)28
_chemical_formula_sum   'Cd6 H32 C56 O56'
_cell_volume   3115.59971300
_cell_formula_units_Z   2
loop_
 _symmetry_equiv_pos_site_id
 _symmetry_equiv_pos_as_xyz
  1  'x, y, z'
loop_
 _atom_site_type_symbol
 _atom_site_label
 _atom_site_symmetry_multiplicity
 _atom_site_fract_x
 _atom_site_fract_y
 _atom_site_fract_z
 _atom_site_occupancy
  Cd  Cd0  1  0.10109000  0.21105000  0.04253000  1
  Cd  Cd1  1  0.60073000  0.78886000  0.45740000  1
  Cd  Cd2  1  0.89891000  0.78896000  0.95747000  1
  Cd  Cd3  1  0.39927000  0.21114000  0.54259000  1
  Cd  Cd4  1  0.00000000  0.00000000  0.00000000  1
  Cd  Cd5  1  0.50000000  0.00000000  0.50000000  1
  H  H6  1  0.35540000  0.97970000  0.95227000  1
  H  H7  1  0.50070000  0.04091000  0.93261000  1
  H  H8  1  0.33922000  0.02105000  0.87900000  1
  H  H9  1  0.89641000  0.24468000  0.89902000  1
  H  H10  1  0.55676000  0.00241000  0.67045000  1
  H  H11  1  0.76200000  0.01262000  0.88867000  1
  H  H12  1  0.64730000  0.24023000  0.69108000  1
  H  H13  1  0.75516000  0.63251000  0.03706000  1
  H  H14  1  0.85622000  0.02012000  0.54801000  1
  H  H15  1  0.00102000  0.95836000  0.56733000  1
  H  H16  1  0.83865000  0.97804000  0.62073000  1
  H  H17  1  0.39582000  0.75562000  0.60073000  1
  H  H18  1  0.05724000  0.99716000  0.83075000  1
  H  H19  1  0.26061000  0.98753000  0.61218000  1
  H  H20  1  0.15400000  0.75965000  0.81045000  1
  H  H21  1  0.25475000  0.36765000  0.46296000  1
  H  H22  1  0.64460000  0.02030000  0.04772000  1
  H  H23  1  0.49929000  0.95909000  0.06739000  1
  H  H24  1  0.66077000  0.97895000  0.12100000  1
  H  H25  1  0.10359000  0.75532000  0.10098000  1
  H  H26  1  0.44324000  0.99759000  0.32954000  1
  H  H27  1  0.23800000  0.98739000  0.11133000  1
  H  H28  1  0.35269000  0.75977000  0.30892000  1
  H  H29  1  0.24483000  0.36749000  0.96294000  1
  H  H30  1  0.14378000  0.97988000  0.45199000  1
  H  H31  1  0.99898000  0.04165000  0.43266000  1
  H  H32  1  0.16135000  0.02197000  0.37927000  1
  H  H33  1  0.60418000  0.24438000  0.39927000  1
  H  H34  1  0.94276000  0.00284000  0.16925000  1
  H  H35  1  0.73939000  0.01247000  0.38782000  1
  H  H36  1  0.84600000  0.24035000  0.18954000  1
  H  H37  1  0.74525000  0.63236000  0.53704000  1
  C  C38  1  0.57597000  0.11765000  0.65301000  1
  C  C39  1  0.78260000  0.12746000  0.85350000  1
  C  C40  1  0.64921000  0.05685000  0.75007000  1
  C  C41  1  0.71577000  0.06018000  0.81688000  1
  C  C42  1  0.29960000  0.09841000  0.97467000  1
  C  C43  1  0.70816000  0.18943000  0.75927000  1
  C  C44  1  0.85584000  0.13027000  0.92134000  1
  C  C45  1  0.90904000  0.47593000  0.05373000  1
  C  C46  1  0.37845000  0.03021000  0.93290000  1
  C  C47  1  0.78256000  0.19172000  0.82471000  1
  C  C48  1  0.64519000  0.12149000  0.72194000  1
  C  C49  1  0.06650000  0.35593000  0.03779000  1
  C  C50  1  0.03423000  0.42912000  0.02107000  1
  C  C51  1  0.87646000  0.54734000  0.02818000  1
  C  C52  1  0.07727000  0.88219000  0.84799000  1
  C  C53  1  0.28254000  0.87264000  0.64715000  1
  C  C54  1  0.15004000  0.94309000  0.75099000  1
  C  C55  1  0.21623000  0.93995000  0.68411000  1
  C  C56  1  0.79966000  0.90150000  0.52494000  1
  C  C57  1  0.21170000  0.81071000  0.74192000  1
  C  C58  1  0.35583000  0.87003000  0.57932000  1
  C  C59  1  0.40775000  0.52422000  0.44683000  1
  C  C60  1  0.87885000  0.96931000  0.56697000  1
  C  C61  1  0.28356000  0.80829000  0.67584000  1
  C  C62  1  0.14740000  0.87846000  0.77920000  1
  C  C63  1  0.56605000  0.64404000  0.46208000  1
  C  C64  1  0.53412000  0.57078000  0.47868000  1
  C  C65  1  0.37658000  0.45256000  0.47199000  1
  C  C66  1  0.42402000  0.88235000  0.34699000  1
  C  C67  1  0.21740000  0.87255000  0.14649000  1
  C  C68  1  0.35079000  0.94315000  0.24993000  1
  C  C69  1  0.28422000  0.93983000  0.18311000  1
  C  C70  1  0.70040000  0.90159000  0.02533000  1
  C  C71  1  0.29183000  0.81057000  0.24073000  1
  C  C72  1  0.14416000  0.86973000  0.07866000  1
  C  C73  1  0.09096000  0.52407000  0.94627000  1
  C  C74  1  0.62155000  0.96979000  0.06709000  1
  C  C75  1  0.21744000  0.80828000  0.17529000  1
  C  C76  1  0.35481000  0.87852000  0.27806000  1
  C  C77  1  0.93349000  0.64408000  0.96221000  1
  C  C78  1  0.96577000  0.57088000  0.97892000  1
  C  C79  1  0.12354000  0.45266000  0.97182000  1
  C  C80  1  0.92273000  0.11781000  0.15201000  1
  C  C81  1  0.71746000  0.12736000  0.35285000  1
  C  C82  1  0.84996000  0.05691000  0.24901000  1
  C  C83  1  0.78376000  0.06005000  0.31589000  1
  C  C84  1  0.20034000  0.09851000  0.47506000  1
  C  C85  1  0.78829000  0.18929000  0.25808000  1
  C  C86  1  0.64416000  0.12998000  0.42068000  1
  C  C87  1  0.59224000  0.47578000  0.55317000  1
  C  C88  1  0.12115000  0.03070000  0.43302000  1
  C  C89  1  0.71644000  0.19172000  0.32416000  1
  C  C90  1  0.85259000  0.12155000  0.22080000  1
  C  C91  1  0.43394000  0.35596000  0.53792000  1
  C  C92  1  0.46587000  0.42922000  0.52132000  1
  C  C93  1  0.62341000  0.54744000  0.52800000  1
  O  O94  1  0.83968000  0.07299000  0.94848000  1
  O  O95  1  0.55989000  0.17802000  0.63176000  1
  O  O96  1  0.93077000  0.18892000  0.94862000  1
  O  O97  1  0.53766000  0.05195000  0.61871000  1
  O  O98  1  0.18169000  0.08860000  0.01331000  1
  O  O99  1  0.18264000  0.31864000  0.00640000  1
  O  O100  1  0.98458000  0.32639000  0.07736000  1
  O  O101  1  0.84827000  0.25543000  0.85531000  1
  O  O102  1  0.59119000  0.99166000  0.71712000  1
  O  O103  1  0.82974000  0.46284000  0.10088000  1
  O  O104  1  0.71157000  0.99797000  0.84126000  1
  O  O105  1  0.70456000  0.25230000  0.73676000  1
  O  O106  1  0.75837000  0.58473000  0.05798000  1
  O  O107  1  0.34110000  0.16293000  0.97329000  1
  O  O108  1  0.33950000  0.92738000  0.55236000  1
  O  O109  1  0.06049000  0.82183000  0.86904000  1
  O  O110  1  0.43137000  0.81143000  0.55213000  1
  O  O111  1  0.03821000  0.94792000  0.88228000  1
  O  O112  1  0.68017000  0.91166000  0.48758000  1
  O  O113  1  0.68322000  0.68099000  0.49260000  1
  O  O114  1  0.48267000  0.67393000  0.42337000  1
  O  O115  1  0.34831000  0.74453000  0.64453000  1
  O  O116  1  0.09133000  0.00813000  0.78406000  1
  O  O117  1  0.32565000  0.53765000  0.40082000  1
  O  O118  1  0.21187000  0.00232000  0.65997000  1
  O  O119  1  0.21161000  0.74805000  0.76493000  1
  O  O120  1  0.25937000  0.41492000  0.44153000  1
  O  O121  1  0.84180000  0.83677000  0.52511000  1
  O  O122  1  0.16032000  0.92701000  0.05152000  1
  O  O123  1  0.44011000  0.82198000  0.36824000  1
  O  O124  1  0.06922000  0.81108000  0.05138000  1
  O  O125  1  0.46234000  0.94806000  0.38129000  1
  O  O126  1  0.81831000  0.91141000  0.98669000  1
  O  O127  1  0.81736000  0.68137000  0.99360000  1
  O  O128  1  0.01542000  0.67362000  0.92264000  1
  O  O129  1  0.15173000  0.74457000  0.14469000  1
  O  O130  1  0.40881000  0.00834000  0.28288000  1
  O  O131  1  0.17025000  0.53717000  0.89912000  1
  O  O132  1  0.28842000  0.00203000  0.15874000  1
  O  O133  1  0.29543000  0.74770000  0.26324000  1
  O  O134  1  0.24163000  0.41527000  0.94202000  1
  O  O135  1  0.65889000  0.83707000  0.02671000  1
  O  O136  1  0.66050000  0.07262000  0.44764000  1
  O  O137  1  0.93950000  0.17817000  0.13096000  1
  O  O138  1  0.56862000  0.18857000  0.44787000  1
  O  O139  1  0.96179000  0.05209000  0.11772000  1
  O  O140  1  0.31983000  0.08834000  0.51241000  1
  O  O141  1  0.31677000  0.31901000  0.50740000  1
  O  O142  1  0.51733000  0.32608000  0.57662000  1
  O  O143  1  0.65169000  0.25547000  0.35546000  1
  O  O144  1  0.90867000  0.99187000  0.21593000  1
  O  O145  1  0.67434000  0.46235000  0.59917000  1
  O  O146  1  0.78813000  0.99769000  0.34003000  1
  O  O147  1  0.78839000  0.25195000  0.23507000  1
  O  O148  1  0.74063000  0.58508000  0.55846000  1
  O  O149  1  0.15820000  0.16323000  0.47489000  1
