# generated using pymatgen
data_Cd2HC9NO8
_symmetry_space_group_name_H-M   'P 1'
_cell_length_a   8.39890000
_cell_length_b   8.53500000
_cell_length_c   11.48830000
_cell_angle_alpha   89.32500000
_cell_angle_beta   69.01400000
_cell_angle_gamma   67.26900000
_symmetry_Int_Tables_number   1
_chemical_formula_structural   Cd2HC9NO8
_chemical_formula_sum   'Cd4 H2 C18 N2 O16'
_cell_volume   701.47953291
_cell_formula_units_Z   2
loop_
 _symmetry_equiv_pos_site_id
 _symmetry_equiv_pos_as_xyz
  1  'x, y, z'
loop_
 _atom_site_type_symbol
 _atom_site_label
 _atom_site_symmetry_multiplicity
 _atom_site_fract_x
 _atom_site_fract_y
 _atom_site_fract_z
 _atom_site_occupancy
  Cd  Cd1  1  0.23633000  0.80077000  0.88986000  1.0
  Cd  Cd2  1  0.14802000  0.43842000  0.59229000  1.0
  Cd  Cd3  1  0.76367000  0.19923000  0.11014000  1.0
  Cd  Cd4  1  0.85198000  0.56158000  0.40771000  1.0
  H  H1  1  0.28560000  0.16710000  0.14000000  1.0
  H  H2  1  0.71440000  0.83290000  0.86000000  1.0
  C  C1  1  0.28290000  0.70300000  0.15180000  1.0
  C  C2  1  0.27980000  0.54370000  0.09620000  1.0
  C  C3  1  0.28860000  0.40080000  0.15790000  1.0
  C  C4  1  0.31130000  0.38440000  0.28270000  1.0
  C  C5  1  0.27630000  0.26530000  0.10200000  1.0
  C  C6  1  0.25000000  0.27640000  0.98890000  1.0
  C  C7  1  0.23370000  0.12450000  0.93570000  1.0
  C  C8  1  0.24090000  0.42330000  0.93370000  1.0
  C  C9  1  0.19980000  0.45490000  0.81700000  1.0
  C  C10  1  0.71710000  0.29700000  0.84820000  1.0
  C  C11  1  0.72020000  0.45630000  0.90380000  1.0
  C  C12  1  0.71140000  0.59920000  0.84210000  1.0
  C  C13  1  0.68870000  0.61560000  0.71730000  1.0
  C  C14  1  0.72370000  0.73470000  0.89800000  1.0
  C  C15  1  0.75000000  0.72360000  0.01110000  1.0
  C  C16  1  0.76630000  0.87550000  0.06430000  1.0
  C  C17  1  0.75910000  0.57670000  0.06630000  1.0
  C  C18  1  0.80020000  0.54510000  0.18300000  1.0
  N  N1  1  0.26030000  0.55210000  0.98570000  1.0
  N  N2  1  0.73970000  0.44790000  0.01430000  1.0
  O  O1  1  0.27160000  0.82510000  0.08830000  1.0
  O  O2  1  0.29160000  0.70160000  0.25780000  1.0
  O  O3  1  0.16150000  0.42480000  0.38120000  1.0
  O  O4  1  0.47130000  0.32410000  0.28250000  1.0
  O  O5  1  0.08060000  0.11280000  0.98190000  1.0
  O  O6  1  0.37780000  0.00830000  0.85750000  1.0
  O  O7  1  0.16180000  0.34600000  0.77300000  1.0
  O  O8  1  0.19880000  0.58820000  0.77140000  1.0
  O  O9  1  0.72840000  0.17490000  0.91170000  1.0
  O  O10  1  0.70840000  0.29840000  0.74220000  1.0
  O  O11  1  0.83850000  0.57520000  0.61880000  1.0
  O  O12  1  0.52870000  0.67590000  0.71750000  1.0
  O  O13  1  0.91940000  0.88720000  0.01810000  1.0
  O  O14  1  0.62220000  0.99170000  0.14250000  1.0
  O  O15  1  0.83820000  0.65400000  0.22700000  1.0
  O  O16  1  0.80120000  0.41180000  0.22860000  1.0
