# generated using pymatgen
data_Co5H32C34(N2O9)2
_symmetry_space_group_name_H-M   'P 1'
_cell_length_a   6.71438000
_cell_length_b   10.15155000
_cell_length_c   16.01039000
_cell_angle_alpha   87.02320000
_cell_angle_beta   89.04824000
_cell_angle_gamma   80.75569000
_symmetry_Int_Tables_number   1
_chemical_formula_structural   Co5H32C34(N2O9)2
_chemical_formula_sum   'Co5 H32 C34 N4 O18'
_cell_volume   1075.62544841
_cell_formula_units_Z   1
loop_
 _symmetry_equiv_pos_site_id
 _symmetry_equiv_pos_as_xyz
  1  'x, y, z'
loop_
 _atom_site_type_symbol
 _atom_site_label
 _atom_site_symmetry_multiplicity
 _atom_site_fract_x
 _atom_site_fract_y
 _atom_site_fract_z
 _atom_site_occupancy
  Co  Co1  1  0.90410000  0.50161000  0.28482000  1.0
  Co  Co2  1  0.03141000  0.86322000  0.99761000  1.0
  Co  Co3  1  0.09714000  0.49891000  0.71432000  1.0
  Co  Co4  1  0.96870000  0.14384000  0.00041000  1.0
  Co  Co5  1  0.49959000  0.00370000  0.99899000  1.0
  H  H1  1  0.21610000  0.00746000  0.89866000  1.0
  H  H2  1  0.66798000  0.73681000  0.39371000  1.0
  H  H3  1  0.84775000  0.32668000  0.45424000  1.0
  H  H4  1  0.73665000  0.45698000  0.60151000  1.0
  H  H5  1  0.75560000  0.72879000  0.61611000  1.0
  H  H6  1  0.50198000  0.70327000  0.61484000  1.0
  H  H7  1  0.84788000  0.88347000  0.47314000  1.0
  H  H8  1  0.26605000  0.89058000  0.59040000  1.0
  H  H9  1  0.17038000  0.82661000  0.34059000  1.0
  H  H10  1  0.93719000  0.97260000  0.19233000  1.0
  H  H11  1  0.83892000  0.95921000  0.29394000  1.0
  H  H12  1  0.11770000  0.06863000  0.34706000  1.0
  H  H13  1  0.34550000  0.17086000  0.25539000  1.0
  H  H14  1  0.56018000  0.96149000  0.21184000  1.0
  H  H15  1  0.45723000  0.94947000  0.31300000  1.0
  H  H16  1  0.43673000  0.74474000  0.24516000  1.0
  H  H17  1  0.78473000  0.99936000  0.09863000  1.0
  H  H18  1  0.33255000  0.26483000  0.60543000  1.0
  H  H19  1  0.15296000  0.67452000  0.54396000  1.0
  H  H20  1  0.26487000  0.54349000  0.39710000  1.0
  H  H21  1  0.24447000  0.27120000  0.38347000  1.0
  H  H22  1  0.49822000  0.29650000  0.38413000  1.0
  H  H23  1  0.15277000  0.11717000  0.52676000  1.0
  H  H24  1  0.73462000  0.10998000  0.40946000  1.0
  H  H25  1  0.83179000  0.17352000  0.65699000  1.0
  H  H26  1  0.06160000  0.02836000  0.80640000  1.0
  H  H27  1  0.16167000  0.04032000  0.70506000  1.0
  H  H28  1  0.88186000  0.93096000  0.65199000  1.0
  H  H29  1  0.65396000  0.82970000  0.74439000  1.0
  H  H30  1  0.44031000  0.04032000  0.78757000  1.0
  H  H31  1  0.54101000  0.05048000  0.68597000  1.0
  H  H32  1  0.56388000  0.25642000  0.75167000  1.0
  C  C1  1  0.70046000  0.64304000  0.42963000  1.0
  C  C2  1  0.79284000  0.43104000  0.46381000  1.0
  C  C3  1  0.73951000  0.49351000  0.53660000  1.0
  C  C4  1  0.62464000  0.73178000  0.57519000  1.0
  C  C5  1  0.56226000  0.86977000  0.53531000  1.0
  C  C6  1  0.69559000  0.93406000  0.48570000  1.0
  C  C7  1  0.36681000  0.93790000  0.54919000  1.0
  C  C8  1  0.12793000  0.83306000  0.27375000  1.0
  C  C9  1  0.97895000  0.96235000  0.25835000  1.0
  C  C10  1  0.07364000  0.08338000  0.28043000  1.0
  C  C11  1  0.27216000  0.09106000  0.23145000  1.0
  C  C12  1  0.41862000  0.95858000  0.24624000  1.0
  C  C13  1  0.32918000  0.83401000  0.22493000  1.0
  C  C14  1  0.03913000  0.70729000  0.26392000  1.0
  C  C15  1  0.30979000  0.82415000  0.13003000  1.0
  C  C16  1  0.92279000  0.21345000  0.27719000  1.0
  C  C17  1  0.24133000  0.13074000  0.13823000  1.0
  C  C18  1  0.30037000  0.35837000  0.56928000  1.0
  C  C19  1  0.20798000  0.57009000  0.53466000  1.0
  C  C20  1  0.26172000  0.50724000  0.46205000  1.0
  C  C21  1  0.37581000  0.26847000  0.42412000  1.0
  C  C22  1  0.43823000  0.13072000  0.46438000  1.0
  C  C23  1  0.30497000  0.06651000  0.51409000  1.0
  C  C24  1  0.63376000  0.06265000  0.45061000  1.0
  C  C25  1  0.87289000  0.16740000  0.72395000  1.0
  C  C26  1  0.02096000  0.03798000  0.74025000  1.0
  C  C27  1  0.92613000  0.91681000  0.71861000  1.0
  C  C28  1  0.72757000  0.90989000  0.76774000  1.0
  C  C29  1  0.58125000  0.04243000  0.75253000  1.0
  C  C30  1  0.67140000  0.16747000  0.77243000  1.0
  C  C31  1  0.96249000  0.29269000  0.73391000  1.0
  C  C32  1  0.69037000  0.18012000  0.86699000  1.0
  C  C33  1  0.07706000  0.78666000  0.72246000  1.0
  C  C34  1  0.75858000  0.87186000  0.86117000  1.0
  N  N1  1  0.76891000  0.52486000  0.39724000  1.0
  N  N2  1  0.68196000  0.62758000  0.51403000  1.0
  N  N3  1  0.23158000  0.47666000  0.60142000  1.0
  N  N4  1  0.31927000  0.37328000  0.48492000  1.0
  O  O1  1  0.19973000  0.00610000  0.95931000  1.0
  O  O2  1  0.15493000  0.59361000  0.27471000  1.0
  O  O3  1  0.84937000  0.70765000  0.25456000  1.0
  O  O4  1  0.73802000  0.21411000  0.28305000  1.0
  O  O5  1  0.01082000  0.32029000  0.27484000  1.0
  O  O6  1  0.39599000  0.12590000  0.09177000  1.0
  O  O7  1  0.05825000  0.16721000  0.11295000  1.0
  O  O8  1  0.45472000  0.84699000  0.08371000  1.0
  O  O9  1  0.14185000  0.79287000  0.10442000  1.0
  O  O10  1  0.79995000  0.00088000  0.03791000  1.0
  O  O11  1  0.84700000  0.40669000  0.72495000  1.0
  O  O12  1  0.15280000  0.29148000  0.74166000  1.0
  O  O13  1  0.26184000  0.78584000  0.71682000  1.0
  O  O14  1  0.98907000  0.67980000  0.72509000  1.0
  O  O15  1  0.60409000  0.88000000  0.90780000  1.0
  O  O16  1  0.94130000  0.83343000  0.88649000  1.0
  O  O17  1  0.54427000  0.15911000  0.91309000  1.0
  O  O18  1  0.85811000  0.21217000  0.89236000  1.0
