# generated using pymatgen
data_H44C43N12
_symmetry_space_group_name_H-M   'P 1'
_cell_length_a   9.99193333
_cell_length_b   34.36125000
_cell_length_c   34.36120000
_cell_angle_alpha   119.99985559
_cell_angle_beta   90.00000000
_cell_angle_gamma   90.00000000
_symmetry_Int_Tables_number   1
_chemical_formula_structural   H44C43N12
_chemical_formula_sum   'H132 C129 N36'
_cell_volume   10216.87471898
_cell_formula_units_Z   3
loop_
 _symmetry_equiv_pos_site_id
 _symmetry_equiv_pos_as_xyz
  1  'x, y, z'
loop_
 _atom_site_type_symbol
 _atom_site_label
 _atom_site_symmetry_multiplicity
 _atom_site_fract_x
 _atom_site_fract_y
 _atom_site_fract_z
 _atom_site_occupancy
  C  1  1  0.07986200  0.02974200  0.54144800  1
  C  2  1  0.22198300  0.02890000  0.54088200  1
  C  3  1  0.22203800  0.96987600  0.45873800  1
  C  4  1  0.07991800  0.96904100  0.45814100  1
  C  5  1  0.01518600  0.93783300  0.41745000  1
  C  6  1  0.08783900  0.90801500  0.37845800  1
  C  7  1  0.22865800  0.91065300  0.37985300  1
  C  8  1  0.29490700  0.94122600  0.41941200  1
  C  9  1  0.29479600  0.05756300  0.58021400  1
  C  10  1  0.22850200  0.08814900  0.61976000  1
  C  11  1  0.08768000  0.09079100  0.62112100  1
  C  12  1  0.01507500  0.06095200  0.58212800  1
  C  13  1  0.91775800  0.02973800  0.48847300  1
  C  14  1  0.77563400  0.02890400  0.48821400  1
  C  15  1  0.77558900  0.96989100  0.51134400  1
  C  16  1  0.91771300  0.96904400  0.51108900  1
  C  17  1  0.70272500  0.94123400  0.52201200  1
  C  18  1  0.76897000  0.91066100  0.53099800  1
  C  19  1  0.90978800  0.90801400  0.52973600  1
  C  20  1  0.98244900  0.93783100  0.52056400  1
  C  21  1  0.98254600  0.06093200  0.47897900  1
  C  22  1  0.90993200  0.09078100  0.46983900  1
  C  23  1  0.76910900  0.08814100  0.46856700  1
  C  24  1  0.70281600  0.05755700  0.47752900  1
  C  37  1  0.99881300  0.99939200  0.49978700  1
  C  38  1  0.69816200  0.99940300  0.49978100  1
  C  41  1  0.29946100  0.99938700  0.49981600  1
  C  44  1  0.02044500  0.12683600  0.66186700  1
  C  47  1  0.02066000  0.87198300  0.33769100  1
  C  50  1  0.97698600  0.87198500  0.53447300  1
  C  53  1  0.97714700  0.12683700  0.46515600  1
  C  56  1  0.07988800  0.51067600  0.96945200  1
  C  57  1  0.22200800  0.51093600  0.97029600  1
  C  58  1  0.22199700  0.48780800  0.02931200  1
  C  59  1  0.07987300  0.48806100  0.03014600  1
  C  60  1  0.01511000  0.47858800  0.06135800  1
  C  61  1  0.08773400  0.46940200  0.09117100  1
  C  62  1  0.22855300  0.46812700  0.08852500  1
  C  63  1  0.29482700  0.47712300  0.05796100  1
  C  64  1  0.29486200  0.52160200  0.94163800  1
  C  65  1  0.22860200  0.53057500  0.91105800  1
  C  66  1  0.08777900  0.52931900  0.90841400  1
  C  67  1  0.01514000  0.52016100  0.93824800  1
  C  68  1  0.91771900  0.45772000  0.96945300  1
  C  69  1  0.77559800  0.45830500  0.97029000  1
  C  70  1  0.77560900  0.54044800  0.02931000  1
  C  71  1  0.91773400  0.54102700  0.03015100  1
  C  72  1  0.70277400  0.57978100  0.05796700  1
  C  73  1  0.76904700  0.61933100  0.08854400  1
  C  74  1  0.90986200  0.62070100  0.09118800  1
  C  75  1  0.98250100  0.58171200  0.06135600  1
  C  76  1  0.98247000  0.41703500  0.93824100  1
  C  77  1  0.90983300  0.37803700  0.90842400  1
  C  78  1  0.76901700  0.37941700  0.91107800  1
  C  79  1  0.70275100  0.41897400  0.94163900  1
  C  92  1  0.99880200  0.49937200  0.99980100  1
  C  93  1  0.69815300  0.49938100  0.99978900  1
  C  96  1  0.29945000  0.49937700  0.99980900  1
  C  99  1  0.02057500  0.53405800  0.87239100  1
  C  102  1  0.02054000  0.46469400  0.12721900  1
  C  105  1  0.97708500  0.66146100  0.12721600  1
  C  108  1  0.97702500  0.33728000  0.87237900  1
  C  111  1  0.07988300  0.45773000  0.48849200  1
  C  112  1  0.22200800  0.45832300  0.48825400  1
  C  113  1  0.22197800  0.54046400  0.51136600  1
  C  114  1  0.07985800  0.54103700  0.51109900  1
  C  115  1  0.01508200  0.58171600  0.52055900  1
  C  116  1  0.08770500  0.62071500  0.52974100  1
  C  117  1  0.22852300  0.61935100  0.53102800  1
  C  118  1  0.29480500  0.57979300  0.52202700  1
  C  119  1  0.29486600  0.41899900  0.47759600  1
  C  120  1  0.22861200  0.37943500  0.46858800  1
  C  121  1  0.08779400  0.37805600  0.46985600  1
  C  122  1  0.01513600  0.41703700  0.47899400  1
  C  123  1  0.91770400  0.51068400  0.54144100  1
  C  124  1  0.77558400  0.51093500  0.54085300  1
  C  125  1  0.77561400  0.48780400  0.45870900  1
  C  126  1  0.91773800  0.48806800  0.45813300  1
  C  127  1  0.70278600  0.47713600  0.41937700  1
  C  128  1  0.76907000  0.46815400  0.37982400  1
  C  129  1  0.90988800  0.46944600  0.37846200  1
  C  130  1  0.98251000  0.47859500  0.41745200  1
  C  131  1  0.98245500  0.52018900  0.58213800  1
  C  132  1  0.90980800  0.52932200  0.62111700  1
  C  133  1  0.76898700  0.53056600  0.61972900  1
  C  134  1  0.70272600  0.52160300  0.58017800  1
  C  147  1  0.99879600  0.49938000  0.49979100  1
  C  148  1  0.69814700  0.49936000  0.49977500  1
  C  151  1  0.29944400  0.49939800  0.49981400  1
  C  154  1  0.02058500  0.33729600  0.46513100  1
  C  157  1  0.02049500  0.66146600  0.53444700  1
  C  160  1  0.97712600  0.46474500  0.33771600  1
  C  163  1  0.97699500  0.53404300  0.66187800  1
  C  166  1  0.02132100  0.78788300  0.29248500  1
  C  167  1  0.13257500  0.76265900  0.26585000  1
  C  168  1  0.11000700  0.71979700  0.22691000  1
  C  169  1  0.97629700  0.70668900  0.21131200  1
  C  170  1  0.86504000  0.73332600  0.23652700  1
  C  171  1  0.88759900  0.77229500  0.27937100  1
  C  188  1  0.02128100  0.50361500  0.21132100  1
  C  189  1  0.13253000  0.50218100  0.23653200  1
  C  190  1  0.11000800  0.50610200  0.27939800  1
  C  191  1  0.97627600  0.50366400  0.29252900  1
  C  192  1  0.86501100  0.50226200  0.26590300  1
  C  193  1  0.88756900  0.50612700  0.22692900  1
  C  210  1  0.02137000  0.70668100  0.49556300  1
  C  211  1  0.13257100  0.73335100  0.49701200  1
  C  212  1  0.10996600  0.77230200  0.49311100  1
  C  213  1  0.97621700  0.78788200  0.49560800  1
  C  214  1  0.86501600  0.76265100  0.49703900  1
  C  215  1  0.88762500  0.71977400  0.49308300  1
  C  232  1  0.02130100  0.21093900  0.70706600  1
  C  233  1  0.13254100  0.23615900  0.73370800  1
  C  234  1  0.10996200  0.27900600  0.77267300  1
  C  235  1  0.97624500  0.29208400  0.78827800  1
  C  236  1  0.86501000  0.26544000  0.76305600  1
  C  237  1  0.88756500  0.22651300  0.72018000  1
  C  254  1  0.02125000  0.49518000  0.78828700  1
  C  255  1  0.13250400  0.49660000  0.76306800  1
  C  256  1  0.10993200  0.49268100  0.72020700  1
  C  257  1  0.97622100  0.49516500  0.70709500  1
  C  258  1  0.86496700  0.49657900  0.73372900  1
  C  259  1  0.88752900  0.49270300  0.77269800  1
  C  276  1  0.02129600  0.29210100  0.50403900  1
  C  277  1  0.13254500  0.26545300  0.50260300  1
  C  278  1  0.11002100  0.22651000  0.50652500  1
  C  279  1  0.97628500  0.21094100  0.50408500  1
  C  280  1  0.86502600  0.23616600  0.50268400  1
  C  281  1  0.88758400  0.27900500  0.50654900  1
  H  25  1  0.71340900  0.10908900  0.46190900  1
  H  26  1  0.60033200  0.05717800  0.47731500  1
  H  27  1  0.60024200  0.94165400  0.52226400  1
  H  28  1  0.71324300  0.88974700  0.53769700  1
  H  29  1  0.08467100  0.93576500  0.51923800  1
  H  30  1  0.08475700  0.06303100  0.48037200  1
  H  31  1  0.91296400  0.93577100  0.41670900  1
  H  32  1  0.28439800  0.88972400  0.35225000  1
  H  33  1  0.39739400  0.94161300  0.41959000  1
  H  34  1  0.91285500  0.06303500  0.58284400  1
  H  35  1  0.39728400  0.05715700  0.58006100  1
  H  36  1  0.28419700  0.10907700  0.64737500  1
  H  39  1  0.63406100  0.02077800  0.52846900  1
  H  40  1  0.63404500  0.97803800  0.47109400  1
  H  42  1  0.36355200  0.97802100  0.50714500  1
  H  43  1  0.36359100  0.02075300  0.49250000  1
  H  45  1  0.05818600  0.12612000  0.69138200  1
  H  46  1  0.91258400  0.12116000  0.66043600  1
  H  48  1  0.05856100  0.87268600  0.30818700  1
  H  49  1  0.91282000  0.87768800  0.33908500  1
  H  51  1  0.93921100  0.87272200  0.56471100  1
  H  52  1  0.08484800  0.87765500  0.53872100  1
  H  54  1  0.08501200  0.12116100  0.46090200  1
  H  55  1  0.93938600  0.12613900  0.43493600  1
  H  80  1  0.71328500  0.35181900  0.89012700  1
  H  81  1  0.60026300  0.41915100  0.94202100  1
  H  82  1  0.60028700  0.57962100  0.05754800  1
  H  83  1  0.71333400  0.64694700  0.10946300  1
  H  84  1  0.08471700  0.58243100  0.06343300  1
  H  85  1  0.08469100  0.41630200  0.93617400  1
  H  86  1  0.91288500  0.47992800  0.06342400  1
  H  87  1  0.28427200  0.46147600  0.10947300  1
  H  88  1  0.39731800  0.47691300  0.05758300  1
  H  89  1  0.91291900  0.51880900  0.93616700  1
  H  90  1  0.39734800  0.52184600  0.94204700  1
  H  91  1  0.28432700  0.53727000  0.89014000  1
  H  94  1  0.63409000  0.50670500  0.97841500  1
  H  95  1  0.63400000  0.49206600  0.02114900  1
  H  97  1  0.36354700  0.52806500  0.02118100  1
  H  98  1  0.36357700  0.47069100  0.97844600  1
  H  100  1  0.05845000  0.56427200  0.87310000  1
  H  101  1  0.91273400  0.53836000  0.87809400  1
  H  103  1  0.05837500  0.43448400  0.12652000  1
  H  104  1  0.91269000  0.46040900  0.12152600  1
  H  106  1  0.93927200  0.69096700  0.12649800  1
  H  107  1  0.08493700  0.66004400  0.12152800  1
  H  109  1  0.08488200  0.33869500  0.87805800  1
  H  110  1  0.93922100  0.30777000  0.87308900  1
  H  135  1  0.71325500  0.53723300  0.64733200  1
  H  136  1  0.60024200  0.52181200  0.58000400  1
  H  137  1  0.60030200  0.47688400  0.41953500  1
  H  138  1  0.71336400  0.46149000  0.35221800  1
  H  139  1  0.08472800  0.47996100  0.41673700  1
  H  140  1  0.08466800  0.51881500  0.58286000  1
  H  141  1  0.91286400  0.58244100  0.51921700  1
  H  142  1  0.28423300  0.64696200  0.53770300  1
  H  143  1  0.39729400  0.57964100  0.52229500  1
  H  144  1  0.91291900  0.41631900  0.48037000  1
  H  145  1  0.39734900  0.41916500  0.47734400  1
  H  146  1  0.28433900  0.35183200  0.46192000  1
  H  149  1  0.63406500  0.47066600  0.49245200  1
  H  150  1  0.63401000  0.52803900  0.50709000  1
  H  152  1  0.36356300  0.49207400  0.47112900  1
  H  153  1  0.36354200  0.50672500  0.52850400  1
  H  155  1  0.05844600  0.30778800  0.43491900  1
  H  156  1  0.91274400  0.33870100  0.46083900  1
  H  158  1  0.05821000  0.69097700  0.56468700  1
  H  159  1  0.91262400  0.66003200  0.53867200  1
  H  161  1  0.93936100  0.43452200  0.30819900  1
  H  162  1  0.08498700  0.46049200  0.33914200  1
  H  164  1  0.08484700  0.53832400  0.66047200  1
  H  165  1  0.93915700  0.56426100  0.69138400  1
  H  173  1  0.30252200  0.69591400  0.21856200  1
  H  174  1  0.19931800  0.66046800  0.18110700  1
  H  176  1  0.27614200  0.80886100  0.30415800  1
  H  177  1  0.33477800  0.76696100  0.25791300  1
  H  179  1  0.72129200  0.69484400  0.19042300  1
  H  180  1  0.66248200  0.74103400  0.23228900  1
  H  182  1  0.79824300  0.81817200  0.33868300  1
  H  183  1  0.69511400  0.78069100  0.30324200  1
  H  185  1  0.98164100  0.63829400  0.17363800  1
  H  187  1  0.01592600  0.82557900  0.36087600  1
  H  195  1  0.30228300  0.52178700  0.30326600  1
  H  196  1  0.19907900  0.51974100  0.33873600  1
  H  198  1  0.27626200  0.49443500  0.19038000  1
  H  199  1  0.33501900  0.49011700  0.23225800  1
  H  201  1  0.72124500  0.49468600  0.30441000  1
  H  202  1  0.66242800  0.49036300  0.25822200  1
  H  204  1  0.79824200  0.51956600  0.18105200  1
  H  205  1  0.69511500  0.52163900  0.21855100  1
  H  207  1  0.98154600  0.53434000  0.36092000  1
  H  209  1  0.01595600  0.53428900  0.17360600  1
  H  217  1  0.30216700  0.78047900  0.47736400  1
  H  218  1  0.19892400  0.81801200  0.47946500  1
  H  220  1  0.27638200  0.69495300  0.50473700  1
  H  221  1  0.33505800  0.74116500  0.50906400  1
  H  223  1  0.72138000  0.80884700  0.50497000  1
  H  224  1  0.66261500  0.76692100  0.50922700  1
  H  226  1  0.79859200  0.66039200  0.47937400  1
  H  227  1  0.69550000  0.69587000  0.47728200  1
  H  229  1  0.98130500  0.82555300  0.46488700  1
  H  231  1  0.01625700  0.63829200  0.46485800  1
  H  239  1  0.30219700  0.30290700  0.78090100  1
  H  240  1  0.19921400  0.33834500  0.81849300  1
  H  242  1  0.27632600  0.19005400  0.69525800  1
  H  243  1  0.33506900  0.23192600  0.74146200  1
  H  245  1  0.72126000  0.30380700  0.80921900  1
  H  246  1  0.66253400  0.25762300  0.76731600  1
  H  248  1  0.79846400  0.18081200  0.66082200  1
  H  249  1  0.69539500  0.21837700  0.69630400  1
  H  251  1  0.98148100  0.36047300  0.82598000  1
  H  253  1  0.01608100  0.17323500  0.63867400  1
  H  261  1  0.30245200  0.47715600  0.69632800  1
  H  262  1  0.19924800  0.47916400  0.66088100  1
  H  264  1  0.27606600  0.50450100  0.80927400  1
  H  265  1  0.33469900  0.50884700  0.76737300  1
  H  267  1  0.72121400  0.50420400  0.69525100  1
  H  268  1  0.66240700  0.50852100  0.74143800  1
  H  270  1  0.79818200  0.47925800  0.81856900  1
  H  271  1  0.69505000  0.47721800  0.78108800  1
  H  273  1  0.98158000  0.46445300  0.63870100  1
  H  275  1  0.01587200  0.46447100  0.82597100  1
  H  283  1  0.30229300  0.21832700  0.52221000  1
  H  284  1  0.19909000  0.18081100  0.52016500  1
  H  286  1  0.27627600  0.30385900  0.49485400  1
  H  287  1  0.33503000  0.25766400  0.49053900  1
  H  289  1  0.72125500  0.19008200  0.49510800  1
  H  290  1  0.66244200  0.23194900  0.49078400  1
  H  292  1  0.79825300  0.33832000  0.51998400  1
  H  293  1  0.69512800  0.30289500  0.52205700  1
  H  295  1  0.98155500  0.17321800  0.53475500  1
  H  297  1  0.01596700  0.36049200  0.53472500  1
  N  172  1  0.21367100  0.69073500  0.20568400  1
  N  175  1  0.25920700  0.77973900  0.27804000  1
  N  178  1  0.73845900  0.72111900  0.21942000  1
  N  181  1  0.78396200  0.79357200  0.30842700  1
  N  184  1  0.94775300  0.66536500  0.17147300  1
  N  186  1  0.04987900  0.82772600  0.33380400  1
  N  194  1  0.21376100  0.51384500  0.30841900  1
  N  197  1  0.25909300  0.49720000  0.21939300  1
  N  200  1  0.73842300  0.49739300  0.27812900  1
  N  203  1  0.78395000  0.51392200  0.20565900  1
  N  206  1  0.94773800  0.50510500  0.33383200  1
  N  208  1  0.04983900  0.50506500  0.17146400  1
  N  216  1  0.21366100  0.79358100  0.48534200  1
  N  219  1  0.25916200  0.72120500  0.50197800  1
  N  222  1  0.73838500  0.77974900  0.50203600  1
  N  225  1  0.78395100  0.69071400  0.48528500  1
  N  228  1  0.94756700  0.82772100  0.49414000  1
  N  230  1  0.04998800  0.66537800  0.49410800  1
  N  238  1  0.21358600  0.30807200  0.79396000  1
  N  241  1  0.25912800  0.21905400  0.72152200  1
  N  244  1  0.73843900  0.27757500  0.78019100  1
  N  247  1  0.78386000  0.20522900  0.69114000  1
  N  250  1  0.94765300  0.33333333  0.82807233  1
  N  252  1  0.04986900  0.17108300  0.66576200  1
  N  260  1  0.21360100  0.48485100  0.69114800  1
  N  263  1  0.25913200  0.50149600  0.78015100  1
  N  266  1  0.73838500  0.50148000  0.72152500  1
  N  269  1  0.78389600  0.48491600  0.79397100  1
  N  272  1  0.94767700  0.49368600  0.66577500  1
  N  274  1  0.04980900  0.49369800  0.82812700  1
  N  282  1  0.21377100  0.20523400  0.51426900  1
  N  285  1  0.25910800  0.27761100  0.49762200  1
  N  288  1  0.73843300  0.21907300  0.49781500  1
  N  291  1  0.78396200  0.30806800  0.51434000  1
  N  294  1  0.94774800  0.17107500  0.50551900  1
  N  296  1  0.04985900  0.33341100  0.50549800  1
