# generated using pymatgen
data_H15(C9N2)2
_symmetry_space_group_name_H-M   'P 1'
_cell_length_a   10.05146667
_cell_length_b   23.25600000
_cell_length_c   23.25600000
_cell_angle_alpha   120.00000000
_cell_angle_beta   90.00000000
_cell_angle_gamma   90.00000000
_symmetry_Int_Tables_number   1
_chemical_formula_structural   H15(C9N2)2
_chemical_formula_sum   'H90 C108 N24'
_cell_volume   4707.93118247
_cell_formula_units_Z   6
loop_
 _symmetry_equiv_pos_site_id
 _symmetry_equiv_pos_as_xyz
  1  'x, y, z'
loop_
 _atom_site_type_symbol
 _atom_site_label
 _atom_site_symmetry_multiplicity
 _atom_site_fract_x
 _atom_site_fract_y
 _atom_site_fract_z
 _atom_site_occupancy
  C  1  1  0.05492000  0.04376450  0.51902350  1
  C  2  1  0.01919900  0.08103200  0.58776800  1
  C  3  1  0.99841600  0.15015100  0.62338600  1
  C  4  1  0.99827000  0.18263600  0.58519200  1
  C  5  1  0.02559800  0.14932150  0.51529050  1
  C  6  1  0.07160400  0.08193350  0.48566150  1
  C  9  1  0.05496800  0.97145750  0.48597450  1
  C  10  1  0.07157800  0.93333200  0.51938700  1
  C  11  1  0.02524600  0.86601900  0.48989900  1
  C  12  1  0.99691200  0.83278850  0.42010950  1
  C  13  1  0.99743000  0.86511300  0.38175500  1
  C  14  1  0.01926200  0.93415800  0.41722500  1
  C  27  1  0.05544600  0.48808400  0.96638000  1
  C  28  1  0.01981900  0.51964100  0.92917400  1
  C  29  1  0.99780700  0.48614100  0.86015200  1
  C  30  1  0.99669400  0.41546650  0.82774950  1
  C  31  1  0.02501200  0.37882200  0.86092600  1
  C  32  1  0.07186700  0.41654750  0.92816450  1
  C  35  1  0.05535600  0.52726700  0.03869500  1
  C  36  1  0.07184300  0.59880800  0.07687900  1
  C  37  1  0.02510300  0.63654500  0.14413000  1
  C  38  1  0.99728600  0.59993100  0.17737100  1
  C  39  1  0.99837600  0.52925300  0.14501000  1
  C  40  1  0.02002300  0.49572500  0.07595600  1
  C  53  1  0.05548100  0.49113750  0.52225950  1
  C  54  1  0.01989900  0.42236750  0.49078250  1
  C  55  1  0.99765900  0.38693750  0.52437250  1
  C  56  1  0.99679400  0.42531800  0.59506400  1
  C  57  1  0.02546600  0.49508550  0.63160850  1
  C  58  1  0.07210000  0.52452550  0.59378550  1
  C  61  1  0.05517700  0.52423450  0.48303950  1
  C  62  1  0.07198200  0.49092700  0.41151500  1
  C  63  1  0.02533200  0.52042950  0.37373750  1
  C  64  1  0.99645500  0.59019600  0.41039900  1
  C  65  1  0.99722600  0.62849950  0.48107950  1
  C  66  1  0.01929300  0.59296300  0.51456100  1
  C  79  1  0.00077700  0.70751350  0.18102350  1
  C  80  1  0.87802500  0.73127050  0.21514350  1
  C  81  1  0.87210400  0.78977200  0.27887200  1
  C  82  1  0.98420800  0.82913100  0.31050600  1
  C  83  1  0.09386300  0.81617250  0.26775950  1
  C  84  1  0.10385300  0.75588750  0.20549050  1
  C  86  1  0.63941200  0.77848950  0.28176050  1
  C  87  1  0.64283400  0.71940200  0.21920200  1
  C  91  1  0.51847400  0.80682350  0.32114650  1
  C  92  1  0.39055300  0.77224300  0.28346300  1
  C  95  1  0.40794400  0.69666100  0.23698200  1
  C  98  1  0.51895200  0.68446550  0.18558150  1
  C  103  1  0.00131000  0.48619400  0.30271200  1
  C  104  1  0.87855700  0.49632200  0.27875600  1
  C  105  1  0.87285000  0.50176050  0.22036550  1
  C  106  1  0.98499800  0.49398950  0.18100150  1
  C  107  1  0.09471500  0.46436100  0.19411800  1
  C  108  1  0.10464800  0.46249800  0.25446900  1
  C  110  1  0.64014400  0.51600800  0.23161900  1
  C  111  1  0.64341200  0.51240350  0.29063050  1
  C  115  1  0.51935100  0.52744200  0.20347600  1
  C  116  1  0.39136000  0.52428800  0.23798300  1
  C  119  1  0.40878000  0.55333750  0.31355350  1
  C  122  1  0.51952900  0.51397250  0.32568950  1
  C  127  1  0.00075200  0.82934500  0.52418200  1
  C  128  1  0.87805900  0.79521450  0.51400350  1
  C  129  1  0.87210400  0.73153200  0.50890500  1
  C  130  1  0.98411800  0.69976000  0.51654700  1
  C  131  1  0.09410700  0.74241800  0.54581300  1
  C  132  1  0.10407700  0.80465850  0.54774150  1
  C  134  1  0.63945100  0.72856800  0.49453100  1
  C  135  1  0.64291400  0.79108000  0.49791300  1
  C  139  1  0.51862300  0.68902500  0.48313900  1
  C  140  1  0.39074600  0.72663900  0.48604300  1
  C  143  1  0.40837200  0.77307150  0.45690050  1
  C  146  1  0.51911600  0.82457750  0.49626650  1
  C  151  1  0.00097200  0.30782750  0.82404250  1
  C  152  1  0.87830300  0.28395000  0.78988200  1
  C  153  1  0.87259200  0.22548750  0.72611350  1
  C  154  1  0.98462500  0.18599100  0.69459900  1
  C  155  1  0.09434700  0.19922200  0.73737800  1
  C  156  1  0.10423600  0.25955700  0.79960300  1
  C  158  1  0.63987000  0.23670450  0.72313850  1
  C  159  1  0.64315700  0.29577800  0.78570700  1
  C  163  1  0.51896200  0.20835400  0.68372600  1
  C  164  1  0.39100400  0.24293850  0.72137350  1
  C  167  1  0.40838100  0.31853050  0.76779550  1
  C  170  1  0.51926100  0.33075450  0.81926350  1
  C  175  1  0.00097000  0.52945200  0.70257300  1
  C  176  1  0.87825200  0.51924700  0.72649900  1
  C  177  1  0.87242800  0.51377500  0.78486900  1
  C  178  1  0.98454700  0.52145100  0.82420900  1
  C  179  1  0.09432700  0.55108600  0.81115300  1
  C  180  1  0.10428500  0.55302300  0.75084600  1
  C  182  1  0.63975100  0.49944750  0.77350450  1
  C  183  1  0.64312200  0.50306800  0.71450000  1
  C  187  1  0.51892600  0.48798450  0.80160150  1
  C  188  1  0.39098100  0.49117800  0.76709400  1
  C  191  1  0.40843600  0.46215850  0.69152950  1
  C  194  1  0.51929000  0.50147800  0.67939500  1
  C  199  1  0.00121100  0.18618750  0.48119950  1
  C  200  1  0.87843700  0.22028600  0.49155400  1
  C  201  1  0.87242900  0.28396100  0.49666400  1
  C  202  1  0.98456500  0.31568000  0.48909400  1
  C  203  1  0.09429600  0.27297800  0.45935600  1
  C  204  1  0.10431400  0.21070300  0.45735800  1
  C  206  1  0.63976500  0.28684600  0.51086600  1
  C  207  1  0.64323700  0.22430800  0.50743500  1
  C  211  1  0.51887200  0.32630100  0.52207200  1
  C  212  1  0.39096500  0.28863700  0.51902600  1
  C  215  1  0.40846000  0.24211450  0.54807350  1
  C  218  1  0.51936500  0.19069150  0.50876650  1
  H  7  1  0.99666400  0.05725750  0.61332250  1
  H  16  1  0.99682300  0.95790000  0.39163400  1
  H  19  1  0.19521700  0.01676000  0.41267000  1
  H  20  1  0.14830000  0.07821800  0.40195800  1
  H  21  1  0.14816000  0.93726300  0.60328500  1
  H  22  1  0.19520300  0.99859750  0.59244750  1
  H  23  1  0.04004000  0.74143600  0.40372100  1
  H  24  1  0.91744200  0.74450650  0.35907150  1
  H  25  1  0.04257300  0.27367400  0.60154900  1
  H  26  1  0.91700400  0.26989150  0.64425650  1
  H  33  1  0.99751000  0.56898800  0.95296000  1
  H  42  1  0.99775000  0.44637700  0.05219300  1
  H  45  1  0.19576000  0.40858800  0.99327700  1
  H  46  1  0.14789600  0.33648850  0.93208150  1
  H  47  1  0.14805000  0.67884700  0.07304800  1
  H  48  1  0.19577300  0.60673650  0.01177950  1
  H  49  1  0.04115500  0.67447650  0.26843550  1
  H  50  1  0.91455200  0.62840100  0.26434100  1
  H  51  1  0.03912100  0.34079750  0.73654250  1
  H  52  1  0.91299400  0.38720400  0.74091900  1
  H  59  1  0.99769400  0.39675900  0.44142500  1
  H  68  1  0.99729500  0.61852300  0.56394200  1
  H  71  1  0.19610300  0.59731300  0.60143000  1
  H  72  1  0.14915400  0.60830700  0.67368300  1
  H  73  1  0.14917900  0.40729300  0.33160500  1
  H  74  1  0.19619800  0.41823250  0.40384450  1
  H  75  1  0.03684800  0.60690650  0.33513950  1
  H  76  1  0.91552100  0.65138600  0.38365000  1
  H  77  1  0.03748800  0.40883650  0.67048250  1
  H  78  1  0.91722200  0.36364000  0.62162000  1
  H  89  1  0.19365700  0.74400850  0.18231450  1
  H  90  1  0.17401700  0.84691700  0.28602900  1
  H  93  1  0.51233000  0.85983900  0.33773200  1
  H  94  1  0.52820500  0.80157050  0.36439850  1
  H  96  1  0.36702550  0.79444650  0.25311950  1
  H  97  1  0.31053400  0.78179800  0.31894100  1
  H  99  1  0.31530900  0.67375550  0.21128550  1
  H  100  1  0.43412300  0.67512200  0.26769600  1
  H  101  1  0.48642500  0.70332800  0.15324400  1
  H  102  1  0.53745200  0.63151800  0.15378500  1
  H  113  1  0.19453600  0.45140300  0.26646700  1
  H  114  1  0.17494300  0.45193900  0.16342900  1
  H  117  1  0.51305600  0.49125050  0.15039750  1
  H  118  1  0.52947900  0.57607200  0.20906800  1
  H  120  1  0.36785000  0.47173800  0.21575000  1
  H  121  1  0.31134500  0.55022000  0.22843300  1
  H  123  1  0.31607600  0.55066900  0.33648300  1
  H  124  1  0.43529200  0.60555800  0.33511100  1
  H  125  1  0.48664900  0.46283600  0.30690100  1
  H  126  1  0.53820800  0.53514050  0.37861950  1
  H  137  1  0.19394900  0.82777400  0.55885200  1
  H  138  1  0.17438400  0.72410450  0.55814450  1
  H  141  1  0.51212800  0.67234400  0.51948600  1
  H  142  1  0.52878600  0.64584350  0.43460650  1
  H  144  1  0.36707500  0.75702400  0.53856300  1
  H  145  1  0.31078300  0.69114000  0.46007200  1
  H  147  1  0.31571200  0.79867700  0.45950200  1
  H  148  1  0.43496400  0.74234050  0.40470050  1
  H  149  1  0.48618000  0.85696400  0.54738700  1
  H  150  1  0.53790500  0.85630500  0.47506700  1
  H  161  1  0.19406400  0.27153400  0.82276300  1
  H  162  1  0.17453000  0.16849200  0.71918500  1
  H  165  1  0.51281900  0.15534100  0.66715700  1
  H  166  1  0.52877500  0.21359950  0.64047550  1
  H  168  1  0.36747600  0.22079950  0.75177550  1
  H  169  1  0.31099200  0.23333950  0.68588050  1
  H  171  1  0.31570900  0.34146450  0.79343350  1
  H  172  1  0.43471500  0.34002800  0.73706000  1
  H  173  1  0.48660900  0.31193900  0.85162100  1
  H  174  1  0.53779900  0.38370100  0.85102600  1
  H  185  1  0.19417300  0.56415600  0.73888600  1
  H  186  1  0.17459400  0.56342100  0.84180900  1
  H  189  1  0.51259500  0.52414400  0.85468700  1
  H  190  1  0.52899500  0.43933800  0.79597300  1
  H  192  1  0.36750100  0.54373450  0.78935850  1
  H  193  1  0.31094100  0.46523650  0.77660950  1
  H  195  1  0.31575800  0.46488500  0.66861200  1
  H  196  1  0.43482500  0.40992450  0.66996050  1
  H  197  1  0.48645400  0.55261400  0.69813400  1
  H  198  1  0.53803400  0.48026150  0.62646250  1
  H  209  1  0.19411700  0.18752450  0.44606750  1
  H  210  1  0.17446600  0.29128600  0.44694000  1
  H  213  1  0.51259400  0.34294650  0.48569050  1
  H  214  1  0.52879100  0.36951250  0.57059950  1
  H  216  1  0.36735700  0.25831750  0.46648650  1
  H  217  1  0.31097700  0.32412000  0.54499700  1
  H  219  1  0.31581600  0.21644200  0.54533100  1
  H  220  1  0.43481000  0.27279550  0.60031250  1
  H  221  1  0.48672200  0.15842000  0.45757700  1
  H  222  1  0.53792400  0.15883000  0.52983500  1
  N  8  1  0.99816600  0.24979350  0.61997850  1
  N  15  1  0.99552400  0.76565200  0.38561400  1
  N  17  1  0.13829100  0.05529700  0.42673800  1
  N  18  1  0.13864900  0.95989300  0.57818700  1
  N  34  1  0.99484900  0.38308250  0.76060550  1
  N  41  1  0.99644000  0.63226150  0.24450950  1
  N  43  1  0.13906700  0.38424200  0.95461200  1
  N  44  1  0.13897100  0.63110200  0.05039100  1
  N  60  1  0.99445400  0.39105100  0.62791200  1
  N  67  1  0.99354100  0.62450500  0.37762100  1
  N  69  1  0.13917650  0.58333200  0.62598900  1
  N  70  1  0.13903100  0.43211300  0.37929000  1
  N  85  1  0.75386200  0.81008400  0.30966000  1
  N  88  1  0.76241800  0.69811400  0.18864400  1
  N  109  1  0.75465900  0.51232300  0.20007000  1
  N  112  1  0.76290600  0.50301900  0.31189100  1
  N  133  1  0.75385400  0.70074200  0.49838800  1
  N  136  1  0.76248900  0.82163900  0.50720600  1
  N  157  1  0.75438500  0.20513750  0.69528450  1
  N  160  1  0.76265800  0.31708100  0.81632300  1
  N  181  1  0.75421300  0.50316400  0.80510200  1
  N  184  1  0.76265200  0.51251700  0.69331400  1
  N  205  1  0.75418200  0.31474050  0.50713750  1
  N  208  1  0.76284600  0.19378000  0.49821900  1
