# generated using pymatgen
data_H14C14N3
_symmetry_space_group_name_H-M   'P 1'
_cell_length_a   22.42760000
_cell_length_b   22.42760000
_cell_length_c   28.48730000
_cell_angle_alpha   90.00000000
_cell_angle_beta   90.00000000
_cell_angle_gamma   120.00000000
_symmetry_Int_Tables_number   1
_chemical_formula_structural   H14C14N3
_chemical_formula_sum   'H84 C84 N18'
_cell_volume   12409.30687129
_cell_formula_units_Z   6
loop_
 _symmetry_equiv_pos_site_id
 _symmetry_equiv_pos_as_xyz
  1  'x, y, z'
loop_
 _atom_site_type_symbol
 _atom_site_label
 _atom_site_symmetry_multiplicity
 _atom_site_fract_x
 _atom_site_fract_y
 _atom_site_fract_z
 _atom_site_occupancy
  C  1  1  0.42059450  0.48663150  0.00353200  1
  C  2  1  0.41837600  0.52270400  0.04351400  1
  C  3  1  0.37951700  0.55648100  0.04406900  1
  C  4  1  0.34679550  0.56058850  0.00250300  1
  C  5  1  0.35053000  0.52634600  0.96165000  1
  C  6  1  0.38410800  0.48737100  0.96333300  1
  C  9  1  0.45806250  0.45046750  0.00355300  1
  C  10  1  0.46020600  0.41436700  0.04354200  1
  C  11  1  0.49901450  0.38053750  0.04413600  1
  C  12  1  0.53173350  0.37638450  0.00258000  1
  C  13  1  0.52807850  0.41066450  0.96172100  1
  C  14  1  0.49462000  0.44975200  0.96338500  1
  C  31  1  0.97607200  0.48723600  0.33688400  1
  C  32  1  0.01432400  0.48935000  0.37685900  1
  C  33  1  0.08695900  0.52818500  0.37743800  1
  C  34  1  0.12382400  0.56094700  0.33589000  1
  C  35  1  0.08587700  0.55730400  0.29504000  1
  C  36  1  0.01332750  0.52381650  0.29671800  1
  C  39  1  0.90244500  0.44976800  0.33687300  1
  C  40  1  0.86416950  0.44762050  0.37684500  1
  C  41  1  0.79153400  0.40875500  0.37741400  1
  C  42  1  0.75469250  0.37598550  0.33586200  1
  C  43  1  0.79266150  0.37967050  0.29501600  1
  C  44  1  0.86521200  0.41322300  0.29669000  1
  C  61  1  0.42111150  0.93167250  0.67023850  1
  C  62  1  0.38495050  0.89341550  0.71020700  1
  C  63  1  0.35117950  0.82077850  0.71079500  1
  C  64  1  0.34707550  0.78391850  0.66924500  1
  C  65  1  0.38135600  0.82186500  0.62839200  1
  C  66  1  0.42036400  0.89441600  0.63005300  1
  C  69  1  0.45732750  0.00530050  0.67024300  1
  C  70  1  0.49348200  0.04354200  0.71021800  1
  C  71  1  0.52726450  0.11618050  0.71081400  1
  C  72  1  0.53139100  0.15305200  0.66926600  1
  C  73  1  0.49711900  0.11511700  0.62840600  1
  C  74  1  0.45807450  0.04256850  0.63006700  1
  C  91  1  0.50276850  0.20119250  0.86243300  1
  C  92  1  0.50274850  0.25729450  0.88437400  1
  C  93  1  0.50736150  0.31256450  0.85764200  1
  C  94  1  0.51136050  0.31010150  0.80827400  1
  C  95  1  0.50905050  0.25291550  0.78627900  1
  C  96  1  0.50521700  0.19798000  0.81301000  1
  C  101  1  0.49997450  0.36750050  0.88099000  1
  C  104  1  0.49511300  0.13494100  0.78911500  1
  C  107  1  0.60850150  0.40487450  0.19574700  1
  C  108  1  0.66462600  0.40487700  0.21766900  1
  C  109  1  0.71524900  0.40022400  0.19092000  1
  C  110  1  0.70874800  0.39620300  0.14155400  1
  C  111  1  0.65387100  0.39853700  0.11958000  1
  C  112  1  0.60280500  0.40241100  0.14632500  1
  C  117  1  0.77759450  0.40762250  0.21424300  1
  C  120  1  0.54989100  0.41256700  0.12244800  1
  C  123  1  0.70647200  0.29934200  0.52906000  1
  C  124  1  0.65038550  0.24322850  0.55101800  1
  C  125  1  0.59511550  0.19254050  0.52429700  1
  C  126  1  0.59756150  0.19897350  0.47492700  1
  C  127  1  0.65473300  0.25384400  0.45291800  1
  C  128  1  0.70967250  0.30496750  0.47963500  1
  C  133  1  0.54021650  0.13020550  0.54765800  1
  C  136  1  0.77271300  0.35787600  0.45572600  1
  C  139  1  0.37568350  0.73572250  0.86239800  1
  C  140  1  0.37572850  0.67962150  0.88432000  1
  C  141  1  0.37113250  0.62437250  0.85757200  1
  C  142  1  0.36712950  0.62685750  0.80820500  1
  C  143  1  0.36942000  0.68404700  0.78622900  1
  C  144  1  0.37323100  0.73895800  0.81297600  1
  C  149  1  0.37855500  0.56944100  0.88089800  1
  C  152  1  0.38331550  0.80200150  0.78909900  1
  C  155  1  0.26996950  0.53202450  0.19568000  1
  C  156  1  0.21387350  0.53203650  0.21763400  1
  C  157  1  0.16323750  0.53671150  0.19091700  1
  C  158  1  0.16970200  0.54075200  0.14155100  1
  C  159  1  0.22455550  0.53841450  0.11954100  1
  C  160  1  0.27562850  0.53450650  0.14625800  1
  C  165  1  0.10091850  0.52932250  0.21427500  1
  C  168  1  0.32851050  0.52434050  0.12234200  1
  C  171  1  0.17203550  0.63762950  0.52907400  1
  C  172  1  0.22812950  0.69375950  0.55101800  1
  C  173  1  0.28340050  0.74442150  0.52428450  1
  C  174  1  0.28094750  0.73794850  0.47491700  1
  C  175  1  0.22376500  0.68306600  0.45292100  1
  C  176  1  0.16882900  0.63196600  0.47965200  1
  C  181  1  0.33831000  0.80676700  0.54762700  1
  C  184  1  0.10578000  0.57904600  0.45575800  1
  H  7  1  0.44345100  0.52292200  0.07357000  1
  H  16  1  0.49498000  0.47577500  0.93378100  1
  H  17  1  0.56625000  0.31418000  0.02893200  1
  H  18  1  0.59059200  0.33910100  0.97433000  1
  H  19  1  0.28784150  0.59774650  0.97422700  1
  H  20  1  0.31212750  0.62268050  0.02883400  1
  H  21  1  0.38371250  0.46127450  0.93375800  1
  H  22  1  0.43509250  0.41415250  0.07358000  1
  H  24  1  0.59276250  0.44844550  0.90654000  1
  H  26  1  0.46509200  0.31915500  0.10130800  1
  H  28  1  0.28584150  0.48843550  0.90648500  1
  H  30  1  0.41329350  0.61781950  0.10127300  1
  H  37  1  0.98943000  0.46424500  0.40690100  1
  H  46  1  0.89091550  0.41282650  0.26711900  1
  H  47  1  0.65793750  0.34132250  0.36220400  1
  H  48  1  0.65857250  0.31697950  0.30761100  1
  H  49  1  0.21995700  0.61988400  0.30764600  1
  H  50  1  0.22055700  0.59552100  0.36223900  1
  H  51  1  0.98764200  0.52419200  0.26713000  1
  H  52  1  0.88904650  0.47271350  0.40689400  1
  H  54  1  0.76585350  0.31491950  0.23988200  1
  H  56  1  0.76398250  0.44260750  0.43458000  1
  H  58  1  0.11274900  0.62206000  0.23990700  1
  H  60  1  0.11446650  0.49429050  0.43460800  1
  H  67  1  0.38481150  0.91830650  0.74026900  1
  H  76  1  0.43197750  0.01689650  0.60048500  1
  H  77  1  0.59347500  0.24978100  0.69565100  1
  H  78  1  0.56854700  0.24919600  0.64105100  1
  H  79  1  0.30995750  0.68778350  0.64102300  1
  H  80  1  0.28499900  0.68717800  0.69561800  1
  H  81  1  0.44650500  0.92009600  0.60048500  1
  H  82  1  0.49361300  0.01864100  0.74027700  1
  H  84  1  0.45926850  0.14199950  0.57325900  1
  H  86  1  0.58858650  0.14364550  0.76802200  1
  H  88  1  0.41926850  0.79501950  0.57325900  1
  H  90  1  0.28984150  0.79328850  0.76799700  1
  H  97  1  0.51186600  0.34786800  0.78782500  1
  H  98  1  0.49656900  0.25614000  0.91998400  1
  H  99  1  0.49699550  0.16097850  0.88271400  1
  H  100  1  0.50752700  0.25054000  0.75044100  1
  H  102  1  0.44767500  0.34245800  0.89541400  1
  H  103  1  0.50347100  0.40603300  0.85583100  1
  H  105  1  0.44432100  0.11195900  0.77245000  1
  H  106  1  0.49309800  0.09697600  0.81418900  1
  H  113  1  0.74598350  0.39567350  0.12109300  1
  H  114  1  0.66968500  0.41108200  0.25327800  1
  H  115  1  0.57409650  0.41069050  0.21604000  1
  H  116  1  0.65299850  0.40005350  0.08374300  1
  H  118  1  0.80489350  0.45994850  0.22861800  1
  H  119  1  0.81257900  0.40405900  0.18907000  1
  H  121  1  0.57772200  0.46337900  0.10581200  1
  H  122  1  0.51394500  0.41457200  0.14753300  1
  H  129  1  0.55980150  0.16169250  0.45449000  1
  H  130  1  0.65155100  0.23822600  0.58662600  1
  H  131  1  0.74669150  0.33379850  0.54933300  1
  H  132  1  0.65710500  0.25467100  0.41708100  1
  H  134  1  0.56529500  0.10297000  0.56206100  1
  H  135  1  0.50167250  0.09516050  0.52251000  1
  H  137  1  0.79569150  0.33004650  0.43908700  1
  H  138  1  0.81067950  0.39385250  0.48079000  1
  H  145  1  0.36663950  0.58911150  0.78774400  1
  H  146  1  0.38191250  0.68075950  0.91992900  1
  H  147  1  0.38144600  0.77592200  0.88269000  1
  H  148  1  0.37094650  0.68644350  0.75039100  1
  H  150  1  0.43086600  0.59449500  0.89530000  1
  H  151  1  0.37505150  0.53092150  0.85572600  1
  H  153  1  0.43411700  0.82501600  0.77244200  1
  H  154  1  0.38530500  0.83994400  0.81418500  1
  H  161  1  0.13245800  0.54130000  0.12111000  1
  H  162  1  0.20884350  0.52582850  0.25324300  1
  H  163  1  0.30438750  0.52619550  0.21594900  1
  H  164  1  0.22540400  0.53691600  0.08370100  1
  H  166  1  0.07363250  0.47699950  0.22865600  1
  H  167  1  0.06590750  0.53288050  0.18912300  1
  H  169  1  0.30065350  0.47356150  0.10566500  1
  H  170  1  0.36444750  0.52227050  0.14740300  1
  H  177  1  0.31870600  0.77521200  0.45446900  1
  H  178  1  0.22696750  0.69879150  0.58662300  1
  H  179  1  0.13181800  0.60319400  0.54935400  1
  H  180  1  0.22139050  0.68221550  0.41708400  1
  H  182  1  0.31324350  0.83402650  0.56200800  1
  H  183  1  0.37685600  0.84178500  0.52247100  1
  H  185  1  0.08278950  0.60686950  0.43912200  1
  H  186  1  0.06782500  0.54307700  0.48082800  1
  N  8  1  0.31234000  0.59625500  0.00190200  1
  N  15  1  0.56609450  0.34062750  0.00199300  1
  N  23  1  0.55332900  0.40200400  0.91815100  1
  N  25  1  0.51071950  0.35699450  0.08743900  1
  N  27  1  0.32522900  0.53491700  0.91807300  1
  N  29  1  0.36770450  0.57995850  0.08736500  1
  N  38  1  0.19394200  0.59532700  0.33529700  1
  N  45  1  0.68457100  0.34154900  0.33526200  1
  N  53  1  0.75878050  0.35433150  0.25144500  1
  N  55  1  0.75625850  0.39700350  0.42071400  1
  N  57  1  0.11977400  0.58261900  0.25147400  1
  N  59  1  0.12221900  0.53991000  0.42074200  1
  N  68  1  0.31136750  0.71379950  0.66866100  1
  N  75  1  0.56711850  0.22317250  0.66868800  1
  N  83  1  0.50572800  0.14903100  0.58484300  1
  N  85  1  0.55073600  0.15140100  0.75413500  1
  N  87  1  0.37279300  0.78796200  0.58482900  1
  N  89  1  0.32770050  0.78554450  0.75411200  1
