# generated using pymatgen
data_CoH22C35(NO3)2
_symmetry_space_group_name_H-M   'P 1'
_cell_length_a   12.12271000
_cell_length_b   14.02817000
_cell_length_c   17.89037000
_cell_angle_alpha   89.98314000
_cell_angle_beta   89.90425000
_cell_angle_gamma   82.27288000
_symmetry_Int_Tables_number   1
_chemical_formula_structural   CoH22C35(NO3)2
_chemical_formula_sum   'Co4 H88 C140 N8 O24'
_cell_volume   3014.79578944
_cell_formula_units_Z   4
loop_
 _symmetry_equiv_pos_site_id
 _symmetry_equiv_pos_as_xyz
  1  'x, y, z'
loop_
 _atom_site_type_symbol
 _atom_site_label
 _atom_site_symmetry_multiplicity
 _atom_site_fract_x
 _atom_site_fract_y
 _atom_site_fract_z
 _atom_site_occupancy
  Co  Co1  1  0.00136000  0.00006000  0.99954000  1.0
  Co  Co2  1  0.50179000  0.49966000  0.49998000  1.0
  Co  Co3  1  0.99905000  0.50001000  0.49947000  1.0
  Co  Co4  1  0.50042000  0.99978000  0.00028000  1.0
  H  H1  1  0.61254000  0.93057000  0.73635000  1.0
  H  H2  1  0.26209000  0.41994000  0.05061000  1.0
  H  H3  1  0.02466000  0.46571000  0.66122000  1.0
  H  H4  1  0.38730000  0.06932000  0.26322000  1.0
  H  H5  1  0.16460000  0.64368000  0.51139000  1.0
  H  H6  1  0.65944000  0.98311000  0.55974000  1.0
  H  H7  1  0.40653000  0.39108000  0.23851000  1.0
  H  H8  1  0.09465000  0.04907000  0.73198000  1.0
  H  H9  1  0.34120000  0.51798000  0.05847000  1.0
  H  H10  1  0.65110000  0.04638000  0.25662000  1.0
  H  H11  1  0.17356000  0.36839000  0.94330000  1.0
  H  H12  1  0.13265000  0.04962000  0.32175000  1.0
  H  H13  1  0.17255000  0.86633000  0.55932000  1.0
  H  H14  1  0.24318000  0.72846000  0.61172000  1.0
  H  H15  1  0.25594000  0.32154000  0.80048000  1.0
  H  H16  1  0.48627000  0.20258000  0.63745000  1.0
  H  H17  1  0.73780000  0.74916000  0.40611000  1.0
  H  H18  1  0.79143000  0.32751000  0.18136000  1.0
  H  H19  1  0.73836000  0.08079000  0.54976000  1.0
  H  H20  1  0.87212000  0.62132000  0.85820000  1.0
  H  H21  1  0.02408000  0.96569000  0.84018000  1.0
  H  H22  1  0.20810000  0.17227000  0.68190000  1.0
  H  H23  1  0.73745000  0.24886000  0.09350000  1.0
  H  H24  1  0.38599000  0.12051000  0.54248000  1.0
  H  H25  1  0.04329000  0.25695000  0.08043000  1.0
  H  H26  1  0.44254000  0.03215000  0.84255000  1.0
  H  H27  1  0.42341000  0.71914000  0.17961000  1.0
  H  H28  1  0.40611000  0.89135000  0.26252000  1.0
  H  H29  1  0.74396000  0.67867000  0.19932000  1.0
  H  H30  1  0.74377000  0.17828000  0.30011000  1.0
  H  H31  1  0.34854000  0.95456000  0.74336000  1.0
  H  H32  1  0.86730000  0.44997000  0.82450000  1.0
  H  H33  1  0.75700000  0.27149000  0.38780000  1.0
  H  H34  1  0.97849000  0.67503000  0.13544000  1.0
  H  H35  1  0.38516000  0.61926000  0.95663000  1.0
  H  H36  1  0.57515000  0.78072000  0.67919000  1.0
  H  H37  1  0.16398000  0.14392000  0.98932000  1.0
  H  H38  1  0.82700000  0.13287000  0.44148000  1.0
  H  H39  1  0.65179000  0.65952000  0.50174000  1.0
  H  H40  1  0.61566000  0.38057000  0.04332000  1.0
  H  H41  1  0.73829000  0.57982000  0.94890000  1.0
  H  H42  1  0.87344000  0.12132000  0.64389000  1.0
  H  H43  1  0.95893000  0.24254000  0.58263000  1.0
  H  H44  1  0.90511000  0.44989000  0.23153000  1.0
  H  H45  1  0.61339000  0.88027000  0.45784000  1.0
  H  H46  1  0.57619000  0.28087000  0.82005000  1.0
  H  H47  1  0.44252000  0.53194000  0.65735000  1.0
  H  H48  1  0.86657000  0.95042000  0.67815000  1.0
  H  H49  1  0.13293000  0.55033000  0.17525000  1.0
  H  H50  1  0.34839000  0.45362000  0.75706000  1.0
  H  H51  1  0.02148000  0.32509000  0.86439000  1.0
  H  H52  1  0.83673000  0.85625000  0.01024000  1.0
  H  H53  1  0.34912000  0.83962000  0.00209000  1.0
  H  H54  1  0.38710000  0.56896000  0.23757000  1.0
  H  H55  1  0.26169000  0.25108000  0.59373000  1.0
  H  H56  1  0.59428000  0.60881000  0.76174000  1.0
  H  H57  1  0.34881000  0.34064000  0.49813000  1.0
  H  H58  1  0.12624000  0.87835000  0.35615000  1.0
  H  H59  1  0.82646000  0.63211000  0.05724000  1.0
  H  H60  1  0.55770000  0.96772000  0.15770000  1.0
  H  H61  1  0.83521000  0.35526000  0.48884000  1.0
  H  H62  1  0.61339000  0.43097000  0.76237000  1.0
  H  H63  1  0.65201000  0.16012000  0.99768000  1.0
  H  H64  1  0.24288000  0.22837000  0.88875000  1.0
  H  H65  1  0.33953000  0.01712000  0.44013000  1.0
  H  H66  1  0.12757000  0.37893000  0.14188000  1.0
  H  H67  1  0.90549000  0.95119000  0.26750000  1.0
  H  H68  1  0.42379000  0.22000000  0.32133000  1.0
  H  H69  1  0.26238000  0.75119000  0.90683000  1.0
  H  H70  1  0.95728000  0.74355000  0.92059000  1.0
  H  H71  1  0.75743000  0.77209000  0.11085000  1.0
  H  H72  1  0.79201000  0.82790000  0.31775000  1.0
  H  H73  1  0.97986000  0.17488000  0.36326000  1.0
  H  H74  1  0.48531000  0.70183000  0.86194000  1.0
  H  H75  1  0.01919000  0.82455000  0.63738000  1.0
  H  H76  1  0.65876000  0.48224000  0.94060000  1.0
  H  H77  1  0.97675000  0.03422000  0.15948000  1.0
  H  H78  1  0.04249000  0.75699000  0.41892000  1.0
  H  H79  1  0.51509000  0.29796000  0.13805000  1.0
  H  H80  1  0.26178000  0.91894000  0.44968000  1.0
  H  H81  1  0.59418000  0.10858000  0.73751000  1.0
  H  H82  1  0.25647000  0.82197000  0.69990000  1.0
  H  H83  1  0.97545000  0.53391000  0.33904000  1.0
  H  H84  1  0.55798000  0.46786000  0.34274000  1.0
  H  H85  1  0.20837000  0.67250000  0.81863000  1.0
  H  H86  1  0.09448000  0.54967000  0.76894000  1.0
  H  H87  1  0.65166000  0.54634000  0.24284000  1.0
  H  H88  1  0.51438000  0.79736000  0.36249000  1.0
  C  C1  1  0.70093000  0.68597000  0.38977000  1.0
  C  C2  1  0.56732000  0.92158000  0.41390000  1.0
  C  C3  1  0.17182000  0.15071000  0.79948000  1.0
  C  C4  1  0.55346000  0.07191000  0.69427000  1.0
  C  C5  1  0.97640000  0.60039000  0.12009000  1.0
  C  C6  1  0.09202000  0.82503000  0.00254000  1.0
  C  C7  1  0.74691000  0.21069000  0.24478000  1.0
  C  C8  1  0.97516000  0.80937000  0.43986000  1.0
  C  C9  1  0.89017000  0.57572000  0.07654000  1.0
  C  C10  1  0.25277000  0.28916000  0.74523000  1.0
  C  C11  1  0.51121000  0.37572000  0.13936000  1.0
  C  C12  1  0.06070000  0.93431000  0.37429000  1.0
  C  C13  1  0.11165000  0.57317000  0.71280000  1.0
  C  C14  1  0.93659000  0.47014000  0.85668000  1.0
  C  C15  1  0.50566000  0.42298000  0.85753000  1.0
  C  C16  1  0.49526000  0.57688000  0.14272000  1.0
  C  C17  1  0.10979000  0.92343000  0.57894000  1.0
  C  C18  1  0.64992000  0.13574000  0.05530000  1.0
  C  C19  1  0.43165000  0.57736000  0.91320000  1.0
  C  C20  1  0.92908000  0.47370000  0.34788000  1.0
  C  C21  1  0.06315000  0.02971000  0.35420000  1.0
  C  C22  1  0.97439000  0.90729000  0.41892000  1.0
  C  C23  1  0.61857000  0.67783000  0.03833000  1.0
  C  C24  1  0.97649000  0.10019000  0.37809000  1.0
  C  C25  1  0.06136000  0.43450000  0.12406000  1.0
  C  C26  1  0.88640000  0.47849000  0.05449000  1.0
  C  C27  1  0.90849000  0.67472000  0.50353000  1.0
  C  C28  1  0.56887000  0.42219000  0.08682000  1.0
  C  C29  1  0.14898000  0.62408000  0.56870000  1.0
  C  C30  1  0.92995000  0.97413000  0.15119000  1.0
  C  C31  1  0.51016000  0.87522000  0.36113000  1.0
  C  C32  1  0.51200000  0.33527000  0.41095000  1.0
  C  C33  1  0.51736000  0.32088000  0.85843000  1.0
  C  C34  1  0.19858000  0.04900000  0.50940000  1.0
  C  C35  1  0.82788000  0.34911000  0.29898000  1.0
  C  C36  1  0.07092000  0.02580000  0.84825000  1.0
  C  C37  1  0.60254000  0.52794000  0.35569000  1.0
  C  C38  1  0.07094000  0.52599000  0.65260000  1.0
  C  C39  1  0.10443000  0.72034000  0.98543000  1.0
  C  C40  1  0.14903000  0.12426000  0.93195000  1.0
  C  C41  1  0.39811000  0.47183000  0.64429000  1.0
  C  C42  1  0.19932000  0.55032000  0.99117000  1.0
  C  C43  1  0.37265000  0.92767000  0.53694000  1.0
  C  C44  1  0.35008000  0.36400000  0.55588000  1.0
  C  C45  1  0.48201000  0.17908000  0.35946000  1.0
  C  C46  1  0.62744000  0.07208000  0.46254000  1.0
  C  C47  1  0.51181000  0.83545000  0.08938000  1.0
  C  C48  1  0.11152000  0.07293000  0.78800000  1.0
  C  C49  1  0.21272000  0.20369000  0.73750000  1.0
  C  C50  1  0.65356000  0.07403000  0.20000000  1.0
  C  C51  1  0.02259000  0.89915000  0.62219000  1.0
  C  C52  1  0.74712000  0.71104000  0.25455000  1.0
  C  C53  1  0.80050000  0.94978000  0.49032000  1.0
  C  C54  1  0.48992000  0.12480000  0.63872000  1.0
  C  C55  1  0.46086000  0.27102000  0.90867000  1.0
  C  C56  1  0.19238000  0.67328000  0.62635000  1.0
  C  C57  1  0.19713000  0.65126000  0.01338000  1.0
  C  C58  1  0.56246000  0.97230000  0.69433000  1.0
  C  C59  1  0.19211000  0.17333000  0.87417000  1.0
  C  C60  1  0.55356000  0.57193000  0.80508000  1.0
  C  C61  1  0.21293000  0.70391000  0.76298000  1.0
  C  C62  1  0.89718000  0.27947000  0.01358000  1.0
  C  C63  1  0.61918000  0.17681000  0.46040000  1.0
  C  C64  1  0.10424000  0.22004000  0.51472000  1.0
  C  C65  1  0.50579000  0.92341000  0.64123000  1.0
  C  C66  1  0.60180000  0.02798000  0.14400000  1.0
  C  C67  1  0.02469000  0.59259000  0.92050000  1.0
  C  C68  1  0.06346000  0.53001000  0.14341000  1.0
  C  C69  1  0.29951000  0.81427000  0.89036000  1.0
  C  C70  1  0.89540000  0.77934000  0.48535000  1.0
  C  C71  1  0.49344000  0.07685000  0.35874000  1.0
  C  C72  1  0.70212000  0.15727000  0.18483000  1.0
  C  C73  1  0.97503000  0.40738000  0.07970000  1.0
  C  C74  1  0.02416000  0.69036000  0.94079000  1.0
  C  C75  1  0.70070000  0.18547000  0.10950000  1.0
  C  C76  1  0.34622000  0.42581000  0.70046000  1.0
  C  C77  1  0.93591000  0.96994000  0.64553000  1.0
  C  C78  1  0.97627000  0.30945000  0.05928000  1.0
  C  C79  1  0.43539000  0.47580000  0.91222000  1.0
  C  C80  1  0.29840000  0.84256000  0.81503000  1.0
  C  C81  1  0.17186000  0.65100000  0.70111000  1.0
  C  C82  1  0.02567000  0.18990000  0.56114000  1.0
  C  C83  1  0.80492000  0.34919000  0.98534000  1.0
  C  C84  1  0.02373000  0.39975000  0.87993000  1.0
  C  C85  1  0.70565000  0.52161000  0.97994000  1.0
  C  C86  1  0.11356000  0.52176000  0.94565000  1.0
  C  C87  1  0.88873000  0.92734000  0.21146000  1.0
  C  C88  1  0.43217000  0.07875000  0.58613000  1.0
  C  C89  1  0.29365000  0.97769000  0.48021000  1.0
  C  C90  1  0.38162000  0.82278000  0.53899000  1.0
  C  C91  1  0.70249000  0.65747000  0.31452000  1.0
  C  C92  1  0.43736000  0.52759000  0.19525000  1.0
  C  C93  1  0.53915000  0.22861000  0.40873000  1.0
  C  C94  1  0.51750000  0.82128000  0.64061000  1.0
  C  C95  1  0.44681000  0.42793000  0.19496000  1.0
  C  C96  1  0.37216000  0.42688000  0.96271000  1.0
  C  C97  1  0.29786000  0.34244000  0.68532000  1.0
  C  C98  1  0.80828000  0.82711000  0.12537000  1.0
  C  C99  1  0.82826000  0.84961000  0.20011000  1.0
  C  C100  1  0.85088000  0.37533000  0.43164000  1.0
  C  C101  1  0.80240000  0.84893000  0.51283000  1.0
  C  C102  1  0.80762000  0.32676000  0.37368000  1.0
  C  C103  1  0.56297000  0.47210000  0.80468000  1.0
  C  C104  1  0.65072000  0.63586000  0.44409000  1.0
  C  C105  1  0.80093000  0.45000000  0.00873000  1.0
  C  C106  1  0.93811000  0.56564000  0.87644000  1.0
  C  C107  1  0.65362000  0.57432000  0.29939000  1.0
  C  C108  1  0.48916000  0.62406000  0.86046000  1.0
  C  C109  1  0.53902000  0.72852000  0.09099000  1.0
  C  C110  1  0.70603000  0.02189000  0.51940000  1.0
  C  C111  1  0.44694000  0.92813000  0.30559000  1.0
  C  C112  1  0.85196000  0.87589000  0.06757000  1.0
  C  C113  1  0.78749000  0.79642000  0.26216000  1.0
  C  C114  1  0.48967000  0.66487000  0.58953000  1.0
  C  C115  1  0.43726000  0.02793000  0.30554000  1.0
  C  C116  1  0.11428000  0.02049000  0.55648000  1.0
  C  C117  1  0.78721000  0.29610000  0.23700000  1.0
  C  C118  1  0.46168000  0.77144000  0.59091000  1.0
  C  C119  1  0.88570000  0.97844000  0.44421000  1.0
  C  C120  1  0.90970000  0.17478000  0.99698000  1.0
  C  C121  1  0.48333000  0.67892000  0.14194000  1.0
  C  C122  1  0.10979000  0.42457000  0.92375000  1.0
  C  C123  1  0.89009000  0.07579000  0.42212000  1.0
  C  C124  1  0.62768000  0.57286000  0.03686000  1.0
  C  C125  1  0.29896000  0.31418000  0.61000000  1.0
  C  C126  1  0.29432000  0.47819000  0.01946000  1.0
  C  C127  1  0.39842000  0.97187000  0.85601000  1.0
  C  C128  1  0.56398000  0.02316000  0.41275000  1.0
  C  C129  1  0.56553000  0.52392000  0.08784000  1.0
  C  C130  1  0.34659000  0.92611000  0.79984000  1.0
  C  C131  1  0.38109000  0.32163000  0.96151000  1.0
  C  C132  1  0.25298000  0.78945000  0.75517000  1.0
  C  C133  1  0.09072000  0.32476000  0.49747000  1.0
  C  C134  1  0.02604000  0.09195000  0.58181000  1.0
  C  C135  1  0.35055000  0.86392000  0.94451000  1.0
  C  C136  1  0.48956000  0.16400000  0.91033000  1.0
  C  C137  1  0.19522000  0.14970000  0.48525000  1.0
  C  C138  1  0.88818000  0.42679000  0.28771000  1.0
  C  C139  1  0.93923000  0.06536000  0.62615000  1.0
  C  C140  1  0.43543000  0.97696000  0.58704000  1.0
  N  N1  1  0.40347000  0.44124000  0.57199000  1.0
  N  N2  1  0.91473000  0.94805000  0.07910000  1.0
  N  N3  1  0.59678000  0.05851000  0.07176000  1.0
  N  N4  1  0.40374000  0.94111000  0.92817000  1.0
  N  N5  1  0.91388000  0.44750000  0.42003000  1.0
  N  N6  1  0.08676000  0.05183000  0.92025000  1.0
  N  N7  1  0.08611000  0.55185000  0.58031000  1.0
  N  N8  1  0.59837000  0.55798000  0.42808000  1.0
  O  O1  1  0.44742000  0.37983000  0.36424000  1.0
  O  O2  1  0.72366000  0.82359000  0.55125000  1.0
  O  O3  1  0.55208000  0.87829000  0.03237000  1.0
  O  O4  1  0.27161000  0.17293000  0.44396000  1.0
  O  O5  1  0.44892000  0.62355000  0.53207000  1.0
  O  O6  1  0.68125000  0.72260000  0.99836000  1.0
  O  O7  1  0.97355000  0.62117000  0.45515000  1.0
  O  O8  1  0.86833000  0.13660000  0.94274000  1.0
  O  O9  1  0.02411000  0.37793000  0.54476000  1.0
  O  O10  1  0.02789000  0.87919000  0.95436000  1.0
  O  O11  1  0.97555000  0.12127000  0.04457000  1.0
  O  O12  1  0.31974000  0.27763000  0.00293000  1.0
  O  O13  1  0.27590000  0.67789000  0.05067000  1.0
  O  O14  1  0.55491000  0.37636000  0.46760000  1.0
  O  O15  1  0.72793000  0.32338000  0.94585000  1.0
  O  O16  1  0.31642000  0.78052000  0.49955000  1.0
  O  O17  1  0.86806000  0.63739000  0.55868000  1.0
  O  O18  1  0.13262000  0.86280000  0.05723000  1.0
  O  O19  1  0.44989000  0.87845000  0.13739000  1.0
  O  O20  1  0.68429000  0.21862000  0.50018000  1.0
  O  O21  1  0.45079000  0.12138000  0.96786000  1.0
  O  O22  1  0.55069000  0.12144000  0.86185000  1.0
  O  O23  1  0.55234000  0.62149000  0.63773000  1.0
  O  O24  1  0.13290000  0.36279000  0.44345000  1.0
