# generated using pymatgen
data_CuH20C27(NO4)2
_symmetry_space_group_name_H-M   'P 1'
_cell_length_a   7.77678000
_cell_length_b   9.06864000
_cell_length_c   27.78059000
_cell_angle_alpha   89.95719000
_cell_angle_beta   90.09249000
_cell_angle_gamma   90.03800000
_symmetry_Int_Tables_number   1
_chemical_formula_structural   CuH20C27(NO4)2
_chemical_formula_sum   'Cu2 H40 C54 N4 O16'
_cell_volume   1959.21752975
_cell_formula_units_Z   2
loop_
 _symmetry_equiv_pos_site_id
 _symmetry_equiv_pos_as_xyz
  1  'x, y, z'
loop_
 _atom_site_type_symbol
 _atom_site_label
 _atom_site_symmetry_multiplicity
 _atom_site_fract_x
 _atom_site_fract_y
 _atom_site_fract_z
 _atom_site_occupancy
  Cu  Cu0  1  0.66908000  0.50000000  0.50000000  1
  Cu  Cu1  1  0.33092000  0.50000000  0.50000000  1
  H  H2  1  0.51497000  0.87732000  0.11808000  1
  H  H3  1  0.53602000  0.12640000  0.88173000  1
  H  H4  1  0.41987000  0.13839000  0.12327000  1
  H  H5  1  0.39881000  0.86075000  0.87626000  1
  H  H6  1  0.40120000  0.86991000  0.96208000  1
  H  H7  1  0.42001000  0.12987000  0.03746000  1
  H  H8  1  0.52108000  0.12684000  0.96741000  1
  H  H9  1  0.50173000  0.87611000  0.03230000  1
  H  H10  1  0.26033000  0.62849000  0.35170000  1
  H  H11  1  0.26291000  0.36736000  0.64859000  1
  H  H12  1  0.73178000  0.38217000  0.34571000  1
  H  H13  1  0.73145000  0.62042000  0.65433000  1
  H  H14  1  0.18981000  0.87581000  0.24212000  1
  H  H15  1  0.28580000  0.84223000  0.29910000  1
  H  H16  1  0.91016000  0.78779000  0.26675000  1
  H  H17  1  0.99280000  0.71201000  0.32194000  1
  H  H18  1  0.06620000  0.96532000  0.35093000  1
  H  H19  1  0.84129000  0.94948000  0.33575000  1
  H  H20  1  0.98590000  0.04246000  0.29513000  1
  H  H21  1  0.24315000  0.12603000  0.76492000  1
  H  H22  1  0.31279000  0.15281000  0.70430000  1
  H  H23  1  0.94173000  0.17905000  0.74319000  1
  H  H24  1  0.00377000  0.22142000  0.68219000  1
  H  H25  1  0.10769000  0.96243000  0.67119000  1
  H  H26  1  0.88508000  0.96668000  0.68938000  1
  H  H27  1  0.04911000  0.92006000  0.73273000  1
  H  H28  1  0.97079000  0.45976000  0.26840000  1
  H  H29  1  0.83664000  0.56340000  0.22705000  1
  H  H30  1  0.87892000  0.38070000  0.16329000  1
  H  H31  1  0.08068000  0.45315000  0.18449000  1
  H  H32  1  0.11774000  0.22538000  0.23650000  1
  H  H33  1  0.10465000  0.18490000  0.17292000  1
  H  H34  1  0.92146000  0.15139000  0.21089000  1
  H  H35  1  0.99804000  0.61490000  0.73392000  1
  H  H36  1  0.88677000  0.44369000  0.74222000  1
  H  H37  1  0.84401000  0.49915000  0.82917000  1
  H  H38  1  0.06689000  0.49470000  0.81251000  1
  H  H39  1  0.06978000  0.77237000  0.80833000  1
  H  H40  1  0.01243000  0.70337000  0.86700000  1
  H  H41  1  0.84743000  0.77451000  0.82772000  1
  C  C42  1  0.50003000  0.77998000  0.49998000  1
  C  C43  1  0.49996000  0.22002000  0.50000000  1
  C  C44  1  0.49973000  0.50125000  0.40725000  1
  C  C45  1  0.50000000  0.49878000  0.59274000  1
  C  C46  1  0.49407000  0.64122000  0.17672000  1
  C  C47  1  0.50415000  0.36167000  0.82313000  1
  C  C48  1  0.45686000  0.38014000  0.17853000  1
  C  C49  1  0.44701000  0.62006000  0.82107000  1
  C  C50  1  0.62231000  0.44223000  0.27750000  1
  C  C51  1  0.62233000  0.56046000  0.72262000  1
  C  C52  1  0.35848000  0.58828000  0.28023000  1
  C  C53  1  0.36132000  0.41109000  0.71959000  1
  C  C54  1  0.62845000  0.44055000  0.32774000  1
  C  C55  1  0.62870000  0.56143000  0.67230000  1
  C  C56  1  0.36235000  0.57909000  0.33077000  1
  C  C57  1  0.36462000  0.41934000  0.66919000  1
  C  C58  1  0.48596000  0.51428000  0.25361000  1
  C  C59  1  0.48691000  0.48729000  0.74631000  1
  C  C60  1  0.46634000  0.50674000  0.10162000  1
  C  C61  1  0.46626000  0.49472000  0.89807000  1
  C  C62  1  0.48505000  0.64137000  0.12626000  1
  C  C63  1  0.49351000  0.36102000  0.87352000  1
  C  C64  1  0.45293000  0.37488000  0.12809000  1
  C  C65  1  0.44432000  0.62570000  0.87153000  1
  C  C66  1  0.49713000  0.77262000  0.10005000  1
  C  C67  1  0.51251000  0.23038000  0.89973000  1
  C  C68  1  0.43519000  0.24091000  0.10374000  1
  C  C69  1  0.41976000  0.75895000  0.89584000  1
  C  C70  1  0.49784000  0.50758000  0.35451000  1
  C  C71  1  0.49874000  0.49266000  0.64547000  1
  C  C72  1  0.45080000  0.63473000  0.97345000  1
  C  C73  1  0.45807000  0.36643000  0.02620000  1
  C  C74  1  0.47270000  0.36351000  0.97532000  1
  C  C75  1  0.46542000  0.63814000  0.02436000  1
  C  C76  1  0.46275000  0.49762000  0.94911000  1
  C  C77  1  0.46279000  0.50380000  0.05056000  1
  C  C78  1  0.42412000  0.76381000  0.94585000  1
  C  C79  1  0.43837000  0.23646000  0.05374000  1
  C  C80  1  0.50083000  0.23113000  0.94966000  1
  C  C81  1  0.48640000  0.77136000  0.05008000  1
  C  C82  1  0.50004000  0.93458000  0.49998000  1
  C  C83  1  0.49995000  0.06541000  0.49999000  1
  C  C84  1  0.18791000  0.79891000  0.27328000  1
  C  C85  1  0.00778000  0.80312000  0.29554000  1
  C  C86  1  0.97373000  0.94944000  0.32086000  1
  C  C87  1  0.21713000  0.19031000  0.73163000  1
  C  C88  1  0.03548000  0.15319000  0.71424000  1
  C  C89  1  0.01886000  0.99035000  0.70110000  1
  C  C90  1  0.87851000  0.45054000  0.23792000  1
  C  C91  1  0.96908000  0.38286000  0.19439000  1
  C  C92  1  0.03202000  0.22642000  0.20450000  1
  C  C93  1  0.89443000  0.56027000  0.75492000  1
  C  C94  1  0.94504000  0.55725000  0.80825000  1
  C  C95  1  0.97001000  0.71180000  0.82891000  1
  N  N96  1  0.47756000  0.51199000  0.20185000  1
  N  N97  1  0.47810000  0.48953000  0.79795000  1
  N  N98  1  0.07682000  0.50000000  0.50000000  1
  N  N99  1  0.92318000  0.50000000  0.50000000  1
  O  O100  1  0.64276000  0.71161000  0.50000000  1
  O  O101  1  0.35724000  0.28839000  0.50000000  1
  O  O102  1  0.64276000  0.28839000  0.50000000  1
  O  O103  1  0.35724000  0.71161000  0.50000000  1
  O  O104  1  0.64277000  0.50000000  0.43026000  1
  O  O105  1  0.35723000  0.50000000  0.56974000  1
  O  O106  1  0.64277000  0.50000000  0.56974000  1
  O  O107  1  0.35723000  0.50000000  0.43026000  1
  O  O108  1  0.52123000  0.76893000  0.20047000  1
  O  O109  1  0.54291000  0.23609000  0.79950000  1
  O  O110  1  0.44099000  0.25429000  0.20409000  1
  O  O111  1  0.41960000  0.74405000  0.79528000  1
  O  O112  1  0.22321000  0.65517000  0.25573000  1
  O  O113  1  0.22668000  0.34232000  0.74340000  1
  O  O114  1  0.73949000  0.35990000  0.25169000  1
  O  O115  1  0.74035000  0.64133000  0.74891000  1
