# generated using pymatgen
data_H30C43N6
_symmetry_space_group_name_H-M   'P 1'
_cell_length_a   30.25580000
_cell_length_b   32.96790000
_cell_length_c   61.38270000
_cell_angle_alpha   90.00000000
_cell_angle_beta   90.00000000
_cell_angle_gamma   90.00120000
_symmetry_Int_Tables_number   1
_chemical_formula_structural   H30C43N6
_chemical_formula_sum   'H240 C344 N48'
_cell_volume   61227.41334585
_cell_formula_units_Z   8
loop_
 _symmetry_equiv_pos_site_id
 _symmetry_equiv_pos_as_xyz
  1  'x, y, z'
loop_
 _atom_site_type_symbol
 _atom_site_label
 _atom_site_symmetry_multiplicity
 _atom_site_fract_x
 _atom_site_fract_y
 _atom_site_fract_z
 _atom_site_occupancy
  H  25  1  0.91592800  0.60027300  0.83262100  1
  H  26  1  0.95017500  0.66428200  0.82582700  1
  H  27  1  0.95222000  0.81214100  0.82637100  1
  H  28  1  0.92183300  0.87621400  0.83547300  1
  H  29  1  0.80424800  0.81986300  0.85584200  1
  H  30  1  0.80187500  0.66001700  0.85506600  1
  H  31  1  0.81917300  0.73931600  0.80534100  1
  H  32  1  0.68055800  0.73414300  0.80035100  1
  H  33  1  0.67454800  0.73806600  0.83884800  1
  H  34  1  0.88612900  0.73581000  0.88648300  1
  H  35  1  0.73387400  0.73887500  0.91097000  1
  H  36  1  0.79107500  0.73372200  0.93664900  1
  H  39  1  0.95117400  0.73838200  0.84000800  1
  H  40  1  0.92673900  0.73852700  0.81373400  1
  H  42  1  0.71698200  0.76824300  0.87256600  1
  H  43  1  0.71583400  0.71435800  0.87284200  1
  H  72  1  0.91570200  0.87944100  0.14682300  1
  H  73  1  0.94990800  0.81543900  0.15362700  1
  H  74  1  0.95194700  0.66754000  0.15310500  1
  H  75  1  0.92159400  0.60347700  0.14395400  1
  H  76  1  0.80386900  0.65976200  0.12376100  1
  H  77  1  0.80163200  0.81972500  0.12436600  1
  H  78  1  0.81721300  0.74059200  0.17384400  1
  H  79  1  0.67842200  0.74475300  0.17763500  1
  H  80  1  0.67380100  0.74140700  0.13898700  1
  H  81  1  0.88795200  0.73962900  0.09492400  1
  H  82  1  0.73820800  0.74062400  0.06703500  1
  H  83  1  0.79771400  0.74269700  0.04282500  1
  H  86  1  0.95070300  0.74126300  0.13942600  1
  H  87  1  0.92664500  0.74125200  0.16578000  1
  H  89  1  0.71749000  0.71236200  0.10538300  1
  H  90  1  0.71708300  0.76623400  0.10524600  1
  H  119  1  0.88434900  0.10365100  0.14417300  1
  H  120  1  0.85393600  0.16767300  0.15331400  1
  H  121  1  0.85578400  0.31554700  0.15383800  1
  H  122  1  0.89000900  0.37958600  0.14707100  1
  H  123  1  0.00401500  0.31988300  0.12452200  1
  H  124  1  0.00203500  0.16003100  0.12398800  1
  H  125  1  0.98686600  0.24004900  0.17438000  1
  H  126  1  0.12545700  0.23438400  0.17939800  1
  H  127  1  0.13151200  0.23823400  0.14090300  1
  H  128  1  0.91993800  0.23667200  0.09321100  1
  H  129  1  0.07223700  0.23846900  0.06877400  1
  H  130  1  0.01505100  0.23316300  0.04309900  1
  H  133  1  0.85490900  0.24132900  0.13967300  1
  H  134  1  0.87930000  0.24142100  0.16595600  1
  H  136  1  0.08915300  0.26840500  0.10714100  1
  H  137  1  0.09020700  0.21451900  0.10692800  1
  H  166  1  0.88460100  0.37607300  0.83565700  1
  H  167  1  0.85421600  0.31203100  0.82652100  1
  H  168  1  0.85606300  0.16411200  0.82605900  1
  H  169  1  0.89024700  0.10009300  0.83288000  1
  H  170  1  0.00441200  0.15977000  0.85524200  1
  H  171  1  0.00222100  0.31971600  0.85595000  1
  H  172  1  0.98886800  0.24033700  0.80581200  1
  H  173  1  0.12766800  0.24441200  0.80203700  1
  H  174  1  0.13226800  0.24097000  0.84068300  1
  H  175  1  0.91807000  0.23884000  0.88467100  1
  H  176  1  0.06772900  0.24105300  0.91264200  1
  H  177  1  0.00812400  0.24370300  0.93679800  1
  H  180  1  0.85537000  0.23829900  0.84024200  1
  H  181  1  0.87939000  0.23833900  0.81387800  1
  H  183  1  0.08851800  0.21198600  0.87429500  1
  H  184  1  0.08898700  0.26585700  0.87442600  1
  H  213  1  0.41591700  0.10008400  0.33260200  1
  H  214  1  0.45016500  0.16411000  0.32584000  1
  H  215  1  0.45201600  0.31198400  0.32629200  1
  H  216  1  0.42159800  0.37604900  0.33534700  1
  H  217  1  0.30431200  0.31964900  0.35608100  1
  H  218  1  0.30193200  0.15979100  0.35517700  1
  H  219  1  0.31957100  0.23908700  0.30558100  1
  H  220  1  0.18104900  0.24501100  0.30021500  1
  H  221  1  0.17471000  0.24275700  0.33879300  1
  H  222  1  0.38615700  0.23553600  0.38658100  1
  H  223  1  0.23392500  0.23837500  0.41112600  1
  H  224  1  0.29125300  0.23392000  0.43681400  1
  H  227  1  0.45118900  0.23821900  0.34002900  1
  H  228  1  0.42660200  0.23837600  0.31379100  1
  H  230  1  0.21675500  0.26734800  0.37296800  1
  H  231  1  0.21604700  0.21346300  0.37264300  1
  H  260  1  0.41570500  0.37954600  0.64682400  1
  H  261  1  0.44990000  0.31552700  0.65361900  1
  H  262  1  0.45179700  0.16762300  0.65316100  1
  H  263  1  0.42142600  0.10356900  0.64404100  1
  H  264  1  0.30390200  0.15988800  0.62360100  1
  H  265  1  0.30167100  0.31986200  0.62429200  1
  H  266  1  0.31756500  0.24019100  0.67370000  1
  H  267  1  0.17883500  0.23535300  0.67781000  1
  H  268  1  0.17391000  0.23790100  0.63910900  1
  H  269  1  0.38785600  0.23958800  0.59475900  1
  H  270  1  0.23802700  0.24111400  0.56698700  1
  H  271  1  0.29751000  0.24238300  0.54269900  1
  H  274  1  0.45070700  0.24135500  0.63940300  1
  H  275  1  0.42655600  0.24132400  0.66574000  1
  H  277  1  0.21710200  0.21347500  0.60513600  1
  H  278  1  0.21734000  0.26733600  0.60549600  1
  H  307  1  0.38431900  0.60347200  0.64419500  1
  H  308  1  0.35391200  0.66752500  0.65330000  1
  H  309  1  0.35595500  0.81539200  0.65389400  1
  H  310  1  0.39020900  0.87941200  0.64714700  1
  H  311  1  0.50391600  0.81968900  0.62426200  1
  H  312  1  0.50193700  0.65982000  0.62387500  1
  H  313  1  0.48645900  0.73976700  0.67411700  1
  H  314  1  0.62499700  0.74530000  0.67949100  1
  H  315  1  0.63133700  0.74299000  0.64091500  1
  H  316  1  0.41987000  0.73639500  0.59308300  1
  H  317  1  0.57216400  0.73807700  0.56859500  1
  H  318  1  0.51487000  0.73334100  0.54290700  1
  H  321  1  0.35484700  0.74120200  0.63964600  1
  H  322  1  0.37942400  0.74127100  0.66588800  1
  H  324  1  0.58932500  0.76757800  0.60671500  1
  H  325  1  0.58997300  0.71369300  0.60709100  1
  H  354  1  0.38458700  0.87614300  0.33569100  1
  H  355  1  0.35420900  0.81209100  0.32656000  1
  H  356  1  0.35614600  0.66418500  0.32602000  1
  H  357  1  0.39034500  0.60016000  0.33281900  1
  H  358  1  0.50431300  0.65982900  0.35542600  1
  H  359  1  0.50221400  0.81980200  0.35598800  1
  H  360  1  0.48850800  0.73945600  0.30595800  1
  H  361  1  0.62725800  0.73512600  0.30187200  1
  H  362  1  0.63214600  0.73772300  0.34057700  1
  H  363  1  0.41814100  0.73874900  0.38486600  1
  H  364  1  0.56790700  0.74156900  0.41269000  1
  H  365  1  0.50834500  0.74332300  0.43694600  1
  H  368  1  0.35534000  0.73837300  0.34027000  1
  H  369  1  0.37945800  0.73838800  0.31392700  1
  H  371  1  0.58895100  0.71322700  0.37456500  1
  H  372  1  0.58863400  0.76708800  0.37416400  1
  H  383  1  0.83696100  0.73024000  0.01542000  1
  H  384  1  0.82174400  0.73766000  0.97839600  1
  H  385  1  0.95728700  0.74719900  0.96509300  1
  H  387  1  0.00859600  0.74176000  0.99341400  1
  H  388  1  0.99537900  0.73792300  0.01932200  1
  H  390  1  0.85865900  0.78074300  0.94681000  1
  H  392  1  0.94246900  0.73880600  0.04327300  1
  H  399  1  0.96896400  0.23001400  0.96407300  1
  H  400  1  0.98443000  0.23745200  0.00107400  1
  H  401  1  0.84898600  0.24708900  0.01458300  1
  H  403  1  0.79749900  0.24173500  0.98631700  1
  H  404  1  0.81058400  0.23804400  0.96038600  1
  H  406  1  0.94809900  0.28046300  0.03260900  1
  H  408  1  0.86338400  0.23903600  0.93636100  1
  H  415  1  0.33681100  0.23008400  0.51516800  1
  H  416  1  0.32195400  0.23767900  0.47808400  1
  H  417  1  0.45761800  0.24742800  0.46511300  1
  H  419  1  0.50867200  0.24185700  0.49350400  1
  H  420  1  0.49527000  0.23777100  0.51937100  1
  H  422  1  0.35965300  0.28118000  0.44670300  1
  H  424  1  0.44220600  0.23841300  0.54319200  1
  H  431  1  0.46913000  0.72984000  0.46439300  1
  H  432  1  0.48416500  0.73752400  0.50145600  1
  H  433  1  0.34857400  0.74745600  0.51457300  1
  H  435  1  0.29739100  0.74189900  0.48621900  1
  H  436  1  0.31071000  0.73786300  0.46033500  1
  H  438  1  0.44693900  0.78104700  0.53296800  1
  H  440  1  0.36370500  0.73854500  0.43644900  1
  H  447  1  0.90175200  0.93757700  0.82275100  1
  H  448  1  0.95717100  0.98856500  0.82086500  1
  H  449  1  0.89875100  0.05001700  0.87337500  1
  H  451  1  0.83655900  0.02236500  0.89072000  1
  H  452  1  0.81611300  0.97724400  0.88487200  1
  H  454  1  0.99801000  0.03671100  0.84950300  1
  H  456  1  0.80646500  0.93776700  0.85446400  1
  H  463  1  0.90155500  0.54221100  0.15685400  1
  H  464  1  0.95696600  0.49122900  0.15883500  1
  H  465  1  0.89870300  0.42958300  0.10634600  1
  H  467  1  0.83656800  0.45718700  0.08892400  1
  H  468  1  0.81610800  0.50232800  0.09470900  1
  H  470  1  0.99788100  0.44285700  0.13036900  1
  H  472  1  0.80631800  0.54178400  0.12510100  1
  H  479  1  0.90418900  0.04222500  0.15684600  1
  H  480  1  0.84884300  0.99118300  0.15877600  1
  H  481  1  0.90736900  0.92960200  0.10635300  1
  H  483  1  0.96960700  0.95715500  0.08904200  1
  H  484  1  0.99004400  0.00229900  0.09483500  1
  H  486  1  0.80804800  0.94287300  0.13024100  1
  H  488  1  0.99952000  0.04204300  0.12507500  1
  H  495  1  0.90429000  0.43746600  0.82283000  1
  H  496  1  0.84899400  0.48855400  0.82086200  1
  H  497  1  0.90746700  0.55012100  0.87331100  1
  H  499  1  0.96951200  0.52236800  0.89074000  1
  H  500  1  0.98983500  0.47717000  0.88496600  1
  H  502  1  0.80821400  0.53695200  0.84935400  1
  H  504  1  0.99965200  0.43785600  0.85450900  1
  H  511  1  0.40185300  0.43753000  0.32277200  1
  H  512  1  0.45721800  0.48856500  0.32089700  1
  H  513  1  0.39865100  0.55000200  0.37336400  1
  H  515  1  0.33648100  0.52229900  0.39069700  1
  H  516  1  0.31610800  0.47714500  0.38485900  1
  H  518  1  0.49798000  0.53675500  0.34951900  1
  H  520  1  0.30649300  0.43769200  0.35443600  1
  H  527  1  0.40168800  0.04219700  0.65683700  1
  H  528  1  0.45703300  0.99115700  0.65880900  1
  H  529  1  0.39862700  0.92953600  0.60636000  1
  H  531  1  0.33652700  0.95720800  0.58894500  1
  H  532  1  0.31614400  0.00238400  0.59472000  1
  H  534  1  0.49787800  0.94273000  0.63039100  1
  H  536  1  0.30636700  0.04178800  0.62513900  1
  H  543  1  0.40430900  0.54211300  0.65691200  1
  H  544  1  0.34888800  0.49112300  0.65879800  1
  H  545  1  0.40733000  0.42966100  0.60630000  1
  H  547  1  0.46951300  0.45731400  0.58895400  1
  H  548  1  0.48994200  0.50244600  0.59478800  1
  H  550  1  0.30805300  0.44296300  0.63017000  1
  H  552  1  0.49960600  0.54189000  0.62518800  1
  H  559  1  0.40445100  0.93746400  0.32282600  1
  H  560  1  0.34905700  0.98846200  0.32085100  1
  H  561  1  0.40736600  0.05009500  0.37332800  1
  H  563  1  0.46949300  0.02247900  0.39074200  1
  H  564  1  0.48993200  0.97732800  0.38496000  1
  H  566  1  0.30816200  0.03678400  0.34936600  1
  H  568  1  0.49972200  0.93788800  0.35455900  1
  H  575  1  0.63548500  0.69884200  0.70872100  1
  H  576  1  0.70689500  0.69615400  0.72461100  1
  H  577  1  0.66879700  0.78119500  0.77189200  1
  H  579  1  0.59568700  0.80552400  0.77242500  1
  H  580  1  0.55930100  0.79545900  0.75310000  1
  H  582  1  0.76133300  0.73522900  0.74687000  1
  H  584  1  0.54158200  0.73821200  0.73258400  1
  H  591  1  0.63740200  0.77927500  0.27167400  1
  H  592  1  0.70800600  0.78236800  0.25499200  1
  H  593  1  0.66702900  0.69979800  0.20700000  1
  H  595  1  0.59399800  0.67525800  0.20722600  1
  H  596  1  0.55872600  0.68450600  0.22715500  1
  H  598  1  0.76104200  0.74510000  0.23147100  1
  H  600  1  0.54197200  0.74073800  0.24838600  1
  H  607  1  0.17052200  0.19872900  0.27093500  1
  H  608  1  0.09909500  0.19621900  0.25506100  1
  H  609  1  0.13731900  0.28136400  0.20786000  1
  H  611  1  0.21047800  0.30554600  0.20731800  1
  H  612  1  0.24686500  0.29536700  0.22662400  1
  H  614  1  0.04471800  0.23551100  0.23286900  1
  H  616  1  0.26450400  0.23808500  0.24711200  1
  H  623  1  0.16860900  0.27939600  0.70802200  1
  H  624  1  0.09799400  0.28233700  0.72469600  1
  H  625  1  0.13908400  0.19968700  0.77262300  1
  H  627  1  0.21215700  0.17526200  0.77239000  1
  H  628  1  0.24742300  0.18461400  0.75247300  1
  H  630  1  0.04501200  0.24495400  0.74819500  1
  H  632  1  0.26409800  0.24094800  0.73129400  1
  C  1  1  0.81953000  0.73933200  0.87515400  1
  C  2  1  0.77524700  0.74026400  0.88296700  1
  C  3  1  0.74369700  0.74015500  0.84517600  1
  C  4  1  0.78678300  0.73991400  0.83596200  1
  C  5  1  0.78883000  0.73932700  0.81270000  1
  C  6  1  0.75046200  0.73805700  0.79927700  1
  C  7  1  0.70877400  0.73689000  0.80930600  1
  C  8  1  0.70541700  0.73875300  0.83198500  1
  C  9  1  0.76581800  0.73904800  0.90540400  1
  C  10  1  0.79973900  0.73615700  0.92056100  1
  C  11  1  0.84447800  0.73618200  0.91413600  1
  C  12  1  0.85385400  0.73721600  0.89134700  1
  C  13  1  0.85289200  0.70023500  0.84542100  1
  C  14  1  0.89630900  0.70059800  0.83657500  1
  C  15  1  0.89694100  0.77707400  0.83648800  1
  C  16  1  0.85370800  0.77845700  0.84553800  1
  C  17  1  0.92083500  0.81320100  0.83260600  1
  C  18  1  0.90290500  0.85110100  0.83786200  1
  C  19  1  0.85976600  0.85412900  0.84617600  1
  C  20  1  0.83563400  0.81774000  0.84973400  1
  C  21  1  0.83351600  0.66141600  0.84920900  1
  C  22  1  0.85608800  0.62451100  0.84494400  1
  C  23  1  0.89923000  0.62623800  0.83651100  1
  C  24  1  0.91901400  0.66388700  0.83234200  1
  C  37  1  0.82818000  0.73956400  0.85049200  1
  C  38  1  0.91968000  0.73863300  0.83122300  1
  C  41  1  0.73603600  0.74089500  0.86877600  1
  C  48  1  0.82038300  0.73993100  0.10458800  1
  C  49  1  0.77679400  0.73968700  0.09594400  1
  C  50  1  0.74315300  0.73974300  0.13327600  1
  C  51  1  0.78579600  0.73987000  0.14301000  1
  C  52  1  0.78711800  0.74045800  0.16622800  1
  C  53  1  0.74831400  0.74153300  0.17924300  1
  C  54  1  0.70693800  0.74231300  0.16887500  1
  C  55  1  0.70439600  0.74078300  0.14613600  1
  C  56  1  0.76961800  0.74020600  0.07329300  1
  C  57  1  0.80515700  0.74094900  0.05887200  1
  C  58  1  0.84900600  0.74015800  0.06644600  1
  C  59  1  0.85612300  0.73987000  0.08930600  1
  C  60  1  0.85249900  0.77949400  0.13420900  1
  C  61  1  0.89595400  0.77912400  0.14299500  1
  C  62  1  0.89651700  0.70258400  0.14320200  1
  C  63  1  0.85316200  0.70113800  0.13432100  1
  C  64  1  0.92049600  0.66646500  0.14695200  1
  C  65  1  0.90260100  0.62857300  0.14164400  1
  C  66  1  0.85945700  0.62551800  0.13334400  1
  C  67  1  0.83521600  0.66187700  0.12992300  1
  C  68  1  0.83324500  0.81832400  0.13025700  1
  C  69  1  0.85584800  0.85523300  0.13449100  1
  C  70  1  0.89899400  0.85349200  0.14291800  1
  C  71  1  0.91873300  0.81583500  0.14713000  1
  C  84  1  0.82788600  0.74007400  0.12916900  1
  C  85  1  0.91933500  0.74107000  0.14831900  1
  C  88  1  0.73666500  0.73945300  0.10953100  1
  C  95  1  0.98654300  0.23993100  0.10455400  1
  C  96  1  0.03084300  0.24047600  0.09675600  1
  C  97  1  0.06237100  0.24041600  0.13455800  1
  C  98  1  0.01927800  0.24024900  0.14376200  1
  C  99  1  0.01721300  0.23987200  0.16702600  1
  C  100  1  0.05556600  0.23853300  0.18046000  1
  C  101  1  0.09725700  0.23721700  0.17043700  1
  C  102  1  0.10063500  0.23897300  0.14775800  1
  C  103  1  0.04028600  0.23888100  0.07432900  1
  C  104  1  0.00637200  0.23592000  0.05917000  1
  C  105  1  0.96161300  0.23633600  0.06556300  1
  C  106  1  0.95222600  0.23782500  0.08835100  1
  C  107  1  0.95256000  0.20140200  0.13434300  1
  C  108  1  0.90925900  0.20277800  0.14330900  1
  C  109  1  0.90964300  0.27926400  0.14303700  1
  C  110  1  0.95300400  0.27963500  0.13412100  1
  C  111  1  0.88691900  0.31596300  0.14729100  1
  C  112  1  0.90668200  0.35363300  0.14313500  1
  C  113  1  0.94982600  0.35535400  0.13469900  1
  C  114  1  0.97236300  0.31846400  0.13035900  1
  C  115  1  0.97066800  0.16212400  0.13012600  1
  C  116  1  0.94649200  0.12572800  0.13359200  1
  C  117  1  0.90332600  0.12875700  0.14186600  1
  C  118  1  0.88538900  0.16663600  0.14716100  1
  C  131  1  0.97789300  0.24034600  0.12922100  1
  C  132  1  0.88638800  0.24121200  0.14847000  1
  C  135  1  0.07004600  0.24109900  0.11095800  1
  C  142  1  0.98565700  0.23931200  0.87505300  1
  C  143  1  0.02922700  0.23935700  0.88371800  1
  C  144  1  0.06291300  0.23945200  0.84639000  1
  C  145  1  0.02027700  0.23967200  0.83664800  1
  C  146  1  0.01896100  0.24027300  0.81343100  1
  C  147  1  0.05776700  0.24134700  0.80041900  1
  C  148  1  0.09914100  0.24205200  0.81079400  1
  C  149  1  0.10167300  0.24047500  0.83353300  1
  C  150  1  0.03634000  0.24030700  0.90637200  1
  C  151  1  0.00075000  0.24131300  0.92076500  1
  C  152  1  0.95692200  0.24012400  0.91316900  1
  C  153  1  0.94988200  0.23929900  0.89031100  1
  C  154  1  0.95290700  0.27834600  0.84539600  1
  C  155  1  0.90958200  0.27694700  0.83647400  1
  C  156  1  0.91008500  0.20040300  0.83662300  1
  C  157  1  0.95357100  0.19998800  0.84536400  1
  C  158  1  0.88726500  0.16370300  0.83252500  1
  C  159  1  0.90699900  0.12604300  0.83673600  1
  C  160  1  0.95015500  0.12429600  0.84515400  1
  C  161  1  0.97280000  0.16117800  0.84934700  1
  C  162  1  0.97087200  0.31761800  0.84979000  1
  C  163  1  0.94667900  0.35401000  0.84633300  1
  C  164  1  0.90356100  0.35096700  0.83800100  1
  C  165  1  0.88564100  0.31308200  0.83270500  1
  C  178  1  0.97817900  0.23933000  0.85047500  1
  C  179  1  0.88672500  0.23848500  0.83133500  1
  C  182  1  0.06937800  0.23909100  0.87013800  1
  C  189  1  0.31953200  0.23895300  0.37529300  1
  C  190  1  0.27523900  0.23962600  0.38310300  1
  C  191  1  0.24378400  0.24053500  0.34528100  1
  C  192  1  0.28691300  0.23992600  0.33612400  1
  C  193  1  0.28917700  0.23995000  0.31287700  1
  C  194  1  0.25097600  0.24132100  0.29937000  1
  C  195  1  0.20918600  0.24291200  0.30928900  1
  C  196  1  0.20563000  0.24189000  0.33199400  1
  C  197  1  0.26585900  0.23855500  0.40554900  1
  C  198  1  0.29984000  0.23615600  0.42070800  1
  C  199  1  0.34454800  0.23621800  0.41423700  1
  C  200  1  0.35388600  0.23692800  0.39145600  1
  C  201  1  0.35293700  0.20000100  0.34552400  1
  C  202  1  0.39633000  0.20039900  0.33665000  1
  C  203  1  0.39691200  0.27688200  0.33660000  1
  C  204  1  0.35376300  0.27824000  0.34574600  1
  C  205  1  0.42070300  0.31302400  0.33261700  1
  C  206  1  0.40274600  0.35092700  0.33783800  1
  C  207  1  0.35968300  0.35395400  0.34624400  1
  C  208  1  0.33565800  0.31753600  0.34992300  1
  C  209  1  0.33355200  0.16119300  0.34929600  1
  C  210  1  0.35610300  0.12431500  0.34497400  1
  C  211  1  0.39922900  0.12603900  0.33651800  1
  C  212  1  0.41901400  0.16370000  0.33236700  1
  C  225  1  0.32825100  0.23929000  0.35065600  1
  C  226  1  0.41964500  0.23845800  0.33128900  1
  C  229  1  0.23604000  0.24027400  0.36888900  1
  C  236  1  0.32032200  0.24019400  0.60447700  1
  C  237  1  0.27669700  0.24028100  0.59587000  1
  C  238  1  0.24320900  0.23966100  0.63325500  1
  C  239  1  0.28590800  0.23984700  0.64292600  1
  C  240  1  0.28742200  0.23962600  0.66613700  1
  C  241  1  0.24875500  0.23835400  0.67922700  1
  C  242  1  0.20728900  0.23721600  0.66895100  1
  C  243  1  0.20456200  0.23845700  0.64619800  1
  C  244  1  0.26945500  0.24062300  0.57321900  1
  C  245  1  0.30494900  0.24090300  0.55876000  1
  C  246  1  0.34879600  0.24007300  0.56631000  1
  C  247  1  0.35600700  0.23993400  0.58916600  1
  C  248  1  0.35252400  0.27963000  0.63414000  1
  C  249  1  0.39596000  0.27923300  0.64294800  1
  C  250  1  0.39648600  0.20269500  0.64312300  1
  C  251  1  0.35319800  0.20126900  0.63416200  1
  C  252  1  0.42039800  0.16656700  0.64694300  1
  C  253  1  0.40248500  0.12867200  0.64166000  1
  C  254  1  0.35939900  0.12561300  0.63328900  1
  C  255  1  0.33522500  0.16199700  0.62979000  1
  C  256  1  0.33333333  0.31845200  0.63020400  1
  C  257  1  0.35586200  0.35534300  0.63447000  1
  C  258  1  0.39897800  0.35359900  0.64293900  1
  C  259  1  0.41872300  0.31593600  0.64712500  1
  C  272  1  0.32792700  0.24024800  0.62904700  1
  C  273  1  0.41930800  0.24116600  0.64827200  1
  C  276  1  0.23661900  0.24024100  0.60951200  1
  C  283  1  0.48650500  0.73955300  0.60439200  1
  C  284  1  0.53081400  0.73988100  0.59659500  1
  C  285  1  0.56225900  0.74082800  0.63442300  1
  C  286  1  0.51912300  0.74026300  0.64357600  1
  C  287  1  0.51685600  0.74047100  0.66682300  1
  C  288  1  0.55505700  0.74178800  0.68033300  1
  C  289  1  0.59685700  0.74327800  0.67041500  1
  C  290  1  0.60041400  0.74219000  0.64771200  1
  C  291  1  0.54022300  0.73845800  0.57415900  1
  C  292  1  0.50626300  0.73586100  0.55899800  1
  C  293  1  0.46154100  0.73615900  0.56544400  1
  C  294  1  0.45215800  0.73750600  0.58821800  1
  C  295  1  0.45246500  0.70119000  0.63421300  1
  C  296  1  0.40918400  0.70260400  0.64319800  1
  C  297  1  0.40964300  0.77908800  0.64291400  1
  C  298  1  0.45291800  0.77943400  0.63389400  1
  C  299  1  0.38702300  0.81579700  0.64727200  1
  C  300  1  0.40682100  0.85345800  0.64314500  1
  C  301  1  0.44986100  0.85518700  0.63458900  1
  C  302  1  0.47229900  0.81827600  0.63014800  1
  C  303  1  0.47057100  0.66192500  0.63001100  1
  C  304  1  0.44640300  0.62555000  0.63352100  1
  C  305  1  0.40325800  0.62858200  0.64182600  1
  C  306  1  0.38531400  0.66647300  0.64708500  1
  C  319  1  0.47778900  0.74008600  0.62903200  1
  C  320  1  0.38638800  0.74105600  0.64839000  1
  C  323  1  0.57000600  0.74053600  0.61081700  1
  C  330  1  0.48569200  0.73955000  0.37517600  1
  C  331  1  0.52930300  0.73996500  0.38379600  1
  C  332  1  0.56283700  0.73936900  0.34641700  1
  C  333  1  0.52014800  0.73948800  0.33673700  1
  C  334  1  0.51864700  0.73907700  0.31352700  1
  C  335  1  0.55732800  0.73788400  0.30044500  1
  C  336  1  0.59879400  0.73689300  0.31072800  1
  C  337  1  0.60149800  0.73819300  0.33348000  1
  C  338  1  0.53649500  0.74076900  0.40645000  1
  C  339  1  0.50096800  0.74128400  0.42088900  1
  C  340  1  0.45713500  0.74001300  0.41332200  1
  C  341  1  0.44997600  0.73933800  0.39047000  1
  C  342  1  0.45289500  0.77842800  0.34545100  1
  C  343  1  0.40957100  0.77701900  0.33653000  1
  C  344  1  0.41006300  0.70047500  0.33671700  1
  C  345  1  0.45347600  0.70006400  0.34554500  1
  C  346  1  0.38731100  0.66377300  0.33253000  1
  C  347  1  0.40705900  0.62611000  0.33671400  1
  C  348  1  0.45014500  0.62435500  0.34521600  1
  C  349  1  0.47272600  0.66124200  0.34949900  1
  C  350  1  0.47087800  0.81769900  0.34981500  1
  C  351  1  0.44667800  0.85408400  0.34635700  1
  C  352  1  0.40355200  0.85103900  0.33803400  1
  C  353  1  0.38563800  0.81314900  0.33273700  1
  C  366  1  0.47812000  0.73943400  0.35060400  1
  C  367  1  0.38672900  0.73855100  0.33139300  1
  C  370  1  0.56939800  0.73995500  0.37016500  1
  C  377  1  0.86323500  0.73447600  0.00562100  1
  C  378  1  0.85415300  0.73742300  0.98328100  1
  C  379  1  0.88846200  0.74262300  0.96800300  1
  C  380  1  0.93214100  0.74276800  0.97601000  1
  C  381  1  0.94186500  0.73990100  0.99874300  1
  C  382  1  0.90644800  0.73738700  0.01431400  1
  C  389  1  0.87677600  0.75541700  0.94714800  1
  C  391  1  0.91222900  0.73831500  0.03724900  1
  C  393  1  0.94277400  0.23441500  0.97390700  1
  C  394  1  0.95199100  0.23730000  0.99623700  1
  C  395  1  0.91779700  0.24251400  0.01158000  1
  C  396  1  0.87406700  0.24268300  0.00362800  1
  C  397  1  0.86420300  0.23991900  0.98090100  1
  C  398  1  0.89952700  0.23745700  0.96527600  1
  C  405  1  0.92964900  0.25533200  0.03243300  1
  C  407  1  0.89365400  0.23846400  0.94234800  1
  C  409  1  0.36318000  0.23431000  0.50541100  1
  C  410  1  0.35430900  0.23740100  0.48305300  1
  C  411  1  0.38877800  0.24275200  0.46787600  1
  C  412  1  0.43238000  0.24289500  0.47596600  1
  C  413  1  0.44189800  0.23986800  0.49870600  1
  C  414  1  0.40633800  0.23720800  0.51418700  1
  C  421  1  0.37743500  0.25565500  0.44700600  1
  C  423  1  0.41199300  0.23803900  0.53711900  1
  C  425  1  0.44282100  0.73423600  0.47417400  1
  C  426  1  0.45178700  0.73732700  0.49652400  1
  C  427  1  0.41740100  0.74271300  0.51174500  1
  C  428  1  0.37376300  0.74290300  0.50369400  1
  C  429  1  0.36414500  0.73991900  0.48096000  1
  C  430  1  0.39963900  0.73725400  0.46544100  1
  C  437  1  0.42893200  0.75567800  0.53258000  1
  C  439  1  0.39391800  0.73812200  0.44250800  1
  C  441  1  0.90139700  0.95993200  0.83425600  1
  C  442  1  0.93313700  0.99103600  0.83254600  1
  C  443  1  0.93243800  0.02489000  0.84664500  1
  C  444  1  0.89884100  0.02631800  0.86257000  1
  C  445  1  0.86737600  0.99452600  0.86505500  1
  C  446  1  0.86926000  0.95977700  0.85100600  1
  C  453  1  0.96908700  0.05052500  0.84767800  1
  C  455  1  0.83728400  0.92881900  0.85184000  1
  C  457  1  0.90124500  0.51982200  0.14536700  1
  C  458  1  0.93298300  0.48872600  0.14713100  1
  C  459  1  0.93231000  0.45480800  0.13307400  1
  C  460  1  0.89877300  0.45333000  0.11712000  1
  C  461  1  0.86731900  0.48511500  0.11458000  1
  C  462  1  0.86914900  0.51991000  0.12859800  1
  C  469  1  0.96891200  0.42910500  0.13214800  1
  C  471  1  0.83711300  0.55081200  0.12771900  1
  C  473  1  0.90458900  0.01983300  0.14536200  1
  C  474  1  0.87288600  0.98869000  0.14710400  1
  C  475  1  0.87361700  0.95476900  0.13304400  1
  C  476  1  0.90723500  0.95334400  0.11713100  1
  C  477  1  0.93868900  0.98515000  0.11462900  1
  C  478  1  0.93676400  0.01997600  0.12862800  1
  C  485  1  0.83698600  0.92907200  0.13202900  1
  C  487  1  0.96872500  0.05098600  0.12776300  1
  C  489  1  0.90467300  0.45985800  0.83431300  1
  C  490  1  0.87300500  0.49102700  0.83255400  1
  C  491  1  0.87376700  0.52497500  0.84659300  1
  C  492  1  0.90733200  0.52637100  0.86253700  1
  C  493  1  0.93870800  0.49451300  0.86507800  1
  C  494  1  0.93680800  0.45970700  0.85106600  1
  C  501  1  0.83717200  0.55071500  0.84755000  1
  C  503  1  0.96886300  0.42879000  0.85191800  1
  C  505  1  0.40146300  0.45987900  0.33427700  1
  C  506  1  0.43317000  0.49102200  0.33256800  1
  C  507  1  0.43241600  0.52490000  0.34665500  1
  C  508  1  0.39878900  0.52629500  0.36256500  1
  C  509  1  0.36736400  0.49446000  0.36504900  1
  C  510  1  0.36929400  0.45969000  0.35101400  1
  C  517  1  0.46905700  0.55056500  0.34769700  1
  C  519  1  0.33731000  0.42871100  0.35183700  1
  C  521  1  0.40133800  0.01981100  0.64535000  1
  C  522  1  0.43303400  0.98867100  0.64711400  1
  C  523  1  0.43231000  0.95472400  0.63307300  1
  C  524  1  0.39874600  0.95329200  0.61713000  1
  C  525  1  0.36733400  0.98512100  0.61458900  1
  C  526  1  0.36921200  0.01993500  0.62859400  1
  C  533  1  0.46890200  0.92897700  0.63213700  1
  C  535  1  0.33715800  0.05084900  0.62773100  1
  C  537  1  0.40465900  0.51976100  0.64540500  1
  C  538  1  0.37292300  0.48865100  0.64711900  1
  C  539  1  0.37362700  0.45478200  0.63302400  1
  C  540  1  0.40723100  0.45336300  0.61710200  1
  C  541  1  0.43868600  0.48516400  0.61461300  1
  C  542  1  0.43679900  0.51992200  0.62865600  1
  C  549  1  0.33697300  0.42914100  0.63198800  1
  C  551  1  0.46879900  0.55086500  0.62781900  1
  C  553  1  0.40477800  0.95985300  0.33431300  1
  C  554  1  0.37305200  0.99096200  0.33254800  1
  C  555  1  0.37373600  0.02488200  0.34660400  1
  C  556  1  0.40728700  0.02634800  0.36255200  1
  C  557  1  0.43872900  0.99455100  0.36509000  1
  C  558  1  0.43688500  0.95974700  0.35107800  1
  C  565  1  0.33711200  0.05056100  0.34755700  1
  C  567  1  0.46893100  0.92883800  0.35195300  1
  C  569  1  0.64188300  0.71740700  0.72169900  1
  C  570  1  0.68390000  0.71500100  0.73151400  1
  C  571  1  0.69447400  0.73719400  0.75056300  1
  C  572  1  0.66126500  0.76302200  0.75890100  1
  C  573  1  0.61843700  0.76579400  0.74937100  1
  C  574  1  0.60854100  0.74314100  0.73003600  1
  C  581  1  0.73815900  0.73660100  0.75830500  1
  C  583  1  0.56542200  0.74088600  0.72159300  1
  C  585  1  0.64304300  0.76129900  0.25838100  1
  C  586  1  0.68455100  0.76397200  0.24811200  1
  C  587  1  0.69396600  0.74261600  0.22865400  1
  C  588  1  0.66022000  0.71741700  0.22030000  1
  C  589  1  0.61793100  0.71428000  0.23033500  1
  C  590  1  0.60915600  0.73621000  0.25002500  1
  C  597  1  0.73715800  0.74343000  0.22040800  1
  C  599  1  0.56655900  0.73827100  0.25898400  1
  C  601  1  0.16415300  0.21734700  0.25797700  1
  C  602  1  0.12212200  0.21504400  0.24817100  1
  C  603  1  0.11157500  0.23732600  0.22914600  1
  C  604  1  0.14483100  0.26312200  0.22082600  1
  C  605  1  0.18767900  0.26578600  0.23034500  1
  C  606  1  0.19754200  0.24305500  0.24965800  1
  C  613  1  0.06787400  0.23687700  0.22142400  1
  C  615  1  0.24065100  0.24069600  0.25810400  1
  C  617  1  0.16299000  0.26136900  0.72129800  1
  C  618  1  0.12147700  0.26395200  0.73156300  1
  C  619  1  0.11209400  0.24254100  0.75100600  1
  C  620  1  0.14587200  0.21735900  0.75934300  1
  C  621  1  0.18817500  0.21431500  0.74931100  1
  C  622  1  0.19692400  0.23631500  0.72963900  1
  C  629  1  0.06890200  0.24329200  0.75925500  1
  C  631  1  0.23952400  0.23849700  0.72068800  1
  N  44  1  0.84060600  0.89000400  0.84961400  1
  N  45  1  0.87277600  0.73061000  0.93088800  1
  N  46  1  0.75470200  0.73708000  0.77768800  1
  N  47  1  0.83425500  0.58971300  0.84702200  1
  N  91  1  0.84030200  0.58964000  0.12991500  1
  N  92  1  0.88194200  0.73923900  0.05203000  1
  N  93  1  0.75227000  0.74279000  0.20078500  1
  N  94  1  0.83402900  0.89006600  0.13246800  1
  N  138  1  0.97175300  0.39011000  0.13266000  1
  N  139  1  0.93328500  0.23073600  0.04880700  1
  N  140  1  0.05129900  0.23748600  0.20204900  1
  N  141  1  0.96551100  0.08980500  0.13005800  1
  N  185  1  0.97202200  0.08951700  0.84721700  1
  N  186  1  0.92386200  0.23930100  0.92752200  1
  N  187  1  0.05381100  0.24261800  0.77887900  1
  N  188  1  0.96577900  0.38994000  0.84973900  1
  N  232  1  0.34055900  0.38987600  0.34964400  1
  N  233  1  0.37287700  0.23057000  0.43092800  1
  N  234  1  0.25556100  0.24032000  0.27780000  1
  N  235  1  0.33421000  0.08955400  0.34704400  1
  N  279  1  0.34027200  0.08969600  0.62989600  1
  N  280  1  0.38167200  0.23904500  0.55187500  1
  N  281  1  0.25291000  0.23899400  0.70076600  1
  N  282  1  0.33400800  0.39014300  0.63242600  1
  N  326  1  0.47178000  0.88997000  0.63260000  1
  N  327  1  0.43319900  0.73066200  0.54872500  1
  N  328  1  0.55048300  0.74065700  0.70190000  1
  N  329  1  0.46555000  0.58968200  0.63006000  1
  N  373  1  0.47201200  0.58956400  0.34726100  1
  N  374  1  0.42426900  0.73906500  0.42776600  1
  N  375  1  0.55318600  0.73862800  0.27890800  1
  N  376  1  0.46579800  0.88999500  0.34977100  1
  N  386  1  0.98542900  0.74052600  0.00441000  1
  N  402  1  0.82060800  0.24056400  0.97528900  1
  N  418  1  0.48542100  0.24051200  0.50445300  1
  N  434  1  0.32060300  0.74058100  0.47524800  1
  N  450  1  0.83703300  0.99854500  0.88133900  1
  N  466  1  0.83701400  0.48103800  0.09828200  1
  N  482  1  0.96908700  0.98103700  0.09837600  1
  N  498  1  0.96901700  0.49852400  0.88137800  1
  N  514  1  0.33699600  0.49846900  0.38132300  1
  N  530  1  0.33701300  0.98106500  0.59829700  1
  N  546  1  0.46903400  0.48114000  0.59833000  1
  N  562  1  0.46903700  0.99862500  0.38138600  1
  N  578  1  0.58838300  0.79055500  0.75923200  1
  N  594  1  0.58736500  0.68983000  0.22063200  1
  N  610  1  0.21776600  0.29052900  0.22049700  1
  N  626  1  0.21877400  0.18988200  0.75899900  1
