# generated using pymatgen
data_H10C15N5O3
_symmetry_space_group_name_H-M   'P 1'
_cell_length_a   22.67170000
_cell_length_b   30.81130000
_cell_length_c   30.81130000
_cell_angle_alpha   90.00000000
_cell_angle_beta   90.00000000
_cell_angle_gamma   90.00000000
_symmetry_Int_Tables_number   1
_chemical_formula_structural   H10C15N5O3
_chemical_formula_sum   'H160 C240 N80 O48'
_cell_volume   21523.06569989
_cell_formula_units_Z   16
loop_
 _symmetry_equiv_pos_site_id
 _symmetry_equiv_pos_as_xyz
  1  'x, y, z'
loop_
 _atom_site_type_symbol
 _atom_site_label
 _atom_site_symmetry_multiplicity
 _atom_site_fract_x
 _atom_site_fract_y
 _atom_site_fract_z
 _atom_site_occupancy
  C  1  1  0.97562000  0.99676200  0.33035300  1
  C  2  1  0.93185800  0.98804800  0.36162100  1
  C  3  1  0.87670400  0.00928800  0.36117300  1
  C  4  1  0.86388600  0.03916500  0.32714300  1
  C  5  1  0.90776000  0.04756700  0.29498700  1
  C  6  1  0.96394700  0.02679700  0.29632000  1
  C  9  1  0.02888100  0.97224200  0.33281700  1
  C  10  1  0.07677700  0.98317600  0.36081900  1
  C  11  1  0.12761600  0.95592300  0.36036800  1
  C  12  1  0.13346000  0.92090300  0.33028500  1
  C  13  1  0.08517900  0.91124500  0.30243400  1
  C  14  1  0.03346200  0.93637500  0.30460300  1
  C  35  1  0.47563800  0.00434800  0.67082000  1
  C  36  1  0.43183700  0.01306900  0.63958100  1
  C  37  1  0.37666500  0.99185500  0.64008700  1
  C  38  1  0.36387900  0.96198900  0.67413300  1
  C  39  1  0.40779300  0.95359000  0.70626100  1
  C  40  1  0.46398500  0.97434200  0.70488200  1
  C  43  1  0.52888100  0.02888900  0.66833400  1
  C  44  1  0.57673800  0.01798600  0.64028500  1
  C  45  1  0.62753500  0.04528200  0.64067800  1
  C  46  1  0.63341400  0.08028400  0.67077700  1
  C  47  1  0.58515800  0.08992700  0.69865700  1
  C  48  1  0.53346200  0.06476700  0.69653400  1
  C  69  1  0.22547000  0.67075500  0.99675200  1
  C  70  1  0.18171000  0.63948400  0.98803800  1
  C  71  1  0.12655200  0.63994500  0.00927400  1
  C  72  1  0.11373100  0.67397800  0.03914600  1
  C  73  1  0.15760900  0.70613100  0.04755000  1
  C  74  1  0.21379000  0.70480100  0.02677200  1
  C  77  1  0.27872800  0.66828200  0.97222600  1
  C  78  1  0.32654100  0.64017500  0.98308200  1
  C  79  1  0.37730100  0.64051900  0.95574800  1
  C  80  1  0.38320700  0.67064400  0.92077400  1
  C  81  1  0.33502800  0.69862100  0.91120200  1
  C  82  1  0.28334300  0.69652100  0.93637800  1
  C  103  1  0.72548500  0.33038200  0.00435700  1
  C  104  1  0.68179000  0.36169900  0.01307200  1
  C  105  1  0.62663900  0.36130300  0.99182900  1
  C  106  1  0.61378200  0.32732200  0.96190100  1
  C  107  1  0.65760000  0.29512600  0.95349200  1
  C  108  1  0.71377000  0.29637900  0.97429600  1
  C  111  1  0.77876000  0.33279100  0.02886700  1
  C  112  1  0.82674100  0.36069300  0.01788200  1
  C  113  1  0.87762200  0.36015100  0.04509500  1
  C  114  1  0.88338200  0.33010300  0.08015200  1
  C  115  1  0.83500900  0.30235400  0.08986100  1
  C  116  1  0.78327900  0.30459100  0.06475000  1
  C  137  1  0.85079300  0.20210700  0.15596500  1
  C  138  1  0.87914600  0.16176100  0.14896400  1
  C  139  1  0.89436000  0.13469000  0.18350600  1
  C  140  1  0.88182300  0.14544900  0.22709900  1
  C  141  1  0.85304700  0.18557000  0.23437700  1
  C  142  1  0.83745300  0.21307700  0.19960600  1
  C  147  1  0.92399800  0.10740600  0.12378500  1
  C  149  1  0.83761100  0.23046500  0.12057100  1
  C  150  1  0.89830600  0.11834000  0.26243300  1
  C  153  1  0.35092000  0.79895100  0.84518400  1
  C  154  1  0.37913700  0.83934200  0.85223100  1
  C  155  1  0.39435400  0.86644600  0.81771400  1
  C  156  1  0.38196000  0.85567400  0.77410300  1
  C  157  1  0.35331100  0.81551700  0.76677800  1
  C  158  1  0.33770600  0.78797800  0.80152200  1
  C  163  1  0.42376900  0.89376700  0.87747800  1
  C  165  1  0.33776400  0.77056200  0.88056100  1
  C  166  1  0.39849200  0.88281000  0.73880400  1
  C  169  1  0.10098900  0.84516200  0.20216500  1
  C  170  1  0.12948500  0.85211700  0.16186600  1
  C  171  1  0.14458100  0.81755500  0.13478600  1
  C  172  1  0.13176700  0.77399000  0.14548300  1
  C  173  1  0.10285700  0.76676200  0.18556200  1
  C  174  1  0.08739300  0.80155100  0.21308200  1
  C  179  1  0.17461800  0.87721800  0.10760400  1
  C  181  1  0.08788800  0.88056400  0.23052400  1
  C  182  1  0.14809600  0.73862600  0.11835700  1
  C  185  1  0.60099500  0.15601700  0.79893800  1
  C  186  1  0.62949800  0.14909400  0.83923900  1
  C  187  1  0.64458000  0.18367700  0.86629700  1
  C  188  1  0.63173800  0.22723300  0.85557700  1
  C  189  1  0.60282600  0.23442700  0.81549100  1
  C  190  1  0.58738300  0.19961600  0.78799100  1
  C  195  1  0.67465500  0.12403700  0.89351100  1
  C  197  1  0.58789500  0.12059600  0.77060500  1
  C  198  1  0.64802700  0.26261900  0.88268700  1
  C  201  1  0.71150700  0.96648700  0.53199100  1
  C  202  1  0.70409000  0.95297900  0.48868800  1
  C  203  1  0.74671400  0.96242700  0.45729100  1
  C  204  1  0.79850500  0.98655200  0.46673200  1
  C  205  1  0.80556700  0.99944300  0.51073200  1
  C  206  1  0.76342400  0.98932700  0.54281400  1
  C  211  1  0.67668400  0.92430500  0.43039500  1
  C  213  1  0.67331000  0.95634200  0.56199600  1
  C  214  1  0.84317800  0.99699600  0.43539300  1
  C  217  1  0.21137300  0.03465600  0.46928300  1
  C  218  1  0.20388400  0.04806100  0.51261100  1
  C  219  1  0.24650100  0.03860400  0.54401200  1
  C  220  1  0.29836500  0.01456800  0.53454800  1
  C  221  1  0.30549300  0.00178000  0.49052500  1
  C  222  1  0.26335700  0.01190700  0.45843900  1
  C  227  1  0.17634500  0.07657700  0.57094700  1
  C  229  1  0.17319100  0.04482500  0.43927800  1
  C  230  1  0.34304800  0.00411700  0.56588100  1
  C  233  1  0.96138000  0.46910100  0.96635100  1
  C  234  1  0.95384000  0.51244200  0.95300500  1
  C  235  1  0.99643500  0.54385600  0.96247900  1
  C  236  1  0.04832800  0.53438900  0.98648000  1
  C  237  1  0.05550900  0.49035000  0.99920600  1
  C  238  1  0.01339500  0.45825800  0.98906000  1
  C  243  1  0.92621100  0.57080100  0.92458100  1
  C  245  1  0.92320300  0.43909300  0.95618300  1
  C  246  1  0.09298300  0.56573100  0.99697000  1
  C  249  1  0.46154600  0.53213000  0.03470100  1
  C  250  1  0.45420200  0.48884700  0.04829200  1
  C  251  1  0.49683000  0.45745300  0.03883900  1
  C  252  1  0.54855100  0.46688400  0.01463000  1
  C  253  1  0.55555100  0.51086500  0.00166000  1
  C  254  1  0.51339700  0.54294100  0.01177200  1
  C  259  1  0.42692300  0.43058300  0.07709300  1
  C  261  1  0.42331800  0.56212200  0.04481600  1
  C  262  1  0.59320400  0.43554200  0.00417000  1
  C  529  1  0.97562000  0.02921760  0.78473200  1
  C  530  1  0.93185800  0.02050360  0.81600000  1
  C  531  1  0.87670400  0.04174360  0.81555200  1
  C  532  1  0.86388600  0.07162060  0.78152200  1
  C  533  1  0.90776000  0.08002260  0.74936600  1
  C  534  1  0.96394700  0.05925260  0.75069900  1
  C  537  1  0.02888100  0.00469763  0.78719600  1
  C  538  1  0.07677700  0.01563160  0.81519800  1
  C  539  1  0.12761600  0.98837900  0.81474700  1
  C  540  1  0.13346000  0.95335900  0.78466400  1
  C  541  1  0.08517900  0.94370100  0.75681300  1
  C  542  1  0.03346200  0.96883100  0.75898200  1
  C  563  1  0.47563800  0.03680360  0.12519900  1
  C  564  1  0.43183700  0.04552460  0.09395980  1
  C  565  1  0.37666500  0.02431060  0.09446580  1
  C  566  1  0.36387900  0.99444500  0.12851200  1
  C  567  1  0.40779300  0.98604600  0.16064000  1
  C  568  1  0.46398500  0.00679763  0.15926100  1
  C  571  1  0.52888100  0.06134460  0.12271300  1
  C  572  1  0.57673800  0.05044160  0.09466380  1
  C  573  1  0.62753500  0.07773760  0.09505680  1
  C  574  1  0.63341400  0.11274000  0.12515600  1
  C  575  1  0.58515800  0.12238300  0.15303600  1
  C  576  1  0.53346200  0.09722260  0.15091300  1
  C  597  1  0.22547000  0.70321100  0.45113100  1
  C  598  1  0.18171000  0.67194000  0.44241700  1
  C  599  1  0.12655200  0.67240100  0.46365300  1
  C  600  1  0.11373100  0.70643400  0.49352500  1
  C  601  1  0.15760900  0.73858700  0.50192900  1
  C  602  1  0.21379000  0.73725700  0.48115100  1
  C  605  1  0.27872800  0.70073800  0.42660500  1
  C  606  1  0.32654100  0.67263100  0.43746100  1
  C  607  1  0.37730100  0.67297500  0.41012700  1
  C  608  1  0.38320700  0.70310000  0.37515300  1
  C  609  1  0.33502800  0.73107700  0.36558100  1
  C  610  1  0.28334300  0.72897700  0.39075700  1
  C  631  1  0.72548500  0.36283800  0.45873600  1
  C  632  1  0.68179000  0.39415500  0.46745100  1
  C  633  1  0.62663900  0.39375900  0.44620800  1
  C  634  1  0.61378200  0.35977800  0.41628000  1
  C  635  1  0.65760000  0.32758200  0.40787100  1
  C  636  1  0.71377000  0.32883500  0.42867500  1
  C  639  1  0.77876000  0.36524700  0.48324600  1
  C  640  1  0.82674100  0.39314900  0.47226100  1
  C  641  1  0.87762200  0.39260700  0.49947400  1
  C  642  1  0.88338200  0.36255900  0.53453100  1
  C  643  1  0.83500900  0.33481000  0.54424000  1
  C  644  1  0.78327900  0.33704700  0.51912900  1
  C  665  1  0.85079300  0.23456300  0.61034400  1
  C  666  1  0.87914600  0.19421700  0.60334300  1
  C  667  1  0.89436000  0.16714600  0.63788500  1
  C  668  1  0.88182300  0.17790500  0.68147800  1
  C  669  1  0.85304700  0.21802600  0.68875600  1
  C  670  1  0.83745300  0.24553300  0.65398500  1
  C  675  1  0.92399800  0.13986200  0.57816400  1
  C  677  1  0.83761100  0.26292100  0.57495000  1
  C  678  1  0.89830600  0.15079600  0.71681200  1
  C  681  1  0.35092000  0.83140700  0.29956300  1
  C  682  1  0.37913700  0.87179800  0.30661000  1
  C  683  1  0.39435400  0.89890200  0.27209300  1
  C  684  1  0.38196000  0.88813000  0.22848200  1
  C  685  1  0.35331100  0.84797300  0.22115700  1
  C  686  1  0.33770600  0.82043400  0.25590100  1
  C  691  1  0.42376900  0.92622300  0.33185700  1
  C  693  1  0.33776400  0.80301800  0.33494000  1
  C  694  1  0.39849200  0.91526600  0.19318300  1
  C  697  1  0.10098900  0.87761800  0.65654400  1
  C  698  1  0.12948500  0.88457300  0.61624500  1
  C  699  1  0.14458100  0.85001100  0.58916500  1
  C  700  1  0.13176700  0.80644600  0.59986200  1
  C  701  1  0.10285700  0.79921800  0.63994100  1
  C  702  1  0.08739300  0.83400700  0.66746100  1
  C  707  1  0.17461800  0.90967400  0.56198300  1
  C  709  1  0.08788800  0.91302000  0.68490300  1
  C  710  1  0.14809600  0.77108200  0.57273600  1
  C  713  1  0.60099500  0.18847300  0.25331700  1
  C  714  1  0.62949800  0.18155000  0.29361800  1
  C  715  1  0.64458000  0.21613300  0.32067600  1
  C  716  1  0.63173800  0.25968900  0.30995600  1
  C  717  1  0.60282600  0.26688300  0.26987000  1
  C  718  1  0.58738300  0.23207200  0.24237000  1
  C  723  1  0.67465500  0.15649300  0.34789000  1
  C  725  1  0.58789500  0.15305200  0.22498400  1
  C  726  1  0.64802700  0.29507500  0.33706600  1
  C  729  1  0.71150700  0.99894300  0.98637000  1
  C  730  1  0.70409000  0.98543500  0.94306700  1
  C  731  1  0.74671400  0.99488300  0.91167000  1
  C  732  1  0.79850500  0.01900760  0.92111100  1
  C  733  1  0.80556700  0.03189860  0.96511100  1
  C  734  1  0.76342400  0.02178260  0.99719300  1
  C  739  1  0.67668400  0.95676100  0.88477400  1
  C  741  1  0.67331000  0.98879800  0.01637480  1
  C  742  1  0.84317800  0.02945160  0.88977200  1
  C  745  1  0.21137300  0.06711160  0.92366200  1
  C  746  1  0.20388400  0.08051660  0.96699000  1
  C  747  1  0.24650100  0.07105960  0.99839100  1
  C  748  1  0.29836500  0.04702360  0.98892700  1
  C  749  1  0.30549300  0.03423560  0.94490400  1
  C  750  1  0.26335700  0.04436260  0.91281800  1
  C  755  1  0.17634500  0.10903300  0.02532580  1
  C  757  1  0.17319100  0.07728060  0.89365700  1
  C  758  1  0.34304800  0.03657260  0.02025980  1
  C  761  1  0.96138000  0.50155700  0.42073000  1
  C  762  1  0.95384000  0.54489800  0.40738400  1
  C  763  1  0.99643500  0.57631200  0.41685800  1
  C  764  1  0.04832800  0.56684500  0.44085900  1
  C  765  1  0.05550900  0.52280600  0.45358500  1
  C  766  1  0.01339500  0.49071400  0.44343900  1
  C  771  1  0.92621100  0.60325700  0.37896000  1
  C  773  1  0.92320300  0.47154900  0.41056200  1
  C  774  1  0.09298300  0.59818700  0.45134900  1
  C  777  1  0.46154600  0.56458600  0.48908000  1
  C  778  1  0.45420200  0.52130300  0.50267100  1
  C  779  1  0.49683000  0.48990900  0.49321800  1
  C  780  1  0.54855100  0.49934000  0.46900900  1
  C  781  1  0.55555100  0.54332100  0.45603900  1
  C  782  1  0.51339700  0.57539700  0.46615100  1
  C  787  1  0.42692300  0.46303900  0.53147200  1
  C  789  1  0.42331800  0.59457800  0.49919500  1
  C  790  1  0.59320400  0.46799800  0.45854900  1
  H  7  1  0.93977800  0.96491000  0.38482000  1
  H  16  1  0.99877200  0.92854400  0.28470100  1
  H  19  1  0.04490600  0.02292100  0.26662000  1
  H  20  1  0.99906600  0.05656000  0.24253400  1
  H  21  1  0.10853000  0.03440000  0.40002900  1
  H  22  1  0.03726100  0.03591100  0.38827400  1
  H  23  1  0.22021500  0.90560700  0.34181700  1
  H  24  1  0.18969800  0.87557900  0.30434500  1
  H  25  1  0.80075200  0.08041200  0.30289700  1
  H  26  1  0.78168700  0.05713100  0.34870000  1
  H  28  1  0.09647500  0.84869600  0.28743400  1
  H  30  1  0.20294000  0.94570600  0.39781600  1
  H  32  1  0.87873600  0.06022000  0.23506100  1
  H  34  1  0.79579700  0.99171200  0.38036100  1
  H  41  1  0.43971700  0.03622300  0.61639100  1
  H  50  1  0.49880000  0.07257500  0.71647200  1
  H  53  1  0.54494000  0.97828500  0.73458800  1
  H  54  1  0.49910200  0.94469700  0.75873900  1
  H  55  1  0.60859900  0.96680900  0.60119600  1
  H  56  1  0.53722000  0.96524400  0.61281200  1
  H  57  1  0.72022700  0.09541000  0.65934300  1
  H  58  1  0.68970000  0.12545200  0.69681700  1
  H  59  1  0.30078400  0.92073800  0.69842000  1
  H  60  1  0.28165400  0.94402200  0.65263100  1
  H  62  1  0.59642100  0.15242300  0.71361200  1
  H  64  1  0.70265500  0.05568400  0.60306800  1
  H  66  1  0.37850500  0.94088600  0.76610000  1
  H  68  1  0.29574200  0.00944300  0.62094800  1
  H  75  1  0.18960900  0.61630400  0.96487800  1
  H  84  1  0.24869500  0.71647800  0.92858600  1
  H  87  1  0.29473600  0.73451700  0.02286800  1
  H  88  1  0.24889600  0.75861200  0.05650100  1
  H  89  1  0.35847200  0.60117300  0.03427800  1
  H  90  1  0.28710100  0.61286700  0.03587400  1
  H  91  1  0.46989800  0.65886600  0.90532200  1
  H  92  1  0.43949300  0.69647900  0.87542700  1
  H  93  1  0.05050200  0.69830600  0.08027300  1
  H  94  1  0.03143400  0.65249800  0.05700200  1
  H  96  1  0.34642100  0.71366400  0.84868000  1
  H  98  1  0.45225200  0.60275000  0.94523200  1
  H  100  1  0.12906700  0.76618100  0.06021700  1
  H  102  1  0.04567600  0.62080200  0.99162400  1
  H  109  1  0.68973400  0.38486600  0.03623700  1
  H  118  1  0.74852700  0.28476200  0.07261600  1
  H  121  1  0.79466600  0.26658900  0.97818400  1
  H  122  1  0.74881600  0.24259300  0.94448900  1
  H  123  1  0.85856500  0.39983400  0.96664300  1
  H  124  1  0.78724500  0.38818300  0.96516000  1
  H  125  1  0.97017300  0.34158300  0.09555100  1
  H  126  1  0.93952000  0.30416300  0.12554200  1
  H  127  1  0.55058200  0.30313000  0.92068000  1
  H  128  1  0.53157800  0.34893400  0.94398300  1
  H  130  1  0.84630900  0.28738400  0.15241000  1
  H  132  1  0.95319000  0.39738400  0.05513900  1
  H  134  1  0.62911200  0.23505900  0.94084700  1
  H  136  1  0.54575000  0.38053900  0.00940000  1
  H  143  1  0.81551300  0.24116500  0.20677100  1
  H  144  1  0.84220300  0.19496000  0.26523300  1
  H  148  1  0.94389200  0.08636900  0.10277600  1
  H  159  1  0.31585800  0.75986200  0.79431700  1
  H  160  1  0.34257500  0.80611800  0.73590600  1
  H  164  1  0.44354800  0.91483400  0.89851600  1
  H  175  1  0.06534400  0.79443300  0.24113700  1
  H  176  1  0.09181300  0.73593200  0.19490900  1
  H  180  1  0.19467800  0.89818800  0.08661500  1
  H  191  1  0.56533200  0.20671300  0.75993000  1
  H  192  1  0.59176600  0.26524800  0.80612700  1
  H  196  1  0.69472800  0.10308500  0.91451000  1
  H  207  1  0.77158600  0.99861900  0.57416700  1
  H  208  1  0.84200600  0.01651100  0.52033900  1
  H  212  1  0.65297800  0.90720100  0.40800300  1
  H  223  1  0.27157900  0.00270000  0.42707100  1
  H  224  1  0.34198300  0.98478300  0.48089200  1
  H  228  1  0.15257200  0.09360100  0.59336400  1
  H  239  1  0.02165600  0.42688300  0.99822300  1
  H  240  1  0.09202200  0.48071700  0.01617300  1
  H  244  1  0.90239700  0.59322500  0.90760000  1
  H  255  1  0.52149100  0.57428000  0.00240300  1
  H  256  1  0.59193300  0.52045300  0.98451700  1
  H  260  1  0.40327600  0.40820500  0.09426000  1
  H  535  1  0.93977800  0.99736600  0.83919900  1
  H  544  1  0.99877200  0.96100000  0.73908000  1
  H  547  1  0.04490600  0.05537660  0.72099900  1
  H  548  1  0.99906600  0.08901560  0.69691300  1
  H  549  1  0.10853000  0.06685560  0.85440800  1
  H  550  1  0.03726100  0.06836660  0.84265300  1
  H  551  1  0.22021500  0.93806300  0.79619600  1
  H  552  1  0.18969800  0.90803500  0.75872400  1
  H  553  1  0.80075200  0.11286800  0.75727600  1
  H  554  1  0.78168700  0.08958660  0.80307900  1
  H  556  1  0.09647500  0.88115200  0.74181300  1
  H  558  1  0.20294000  0.97816200  0.85219500  1
  H  560  1  0.87873600  0.09267560  0.68944000  1
  H  562  1  0.79579700  0.02416760  0.83474000  1
  H  569  1  0.43971700  0.06867860  0.07076980  1
  H  578  1  0.49880000  0.10503100  0.17085100  1
  H  581  1  0.54494000  0.01074060  0.18896700  1
  H  582  1  0.49910200  0.97715300  0.21311800  1
  H  583  1  0.60859900  0.99926500  0.05557480  1
  H  584  1  0.53722000  0.99770000  0.06719080  1
  H  585  1  0.72022700  0.12786600  0.11372200  1
  H  586  1  0.68970000  0.15790800  0.15119600  1
  H  587  1  0.30078400  0.95319400  0.15279900  1
  H  588  1  0.28165400  0.97647800  0.10701000  1
  H  590  1  0.59642100  0.18487900  0.16799100  1
  H  592  1  0.70265500  0.08813960  0.05744680  1
  H  594  1  0.37850500  0.97334200  0.22047900  1
  H  596  1  0.29574200  0.04189860  0.07532680  1
  H  603  1  0.18960900  0.64876000  0.41925700  1
  H  612  1  0.24869500  0.74893400  0.38296500  1
  H  615  1  0.29473600  0.76697300  0.47724700  1
  H  616  1  0.24889600  0.79106800  0.51088000  1
  H  617  1  0.35847200  0.63362900  0.48865700  1
  H  618  1  0.28710100  0.64532300  0.49025300  1
  H  619  1  0.46989800  0.69132200  0.35970100  1
  H  620  1  0.43949300  0.72893500  0.32980600  1
  H  621  1  0.05050200  0.73076200  0.53465200  1
  H  622  1  0.03143400  0.68495400  0.51138100  1
  H  624  1  0.34642100  0.74612000  0.30305900  1
  H  626  1  0.45225200  0.63520600  0.39961100  1
  H  628  1  0.12906700  0.79863700  0.51459600  1
  H  630  1  0.04567600  0.65325800  0.44600300  1
  H  637  1  0.68973400  0.41732200  0.49061600  1
  H  646  1  0.74852700  0.31721800  0.52699500  1
  H  649  1  0.79466600  0.29904500  0.43256300  1
  H  650  1  0.74881600  0.27504900  0.39886800  1
  H  651  1  0.85856500  0.43229000  0.42102200  1
  H  652  1  0.78724500  0.42063900  0.41953900  1
  H  653  1  0.97017300  0.37403900  0.54993000  1
  H  654  1  0.93952000  0.33661900  0.57992100  1
  H  655  1  0.55058200  0.33558600  0.37505900  1
  H  656  1  0.53157800  0.38139000  0.39836200  1
  H  658  1  0.84630900  0.31984000  0.60678900  1
  H  660  1  0.95319000  0.42984000  0.50951800  1
  H  662  1  0.62911200  0.26751500  0.39522600  1
  H  664  1  0.54575000  0.41299500  0.46377900  1
  H  671  1  0.81551300  0.27362100  0.66115000  1
  H  672  1  0.84220300  0.22741600  0.71961200  1
  H  676  1  0.94389200  0.11882500  0.55715500  1
  H  687  1  0.31585800  0.79231800  0.24869600  1
  H  688  1  0.34257500  0.83857400  0.19028500  1
  H  692  1  0.44354800  0.94729000  0.35289500  1
  H  703  1  0.06534400  0.82688900  0.69551600  1
  H  704  1  0.09181300  0.76838800  0.64928800  1
  H  708  1  0.19467800  0.93064400  0.54099400  1
  H  719  1  0.56533200  0.23916900  0.21430900  1
  H  720  1  0.59176600  0.29770400  0.26050600  1
  H  724  1  0.69472800  0.13554100  0.36888900  1
  H  735  1  0.77158600  0.03107460  0.02854580  1
  H  736  1  0.84200600  0.04896660  0.97471800  1
  H  740  1  0.65297800  0.93965700  0.86238200  1
  H  751  1  0.27157900  0.03515560  0.88145000  1
  H  752  1  0.34198300  0.01723860  0.93527100  1
  H  756  1  0.15257200  0.12605700  0.04774280  1
  H  767  1  0.02165600  0.45933900  0.45260200  1
  H  768  1  0.09202200  0.51317300  0.47055200  1
  H  772  1  0.90239700  0.62568100  0.36197900  1
  H  783  1  0.52149100  0.60673600  0.45678200  1
  H  784  1  0.59193300  0.55290900  0.43889600  1
  H  788  1  0.40327600  0.44066100  0.54863900  1
  N  8  1  0.81071000  0.06000400  0.32574100  1
  N  15  1  0.18453800  0.89760400  0.32654900  1
  N  17  1  0.00578500  0.03571600  0.26565200  1
  N  18  1  0.07368500  0.01912600  0.38711500  1
  N  27  1  0.08604900  0.87652700  0.27461000  1
  N  29  1  0.16780200  0.96259300  0.39202200  1
  N  31  1  0.89487200  0.07425700  0.26077700  1
  N  33  1  0.83502000  0.99736300  0.39148000  1
  N  42  1  0.31070400  0.94114900  0.67557400  1
  N  49  1  0.68451600  0.10356500  0.67447400  1
  N  51  1  0.50585900  0.96542600  0.73552300  1
  N  52  1  0.57363000  0.98200800  0.61401200  1
  N  61  1  0.58608200  0.12460900  0.72652700  1
  N  63  1  0.66760000  0.03872000  0.60892000  1
  N  65  1  0.39496100  0.92688500  0.74047300  1
  N  67  1  0.33494500  0.00377400  0.60980000  1
  N  76  1  0.06055000  0.67538300  0.05997700  1
  N  83  1  0.43428400  0.67428600  0.89746700  1
  N  85  1  0.25563400  0.73546200  0.03569900  1
  N  86  1  0.32346300  0.61384700  0.01903000  1
  N  95  1  0.33595600  0.72647500  0.87650700  1
  N  97  1  0.41724200  0.60865700  0.96222600  1
  N  99  1  0.14472500  0.74031400  0.07427300  1
  N  101  1  0.08486600  0.60964700  0.99731700  1
  N  110  1  0.56061200  0.32599100  0.94104900  1
  N  117  1  0.93446800  0.32629900  0.10342600  1
  N  119  1  0.75555800  0.26567600  0.96536800  1
  N  120  1  0.82368600  0.38697500  0.98191400  1
  N  129  1  0.83582100  0.27455400  0.12459600  1
  N  131  1  0.91797400  0.39166800  0.03831700  1
  N  133  1  0.64464400  0.26095500  0.92677100  1
  N  135  1  0.58499300  0.39163600  0.00376500  1
  N  145  1  0.92293800  0.10081900  0.16676900  1
  N  161  1  0.42279300  0.90036200  0.83449400  1
  N  177  1  0.17334200  0.83424400  0.10097300  1
  N  193  1  0.67335600  0.16701500  0.90011600  1
  N  209  1  0.72819600  0.94344400  0.42088800  1
  N  225  1  0.22789400  0.05748600  0.58044400  1
  N  241  1  0.97776600  0.58030100  0.94365500  1
  N  257  1  0.47839700  0.42107000  0.05790300  1
  N  536  1  0.81071000  0.09245960  0.78012000  1
  N  543  1  0.18453800  0.93006000  0.78092800  1
  N  545  1  0.00578500  0.06817160  0.72003100  1
  N  546  1  0.07368500  0.05158160  0.84149400  1
  N  555  1  0.08604900  0.90898300  0.72898900  1
  N  557  1  0.16780200  0.99504900  0.84640100  1
  N  559  1  0.89487200  0.10671300  0.71515600  1
  N  561  1  0.83502000  0.02981860  0.84585900  1
  N  570  1  0.31070400  0.97360500  0.12995300  1
  N  577  1  0.68451600  0.13602100  0.12885300  1
  N  579  1  0.50585900  0.99788200  0.18990200  1
  N  580  1  0.57363000  0.01446360  0.06839080  1
  N  589  1  0.58608200  0.15706500  0.18090600  1
  N  591  1  0.66760000  0.07117560  0.06329880  1
  N  593  1  0.39496100  0.95934100  0.19485200  1
  N  595  1  0.33494500  0.03622960  0.06417880  1
  N  604  1  0.06055000  0.70783900  0.51435600  1
  N  611  1  0.43428400  0.70674200  0.35184600  1
  N  613  1  0.25563400  0.76791800  0.49007800  1
  N  614  1  0.32346300  0.64630300  0.47340900  1
  N  623  1  0.33595600  0.75893100  0.33088600  1
  N  625  1  0.41724200  0.64111300  0.41660500  1
  N  627  1  0.14472500  0.77277000  0.52865200  1
  N  629  1  0.08486600  0.64210300  0.45169600  1
  N  638  1  0.56061200  0.35844700  0.39542800  1
  N  645  1  0.93446800  0.35875500  0.55780500  1
  N  647  1  0.75555800  0.29813200  0.41974700  1
  N  648  1  0.82368600  0.41943100  0.43629300  1
  N  657  1  0.83582100  0.30701000  0.57897500  1
  N  659  1  0.91797400  0.42412400  0.49269600  1
  N  661  1  0.64464400  0.29341100  0.38115000  1
  N  663  1  0.58499300  0.42409200  0.45814400  1
  N  673  1  0.92293800  0.13327500  0.62114800  1
  N  689  1  0.42279300  0.93281800  0.28887300  1
  N  705  1  0.17334200  0.86670000  0.55535200  1
  N  721  1  0.67335600  0.19947100  0.35449500  1
  N  737  1  0.72819600  0.97590000  0.87526700  1
  N  753  1  0.22789400  0.08994160  0.03482280  1
  N  769  1  0.97776600  0.61275700  0.39803400  1
  N  785  1  0.47839700  0.45352600  0.51228200  1
  O  146  1  0.89804800  0.14509700  0.11037200  1
  O  151  1  0.83180200  0.21288200  0.08045900  1
  O  152  1  0.91471200  0.13766400  0.30005900  1
  O  162  1  0.39790000  0.85603100  0.89085000  1
  O  167  1  0.33190500  0.78810100  0.92068600  1
  O  168  1  0.41510200  0.86350900  0.70121400  1
  O  178  1  0.14863400  0.89067100  0.14526800  1
  O  183  1  0.08222900  0.92069600  0.21295900  1
  O  184  1  0.16410500  0.70090000  0.13766500  1
  O  194  1  0.64866900  0.11055500  0.85585600  1
  O  199  1  0.58228900  0.08046300  0.78817600  1
  O  200  1  0.66401200  0.30034400  0.86336600  1
  O  210  1  0.65875000  0.92890100  0.47244400  1
  O  215  1  0.64042700  0.94528700  0.59330600  1
  O  216  1  0.89600100  0.01102200  0.45057900  1
  O  226  1  0.15846900  0.07204800  0.52887800  1
  O  231  1  0.14032900  0.05591800  0.40796400  1
  O  232  1  0.39585800  0.99007300  0.55068500  1
  O  242  1  0.90838200  0.52871600  0.92906600  1
  O  247  1  0.89034200  0.40777600  0.94510600  1
  O  248  1  0.14580100  0.55055200  0.01102000  1
  O  258  1  0.40893200  0.47261600  0.07245200  1
  O  263  1  0.39035800  0.59341300  0.05580300  1
  O  264  1  0.64605100  0.45071200  0.99017400  1
  O  674  1  0.89804800  0.17755300  0.56475100  1
  O  679  1  0.83180200  0.24533800  0.53483800  1
  O  680  1  0.91471200  0.17012000  0.75443800  1
  O  690  1  0.39790000  0.88848700  0.34522900  1
  O  695  1  0.33190500  0.82055700  0.37506500  1
  O  696  1  0.41510200  0.89596500  0.15559300  1
  O  706  1  0.14863400  0.92312700  0.59964700  1
  O  711  1  0.08222900  0.95315200  0.66733800  1
  O  712  1  0.16410500  0.73335600  0.59204400  1
  O  722  1  0.64866900  0.14301100  0.31023500  1
  O  727  1  0.58228900  0.11291900  0.24255500  1
  O  728  1  0.66401200  0.33280000  0.31774500  1
  O  738  1  0.65875000  0.96135700  0.92682300  1
  O  743  1  0.64042700  0.97774300  0.04768480  1
  O  744  1  0.89600100  0.04347760  0.90495800  1
  O  754  1  0.15846900  0.10450400  0.98325700  1
  O  759  1  0.14032900  0.08837360  0.86234300  1
  O  760  1  0.39585800  0.02252860  0.00506375  1
  O  770  1  0.90838200  0.56117200  0.38344500  1
  O  775  1  0.89034200  0.44023200  0.39948500  1
  O  776  1  0.14580100  0.58300800  0.46539900  1
  O  786  1  0.40893200  0.50507200  0.52683100  1
  O  791  1  0.39035800  0.62586900  0.51018200  1
  O  792  1  0.64605100  0.48316800  0.44455300  1
