# generated using pymatgen
data_H25(C22N)2
_symmetry_space_group_name_H-M   'P 1'
_cell_length_a   21.41780000
_cell_length_b   21.41780000
_cell_length_c   42.83550000
_cell_angle_alpha   90.00000000
_cell_angle_beta   90.00000000
_cell_angle_gamma   90.00000000
_symmetry_Int_Tables_number   1
_chemical_formula_structural   H25(C22N)2
_chemical_formula_sum   'H100 C176 N8'
_cell_volume   19649.59294932
_cell_formula_units_Z   4
loop_
 _symmetry_equiv_pos_site_id
 _symmetry_equiv_pos_as_xyz
  1  'x, y, z'
loop_
 _atom_site_type_symbol
 _atom_site_label
 _atom_site_symmetry_multiplicity
 _atom_site_fract_x
 _atom_site_fract_y
 _atom_site_fract_z
 _atom_site_occupancy
  C  1  1  0.96938400  0.89494600  0.08134400  1
  C  2  1  0.96783900  0.84989300  0.05825000  1
  C  3  1  0.99280400  0.87537600  0.03090400  1
  C  5  1  0.99394400  0.94945500  0.06843100  1
  C  6  1  0.00627200  0.00555800  0.08514700  1
  C  7  1  0.01748200  0.06284700  0.06939700  1
  C  9  1  0.01790300  0.13672000  0.03224900  1
  C  10  1  0.04085600  0.16304900  0.05981700  1
  C  11  1  0.03958400  0.11786600  0.08282900  1
  C  12  1  0.00560600  0.16829700  0.00360600  1
  C  13  1  0.99254500  0.13489800  0.97549800  1
  C  15  1  0.99375200  0.06082100  0.93802900  1
  C  16  1  0.96903900  0.11524200  0.92509600  1
  C  17  1  0.96747300  0.16032700  0.94816500  1
  C  18  1  0.00656700  0.00485000  0.92129100  1
  C  19  1  0.01797300  0.94759000  0.93703000  1
  C  21  1  0.01833200  0.87367200  0.97416500  1
  C  22  1  0.04124200  0.84735000  0.94658500  1
  C  23  1  0.04003000  0.89256700  0.92358800  1
  C  24  1  0.00574600  0.84204400  0.00276000  1
  C  25  1  0.00502100  0.77450900  0.00304800  1
  C  26  1  0.97099800  0.73986700  0.98054500  1
  C  27  1  0.97315200  0.67415800  0.97977000  1
  C  28  1  0.00451400  0.63990600  0.00328100  1
  C  29  1  0.03588300  0.67424900  0.02676700  1
  C  30  1  0.03843400  0.73996300  0.02580700  1
  C  31  1  0.00633800  0.00562300  0.88762700  1
  C  32  1  0.96171400  0.97114000  0.87034200  1
  C  33  1  0.96197200  0.97126600  0.83737900  1
  C  34  1  0.00682200  0.00606600  0.82050300  1
  C  35  1  0.05129500  0.04080900  0.83766400  1
  C  36  1  0.05104300  0.04055200  0.87063400  1
  C  37  1  0.00496000  0.23583400  0.00327400  1
  C  38  1  0.03837700  0.27027400  0.98047500  1
  C  39  1  0.03586800  0.33598800  0.97945700  1
  C  40  1  0.00453300  0.37044500  0.00291400  1
  C  41  1  0.97314300  0.33629700  0.02645200  1
  C  42  1  0.97099800  0.27058500  0.02575700  1
  C  43  1  0.00576800  0.00489000  0.11881300  1
  C  44  1  0.05034900  0.97004800  0.13593200  1
  C  45  1  0.96098700  0.03941600  0.13597600  1
  C  46  1  0.96096600  0.03940900  0.16893800  1
  C  47  1  0.00568400  0.00468200  0.18594000  1
  C  48  1  0.05031400  0.96989400  0.16890300  1
  C  75  1  0.11700200  0.96833800  0.58123300  1
  C  76  1  0.16198800  0.96673700  0.55811200  1
  C  77  1  0.13647300  0.99191900  0.53082400  1
  C  79  1  0.06248800  0.99294000  0.56834500  1
  C  80  1  0.00658000  0.00578000  0.58513000  1
  C  81  1  0.94928000  0.01723500  0.56943200  1
  C  83  1  0.87524500  0.01762600  0.53235600  1
  C  84  1  0.84903200  0.04060300  0.55994700  1
  C  85  1  0.89431600  0.03935700  0.58291200  1
  C  86  1  0.84358000  0.00534300  0.50373500  1
  C  87  1  0.87689400  0.99235400  0.47559200  1
  C  89  1  0.95090200  0.99339500  0.43806200  1
  C  90  1  0.89638000  0.96882000  0.42517100  1
  C  91  1  0.85140100  0.96716600  0.44829900  1
  C  92  1  0.00690200  0.00597800  0.42130500  1
  C  93  1  0.06420000  0.01732700  0.43702100  1
  C  95  1  0.13816200  0.01775400  0.47412800  1
  C  96  1  0.16440800  0.04075600  0.44655100  1
  C  97  1  0.11915500  0.03952900  0.42357000  1
  C  98  1  0.16981000  0.00528400  0.50273300  1
  C  99  1  0.23734300  0.00473100  0.50302700  1
  C  100  1  0.27209200  0.97084800  0.48051500  1
  C  101  1  0.33779900  0.97311300  0.47977500  1
  C  102  1  0.37195000  0.00445100  0.50332800  1
  C  103  1  0.33750100  0.03573900  0.52680400  1
  C  104  1  0.27178000  0.03815700  0.52582400  1
  C  105  1  0.00614000  0.00551400  0.38764400  1
  C  106  1  0.04061300  0.96074200  0.37045000  1
  C  107  1  0.04044900  0.96069300  0.33748900  1
  C  108  1  0.00561800  0.00537600  0.32052000  1
  C  109  1  0.97089800  0.05001100  0.33758700  1
  C  110  1  0.97120600  0.05007300  0.37056000  1
  C  111  1  0.77604000  0.00482200  0.50343800  1
  C  112  1  0.74162000  0.03829300  0.48065100  1
  C  113  1  0.67590200  0.03589800  0.47965600  1
  C  114  1  0.64142400  0.00455200  0.50309700  1
  C  115  1  0.67555100  0.97316600  0.52664800  1
  C  116  1  0.74126100  0.97090400  0.52592600  1
  C  117  1  0.00739200  0.00535700  0.61879300  1
  C  118  1  0.04233000  0.04996400  0.63584200  1
  C  119  1  0.97289100  0.96065600  0.63602000  1
  C  120  1  0.97299800  0.96075200  0.66898300  1
  C  121  1  0.00780400  0.00550600  0.68591800  1
  C  122  1  0.04257800  0.05004800  0.66881500  1
  C  149  1  0.21089500  0.80232500  0.73737300  1
  C  150  1  0.20944600  0.80124100  0.77016100  1
  C  151  1  0.16873100  0.84110600  0.78647200  1
  C  152  1  0.12898900  0.88246600  0.77008200  1
  C  153  1  0.13037100  0.88347700  0.73701800  1
  C  154  1  0.17156800  0.84320900  0.72084700  1
  C  155  1  0.09041300  0.92453000  0.72088600  1
  C  156  1  0.04837300  0.96528500  0.73660200  1
  C  157  1  0.08807200  0.92292100  0.78599400  1
  C  158  1  0.04772000  0.96501200  0.77004900  1
  C  159  1  0.00767800  0.00576100  0.71960500  1
  C  160  1  0.96663700  0.04628000  0.73637100  1
  C  161  1  0.00718600  0.00603800  0.78681800  1
  C  162  1  0.96680500  0.04682700  0.76982000  1
  C  163  1  0.92463000  0.08671900  0.72042700  1
  C  164  1  0.88416600  0.12762500  0.73634100  1
  C  165  1  0.92604200  0.08885900  0.78553900  1
  C  166  1  0.88507800  0.12890800  0.76940500  1
  C  167  1  0.84288900  0.16745600  0.71995000  1
  C  168  1  0.80301600  0.20815700  0.73626200  1
  C  169  1  0.84480100  0.17009300  0.78557800  1
  C  170  1  0.80400100  0.20950400  0.76905200  1
  C  183  1  0.20848200  0.20902400  0.23659100  1
  C  184  1  0.20960300  0.20805700  0.26938400  1
  C  185  1  0.16994900  0.16739100  0.28585200  1
  C  186  1  0.12875300  0.12722300  0.26961800  1
  C  187  1  0.12769800  0.12812000  0.23655200  1
  C  188  1  0.16776300  0.16926600  0.22022000  1
  C  189  1  0.08678900  0.08776000  0.22057600  1
  C  190  1  0.04616500  0.04583600  0.23645600  1
  C  191  1  0.08848000  0.08637500  0.28569100  1
  C  192  1  0.04648300  0.04567800  0.26990700  1
  C  193  1  0.00573000  0.00481800  0.21962500  1
  C  194  1  0.96516800  0.96409700  0.23655600  1
  C  195  1  0.00553400  0.00533600  0.28683500  1
  C  196  1  0.96466600  0.96476000  0.27000100  1
  C  197  1  0.92460000  0.92196800  0.22077600  1
  C  198  1  0.88355000  0.88190800  0.23684600  1
  C  199  1  0.92254300  0.92434200  0.28588000  1
  C  200  1  0.88231000  0.88330900  0.26990700  1
  C  201  1  0.84351500  0.84057800  0.22061500  1
  C  202  1  0.80264000  0.80114100  0.23708200  1
  C  203  1  0.84095800  0.84345600  0.28623700  1
  C  204  1  0.80133500  0.80260700  0.26986800  1
  C  217  1  0.71693300  0.47304700  0.99965800  1
  C  218  1  0.71692200  0.53723400  0.00644400  1
  C  219  1  0.77376900  0.56939900  0.00979800  1
  C  220  1  0.83123300  0.53751700  0.00642000  1
  C  221  1  0.83124200  0.47278800  0.99971600  1
  C  222  1  0.77379000  0.44088800  0.99632900  1
  C  223  1  0.88871500  0.44124200  0.99734200  1
  C  224  1  0.94711100  0.47190800  0.00155600  1
  C  225  1  0.88869700  0.56907700  0.00879600  1
  C  226  1  0.94710200  0.53843000  0.00457800  1
  C  227  1  0.00456800  0.43794700  0.00289800  1
  C  228  1  0.06202400  0.47189200  0.00439000  1
  C  229  1  0.00454900  0.57240300  0.00323400  1
  C  230  1  0.06201000  0.53847600  0.00169400  1
  C  231  1  0.12043900  0.44117200  0.00843800  1
  C  232  1  0.17789700  0.47277600  0.00618400  1
  C  233  1  0.12039800  0.56921900  0.99759900  1
  C  234  1  0.17787400  0.53762900  0.99978600  1
  C  235  1  0.23536700  0.44083200  0.00938900  1
  C  236  1  0.29220800  0.47306100  0.00616400  1
  C  237  1  0.23532100  0.56958300  0.99650900  1
  C  238  1  0.29218500  0.53736700  0.99967000  1
  C  251  1  0.53889200  0.71693600  0.49968400  1
  C  252  1  0.47469200  0.71689800  0.50644000  1
  C  253  1  0.44250400  0.77373200  0.50980000  1
  C  254  1  0.47438200  0.83121000  0.50646600  1
  C  255  1  0.53912500  0.83124500  0.49979400  1
  C  256  1  0.57104200  0.77380600  0.49639300  1
  C  257  1  0.57066200  0.88873000  0.49746600  1
  C  258  1  0.53997300  0.94711400  0.50168700  1
  C  259  1  0.44280300  0.88865900  0.50885400  1
  C  260  1  0.47344400  0.94708000  0.50467500  1
  C  261  1  0.57391600  0.00457700  0.50306000  1
  C  262  1  0.53995200  0.06202000  0.50454200  1
  C  263  1  0.43945400  0.00451900  0.50333500  1
  C  264  1  0.47336600  0.06198800  0.50182700  1
  C  265  1  0.57065000  0.12044400  0.50860000  1
  C  266  1  0.53903400  0.17789500  0.50633500  1
  C  267  1  0.44261000  0.12037300  0.49773700  1
  C  268  1  0.47418600  0.17785500  0.49992700  1
  C  269  1  0.57096300  0.23537200  0.50953600  1
  C  270  1  0.53872800  0.29220600  0.50629300  1
  C  271  1  0.44221900  0.23529600  0.49664000  1
  C  272  1  0.47442400  0.29216600  0.49978700  1
  H  49  1  0.08340000  0.94432800  0.18046200  1
  H  50  1  0.08371700  0.94477200  0.12441500  1
  H  51  1  0.92793500  0.06502200  0.18051400  1
  H  52  1  0.92777000  0.06494700  0.12449100  1
  H  53  1  0.95507600  0.88830000  0.10386300  1
  H  54  1  0.95228600  0.80528900  0.06154300  1
  H  55  1  0.02882300  0.96335400  0.02423800  1
  H  56  1  0.02921900  0.04724300  0.98208400  1
  H  57  1  0.05347000  0.12438000  0.10542100  1
  H  58  1  0.05557700  0.20791200  0.06317000  1
  H  59  1  0.06415900  0.24756300  0.96387900  1
  H  60  1  0.05932000  0.35875100  0.96202800  1
  H  61  1  0.94524800  0.24812600  0.04244800  1
  H  62  1  0.94965100  0.35925500  0.04380700  1
  H  63  1  0.95212300  0.20498500  0.94482500  1
  H  64  1  0.95512000  0.12196000  0.90252100  1
  H  65  1  0.05579100  0.80244100  0.94320200  1
  H  66  1  0.05382600  0.88603500  0.90098300  1
  H  67  1  0.92841600  0.94555400  0.88173700  1
  H  68  1  0.92905100  0.94568000  0.82571100  1
  H  69  1  0.08429700  0.06580700  0.88224600  1
  H  70  1  0.08446500  0.06643300  0.82619600  1
  H  71  1  0.06430900  0.76259400  0.04239400  1
  H  72  1  0.05939600  0.65140600  0.04415000  1
  H  73  1  0.94959000  0.65127300  0.96241500  1
  H  74  1  0.94529200  0.76241400  0.96386700  1
  H  123  1  0.06818800  0.08317000  0.68032400  1
  H  124  1  0.06758900  0.08327400  0.62427500  1
  H  125  1  0.94737700  0.92779800  0.68060700  1
  H  126  1  0.94728400  0.92743400  0.62458300  1
  H  127  1  0.12385700  0.95455300  0.60381800  1
  H  128  1  0.20679300  0.95185000  0.56148100  1
  H  129  1  0.04880200  0.02861900  0.52434600  1
  H  130  1  0.96469000  0.02855200  0.48222400  1
  H  131  1  0.88786400  0.05314500  0.60552200  1
  H  132  1  0.80417800  0.05530600  0.56334600  1
  H  133  1  0.76435000  0.06406000  0.46405500  1
  H  134  1  0.65315200  0.05931600  0.46220800  1
  H  135  1  0.76370300  0.94512200  0.54260900  1
  H  136  1  0.65257300  0.94960400  0.54397000  1
  H  137  1  0.80666700  0.95204600  0.44496100  1
  H  138  1  0.88960700  0.95478700  0.40262000  1
  H  139  1  0.20926600  0.05546900  0.44317300  1
  H  140  1  0.12563200  0.05334900  0.40096500  1
  H  141  1  0.06619800  0.92753400  0.38191300  1
  H  142  1  0.06600300  0.92765000  0.32588900  1
  H  143  1  0.94594400  0.08341900  0.38209900  1
  H  144  1  0.94524300  0.08306300  0.32605000  1
  H  145  1  0.24906100  0.06386400  0.54244500  1
  H  146  1  0.36027700  0.05916300  0.54424100  1
  H  147  1  0.36075900  0.94961200  0.46242500  1
  H  148  1  0.24963000  0.94512400  0.46381400  1
  H  171  1  0.23804700  0.77149000  0.78215300  1
  H  172  1  0.16842800  0.83967000  0.81035400  1
  H  173  1  0.17325400  0.84323200  0.69696700  1
  H  174  1  0.24052000  0.77333200  0.72553900  1
  H  175  1  0.08816600  0.92105000  0.80984300  1
  H  176  1  0.09254600  0.92415800  0.69704200  1
  H  177  1  0.92560100  0.09092000  0.80938100  1
  H  178  1  0.92282700  0.08688700  0.69657700  1
  H  179  1  0.77500200  0.23912100  0.78088800  1
  H  180  1  0.84475400  0.17170400  0.80946000  1
  H  181  1  0.77332500  0.23682000  0.72426900  1
  H  182  1  0.84152400  0.16722600  0.69606600  1
  H  205  1  0.23923200  0.23696900  0.28126500  1
  H  206  1  0.17140700  0.16744600  0.30973600  1
  H  207  1  0.16770000  0.17061200  0.19633600  1
  H  208  1  0.23731800  0.23861300  0.22464300  1
  H  209  1  0.09036600  0.08683700  0.30953800  1
  H  210  1  0.08713000  0.08953900  0.19672600  1
  H  211  1  0.92049300  0.92427000  0.30972500  1
  H  212  1  0.92440800  0.91980900  0.19693300  1
  H  213  1  0.77158900  0.77392300  0.28181600  1
  H  214  1  0.83936600  0.84377000  0.31011700  1
  H  215  1  0.77382000  0.77141600  0.22520300  1
  H  216  1  0.84370400  0.83887600  0.19673600  1
  H  239  1  0.67556300  0.56057700  0.00884200  1
  H  240  1  0.77279800  0.61624400  0.01449400  1
  H  241  1  0.77283300  0.39404900  0.99161800  1
  H  242  1  0.67558200  0.44969800  0.99724200  1
  H  243  1  0.88714200  0.61568800  0.01377400  1
  H  244  1  0.88717700  0.39463500  0.99235800  1
  H  245  1  0.12194200  0.61591600  0.99284100  1
  H  246  1  0.12201700  0.39447700  0.01319600  1
  H  247  1  0.33353200  0.56076200  0.99734200  1
  H  248  1  0.23627200  0.61651200  0.99202600  1
  H  249  1  0.33357100  0.44967400  0.00843400  1
  H  250  1  0.23634700  0.39390300  0.01387200  1
  H  273  1  0.45135200  0.67553000  0.50880500  1
  H  274  1  0.39565400  0.77274000  0.51447300  1
  H  275  1  0.61789400  0.77286800  0.49171400  1
  H  276  1  0.56225600  0.67559300  0.49726300  1
  H  277  1  0.39618600  0.88708600  0.51381000  1
  H  278  1  0.61728000  0.88721200  0.49250600  1
  H  279  1  0.39591200  0.12190400  0.49297500  1
  H  280  1  0.61734000  0.12203600  0.51336700  1
  H  281  1  0.45102400  0.33350600  0.49745200  1
  H  282  1  0.39529500  0.23623100  0.49214400  1
  H  283  1  0.56210400  0.33357500  0.50856000  1
  H  284  1  0.61788600  0.23636700  0.51402700  1
  N  4  1  0.00573000  0.93585600  0.03798100  1
  N  8  1  0.00534800  0.07624200  0.03906300  1
  N  14  1  0.00512300  0.07428100  0.96853900  1
  N  20  1  0.00568400  0.93412400  0.96734100  1
  N  78  1  0.07587200  0.00444400  0.53783700  1
  N  82  1  0.93572800  0.00500200  0.53912600  1
  N  88  1  0.93746200  0.00498100  0.46854900  1
  N  94  1  0.07769500  0.00509300  0.46733200  1
