# generated using pymatgen
data_CuH5C12NO4
_symmetry_space_group_name_H-M   'P 1'
_cell_length_a   30.56431928
_cell_length_b   30.56596563
_cell_length_c   30.58272000
_cell_angle_alpha   60.02076088
_cell_angle_beta   90.00000072
_cell_angle_gamma   119.99819744
_symmetry_Int_Tables_number   1
_chemical_formula_structural   CuH5C12NO4
_chemical_formula_sum   'Cu24 H120 C288 N24 O96'
_cell_volume   20209.79912733
_cell_formula_units_Z   24
loop_
 _symmetry_equiv_pos_site_id
 _symmetry_equiv_pos_as_xyz
  1  'x, y, z'
loop_
 _atom_site_type_symbol
 _atom_site_label
 _atom_site_symmetry_multiplicity
 _atom_site_fract_x
 _atom_site_fract_y
 _atom_site_fract_z
 _atom_site_occupancy
  Cu  Cu0  1  0.00002000  0.00004000  0.73397000  1
  Cu  Cu1  1  0.99998000  0.99996000  0.65394000  1
  Cu  Cu2  1  0.73402000  1.00000000  0.00000000  1
  Cu  Cu3  1  0.65389000  1.00000000  0.00000000  1
  Cu  Cu4  1  0.99998000  0.99996000  0.26603000  1
  Cu  Cu5  1  0.00002000  0.00004000  0.34606000  1
  Cu  Cu6  1  0.26598000  0.00000000  0.00000000  1
  Cu  Cu7  1  0.34611000  1.00000000  0.00000000  1
  Cu  Cu8  1  0.00001000  0.26599000  0.00000000  1
  Cu  Cu9  1  0.99999000  0.34610000  0.00001000  1
  Cu  Cu10  1  0.73401000  0.73398000  0.26604000  1
  Cu  Cu11  1  0.65390000  0.65393000  0.34605000  1
  Cu  Cu12  1  0.99999000  0.73401000  0.00001000  1
  Cu  Cu13  1  0.00001000  0.65390000  0.00000000  1
  Cu  Cu14  1  0.26599000  0.26602000  0.73396000  1
  Cu  Cu15  1  0.34611000  0.34608000  0.65394000  1
  Cu  Cu16  1  0.99997000  0.73398000  0.26604000  1
  Cu  Cu17  1  0.00003000  0.65393000  0.34605000  1
  Cu  Cu18  1  0.73402000  0.73401000  0.00001000  1
  Cu  Cu19  1  0.65389000  0.65389000  0.00001000  1
  Cu  Cu20  1  0.00003000  0.26602000  0.73396000  1
  Cu  Cu21  1  0.99997000  0.34607000  0.65395000  1
  Cu  Cu22  1  0.26598000  0.26599000  1.00000000  1
  Cu  Cu23  1  0.34611000  0.34610000  0.00001000  1
  H  H24  1  0.83329000  0.86510000  0.69179000  1
  H  H25  1  0.61349000  0.67427000  0.76904000  1
  H  H26  1  0.69169000  0.13488000  0.83330000  1
  H  H27  1  0.76913000  0.32575000  0.61345000  1
  H  H28  1  0.03182000  0.86518000  0.44313000  1
  H  H29  1  0.06079000  0.67422000  0.55672000  1
  H  H30  1  0.44317000  0.13484000  0.03183000  1
  H  H31  1  0.55664000  0.32576000  0.06080000  1
  H  H32  1  0.83334000  0.27650000  0.03182000  1
  H  H33  1  0.61346000  0.17011000  0.06079000  1
  H  H34  1  0.69170000  0.72351000  0.44314000  1
  H  H35  1  0.76907000  0.82985000  0.55672000  1
  H  H36  1  0.03182000  0.72351000  0.83331000  1
  H  H37  1  0.06080000  0.82992000  0.61345000  1
  H  H38  1  0.44311000  0.27639000  0.69180000  1
  H  H39  1  0.55670000  0.17019000  0.76904000  1
  H  H40  1  0.83337000  0.52506000  0.44313000  1
  H  H41  1  0.61342000  0.38249000  0.55673000  1
  H  H42  1  0.69167000  0.52502000  0.03183000  1
  H  H43  1  0.76912000  0.38256000  0.06080000  1
  H  H44  1  0.03182000  0.47493000  0.69179000  1
  H  H45  1  0.06078000  0.61748000  0.76904000  1
  H  H46  1  0.44318000  0.47500000  0.83331000  1
  H  H47  1  0.55664000  0.61744000  0.61345000  1
  H  H48  1  0.30831000  0.27649000  0.16670000  1
  H  H49  1  0.23089000  0.17009000  0.38655000  1
  H  H50  1  0.16672000  0.72361000  0.30821000  1
  H  H51  1  0.38651000  0.82981000  0.23097000  1
  H  H52  1  0.55684000  0.72350000  0.96819000  1
  H  H53  1  0.44335000  0.82990000  0.93921000  1
  H  H54  1  0.96819000  0.27649000  0.55687000  1
  H  H55  1  0.93922000  0.17015000  0.44329000  1
  H  H56  1  0.96818000  0.52500000  0.16670000  1
  H  H57  1  0.93920000  0.38256000  0.38656000  1
  H  H58  1  0.55689000  0.52507000  0.30823000  1
  H  H59  1  0.44330000  0.38252000  0.23097000  1
  H  H60  1  0.16665000  0.47498000  0.96818000  1
  H  H61  1  0.38656000  0.61744000  0.93921000  1
  H  H62  1  0.30831000  0.47494000  0.55688000  1
  H  H63  1  0.23093000  0.61751000  0.44328000  1
  H  H64  1  0.55681000  0.86512000  0.16671000  1
  H  H65  1  0.44337000  0.67424000  0.38657000  1
  H  H66  1  0.96819000  0.13490000  0.30822000  1
  H  H67  1  0.93922000  0.32573000  0.23097000  1
  H  H68  1  0.30833000  0.86516000  0.96818000  1
  H  H69  1  0.23088000  0.67425000  0.93920000  1
  H  H70  1  0.16664000  0.13482000  0.55688000  1
  H  H71  1  0.38657000  0.32579000  0.44329000  1
  H  H72  1  0.16672000  0.13490000  0.30822000  1
  H  H73  1  0.38652000  0.32574000  0.23096000  1
  H  H74  1  0.30832000  0.86513000  0.16670000  1
  H  H75  1  0.23087000  0.67424000  0.38657000  1
  H  H76  1  0.96819000  0.13483000  0.55687000  1
  H  H77  1  0.93922000  0.32579000  0.44328000  1
  H  H78  1  0.55683000  0.86516000  0.96818000  1
  H  H79  1  0.44337000  0.67425000  0.93920000  1
  H  H80  1  0.16667000  0.72351000  0.96818000  1
  H  H81  1  0.38655000  0.82990000  0.93921000  1
  H  H82  1  0.30830000  0.27648000  0.55688000  1
  H  H83  1  0.23094000  0.17016000  0.44328000  1
  H  H84  1  0.96818000  0.27648000  0.16671000  1
  H  H85  1  0.93920000  0.17008000  0.38656000  1
  H  H86  1  0.55689000  0.72361000  0.30821000  1
  H  H87  1  0.44330000  0.82981000  0.23097000  1
  H  H88  1  0.16663000  0.47494000  0.55688000  1
  H  H89  1  0.38658000  0.61751000  0.44328000  1
  H  H90  1  0.30833000  0.47498000  0.96818000  1
  H  H91  1  0.23089000  0.61745000  0.93920000  1
  H  H92  1  0.96819000  0.52508000  0.30821000  1
  H  H93  1  0.93922000  0.38252000  0.23097000  1
  H  H94  1  0.55682000  0.52500000  0.16670000  1
  H  H95  1  0.44336000  0.38256000  0.38656000  1
  H  H96  1  0.69169000  0.72351000  0.83331000  1
  H  H97  1  0.76912000  0.82992000  0.61345000  1
  H  H98  1  0.83328000  0.27639000  0.69180000  1
  H  H99  1  0.61349000  0.17019000  0.76904000  1
  H  H100  1  0.44316000  0.27649000  0.03183000  1
  H  H101  1  0.55665000  0.17010000  0.06080000  1
  H  H102  1  0.03182000  0.72352000  0.44313000  1
  H  H103  1  0.06078000  0.82985000  0.55672000  1
  H  H104  1  0.03182000  0.47500000  0.83331000  1
  H  H105  1  0.06080000  0.61744000  0.61345000  1
  H  H106  1  0.44311000  0.47492000  0.69180000  1
  H  H107  1  0.55670000  0.61748000  0.76904000  1
  H  H108  1  0.83335000  0.52502000  0.03183000  1
  H  H109  1  0.61344000  0.38255000  0.06081000  1
  H  H110  1  0.69169000  0.52506000  0.44313000  1
  H  H111  1  0.76907000  0.38249000  0.55673000  1
  H  H112  1  0.44319000  0.13487000  0.83331000  1
  H  H113  1  0.55663000  0.32576000  0.61344000  1
  H  H114  1  0.03182000  0.86511000  0.69178000  1
  H  H115  1  0.06078000  0.67426000  0.76905000  1
  H  H116  1  0.69167000  0.13484000  0.03183000  1
  H  H117  1  0.76912000  0.32575000  0.06081000  1
  H  H118  1  0.83336000  0.86517000  0.44314000  1
  H  H119  1  0.61343000  0.67421000  0.55672000  1
  H  H120  1  0.83812000  0.85246000  0.83806000  1
  H  H121  1  0.83813000  0.14760000  0.83806000  1
  H  H122  1  0.01435000  0.85240000  0.30955000  1
  H  H123  1  0.30945000  0.14756000  0.01435000  1
  H  H124  1  0.83812000  0.14756000  0.01435000  1
  H  H125  1  0.83805000  0.85240000  0.30955000  1
  H  H126  1  0.01434000  0.85246000  0.83807000  1
  H  H127  1  0.30947000  0.14760000  0.83806000  1
  H  H128  1  0.83805000  0.67610000  0.30955000  1
  H  H129  1  0.83810000  0.67620000  0.01434000  1
  H  H130  1  0.01434000  0.32383000  0.83806000  1
  H  H131  1  0.30949000  0.32383000  0.83806000  1
  H  H132  1  0.16188000  0.14754000  0.16195000  1
  H  H133  1  0.16187000  0.85240000  0.16195000  1
  H  H134  1  0.69056000  0.85244000  0.98566000  1
  H  H135  1  0.98565000  0.14759000  0.69047000  1
  H  H136  1  0.98566000  0.67617000  0.16195000  1
  H  H137  1  0.69052000  0.67617000  0.16195000  1
  H  H138  1  0.16190000  0.32380000  0.98567000  1
  H  H139  1  0.16195000  0.32390000  0.69046000  1
  H  H140  1  0.69053000  0.85240000  0.16195000  1
  H  H141  1  0.98566000  0.14754000  0.16194000  1
  H  H142  1  0.16189000  0.85245000  0.98565000  1
  H  H143  1  0.16195000  0.14760000  0.69046000  1
  C  C144  1  0.89950000  0.91558000  0.73606000  1
  C  C145  1  0.84121000  0.86402000  0.76212000  1
  C  C146  1  0.81272000  0.84285000  0.73336000  1
  C  C147  1  0.73605000  0.08444000  0.89949000  1
  C  C148  1  0.76209000  0.13596000  0.84123000  1
  C  C149  1  0.73327000  0.15709000  0.81278000  1
  C  C150  1  0.01609000  0.91559000  0.34841000  1
  C  C151  1  0.02282000  0.86403000  0.37391000  1
  C  C152  1  0.03014000  0.84290000  0.42383000  1
  C  C153  1  0.34837000  0.08440000  0.01608000  1
  C  C154  1  0.37386000  0.13594000  0.02283000  1
  C  C155  1  0.42382000  0.15709000  0.03014000  1
  C  C156  1  0.89953000  0.24789000  0.01608000  1
  C  C157  1  0.84124000  0.21510000  0.02282000  1
  C  C158  1  0.81277000  0.23658000  0.03015000  1
  C  C159  1  0.73601000  0.75209000  0.34841000  1
  C  C160  1  0.76207000  0.78489000  0.37390000  1
  C  C161  1  0.73328000  0.76342000  0.42383000  1
  C  C162  1  0.01607000  0.75212000  0.89949000  1
  C  C163  1  0.02281000  0.78490000  0.84123000  1
  C  C164  1  0.03014000  0.76342000  0.81276000  1
  C  C165  1  0.34835000  0.24785000  0.73608000  1
  C  C166  1  0.37386000  0.21507000  0.76212000  1
  C  C167  1  0.42380000  0.23652000  0.73335000  1
  C  C168  1  0.89950000  0.63550000  0.34842000  1
  C  C169  1  0.84121000  0.60326000  0.37392000  1
  C  C170  1  0.81276000  0.54603000  0.42383000  1
  C  C171  1  0.73602000  0.63555000  0.01608000  1
  C  C172  1  0.76208000  0.60331000  0.02283000  1
  C  C173  1  0.73327000  0.54604000  0.03015000  1
  C  C174  1  0.01608000  0.36444000  0.73607000  1
  C  C175  1  0.02281000  0.39667000  0.76212000  1
  C  C176  1  0.03013000  0.45393000  0.73335000  1
  C  C177  1  0.34840000  0.36447000  0.89949000  1
  C  C178  1  0.37388000  0.39669000  0.84123000  1
  C  C179  1  0.42382000  0.45396000  0.81277000  1
  C  C180  1  0.26396000  0.24789000  0.10051000  1
  C  C181  1  0.23791000  0.21510000  0.15879000  1
  C  C182  1  0.26672000  0.23658000  0.18725000  1
  C  C183  1  0.10050000  0.75215000  0.26394000  1
  C  C184  1  0.15879000  0.78494000  0.23788000  1
  C  C185  1  0.18728000  0.76349000  0.26665000  1
  C  C186  1  0.65164000  0.75211000  0.98392000  1
  C  C187  1  0.62614000  0.78490000  0.97719000  1
  C  C188  1  0.57619000  0.76342000  0.96986000  1
  C  C189  1  0.98392000  0.24791000  0.65159000  1
  C  C190  1  0.97718000  0.21511000  0.62611000  1
  C  C191  1  0.96986000  0.23658000  0.57618000  1
  C  C192  1  0.98393000  0.63553000  0.10052000  1
  C  C193  1  0.97719000  0.60331000  0.15878000  1
  C  C194  1  0.96987000  0.54604000  0.18724000  1
  C  C195  1  0.65164000  0.63556000  0.26395000  1
  C  C196  1  0.62614000  0.60333000  0.23789000  1
  C  C197  1  0.57620000  0.54606000  0.26667000  1
  C  C198  1  0.10047000  0.36445000  0.98393000  1
  C  C199  1  0.15876000  0.39668000  0.97719000  1
  C  C200  1  0.18723000  0.45396000  0.96986000  1
  C  C201  1  0.26400000  0.36450000  0.65159000  1
  C  C202  1  0.23794000  0.39673000  0.62610000  1
  C  C203  1  0.26673000  0.45397000  0.57618000  1
  C  C204  1  0.65161000  0.91556000  0.10052000  1
  C  C205  1  0.62612000  0.86403000  0.15879000  1
  C  C206  1  0.57618000  0.84291000  0.18723000  1
  C  C207  1  0.98392000  0.08442000  0.26394000  1
  C  C208  1  0.97719000  0.13597000  0.23790000  1
  C  C209  1  0.96987000  0.15714000  0.26666000  1
  C  C210  1  0.26397000  0.91560000  0.98393000  1
  C  C211  1  0.23792000  0.86406000  0.97718000  1
  C  C212  1  0.26673000  0.84291000  0.96987000  1
  C  C213  1  0.10050000  0.08441000  0.65160000  1
  C  C214  1  0.15879000  0.13597000  0.62610000  1
  C  C215  1  0.18725000  0.15711000  0.57618000  1
  C  C216  1  0.10050000  0.08442000  0.26395000  1
  C  C217  1  0.15879000  0.13598000  0.23789000  1
  C  C218  1  0.18728000  0.15715000  0.26666000  1
  C  C219  1  0.26396000  0.91557000  0.10051000  1
  C  C220  1  0.23792000  0.86404000  0.15878000  1
  C  C221  1  0.26673000  0.84291000  0.18723000  1
  C  C222  1  0.98391000  0.08441000  0.65160000  1
  C  C223  1  0.97718000  0.13597000  0.62610000  1
  C  C224  1  0.96986000  0.15710000  0.57618000  1
  C  C225  1  0.65163000  0.91560000  0.98393000  1
  C  C226  1  0.62614000  0.86406000  0.97718000  1
  C  C227  1  0.57619000  0.84292000  0.96986000  1
  C  C228  1  0.10047000  0.75211000  0.98393000  1
  C  C229  1  0.15876000  0.78490000  0.97719000  1
  C  C230  1  0.18723000  0.76342000  0.96986000  1
  C  C231  1  0.26399000  0.24790000  0.65161000  1
  C  C232  1  0.23794000  0.21512000  0.62610000  1
  C  C233  1  0.26672000  0.23658000  0.57618000  1
  C  C234  1  0.98393000  0.24788000  0.10052000  1
  C  C235  1  0.97719000  0.21510000  0.15878000  1
  C  C236  1  0.96987000  0.23659000  0.18724000  1
  C  C237  1  0.65165000  0.75214000  0.26395000  1
  C  C238  1  0.62615000  0.78493000  0.23789000  1
  C  C239  1  0.57621000  0.76349000  0.26665000  1
  C  C240  1  0.10050000  0.36450000  0.65159000  1
  C  C241  1  0.15879000  0.39673000  0.62610000  1
  C  C242  1  0.18724000  0.45397000  0.57618000  1
  C  C243  1  0.26398000  0.36445000  0.98393000  1
  C  C244  1  0.23793000  0.39669000  0.97718000  1
  C  C245  1  0.26673000  0.45396000  0.96986000  1
  C  C246  1  0.98392000  0.63555000  0.26396000  1
  C  C247  1  0.97719000  0.60332000  0.23790000  1
  C  C248  1  0.96987000  0.54607000  0.26666000  1
  C  C249  1  0.65161000  0.63554000  0.10051000  1
  C  C250  1  0.62612000  0.60331000  0.15878000  1
  C  C251  1  0.57618000  0.54604000  0.18724000  1
  C  C252  1  0.73605000  0.75212000  0.89949000  1
  C  C253  1  0.76209000  0.78490000  0.84122000  1
  C  C254  1  0.73328000  0.76341000  0.81277000  1
  C  C255  1  0.89951000  0.24786000  0.73606000  1
  C  C256  1  0.84122000  0.21507000  0.76212000  1
  C  C257  1  0.81272000  0.23651000  0.73336000  1
  C  C258  1  0.34837000  0.24790000  0.01608000  1
  C  C259  1  0.37386000  0.21510000  0.02282000  1
  C  C260  1  0.42381000  0.23658000  0.03015000  1
  C  C261  1  0.01609000  0.75210000  0.34841000  1
  C  C262  1  0.02282000  0.78488000  0.37392000  1
  C  C263  1  0.03014000  0.76342000  0.42383000  1
  C  C264  1  0.01607000  0.36447000  0.89949000  1
  C  C265  1  0.02281000  0.39669000  0.84123000  1
  C  C266  1  0.03014000  0.45396000  0.81277000  1
  C  C267  1  0.34836000  0.36444000  0.73606000  1
  C  C268  1  0.37386000  0.39667000  0.76212000  1
  C  C269  1  0.42380000  0.45393000  0.73335000  1
  C  C270  1  0.89953000  0.63555000  0.01608000  1
  C  C271  1  0.84124000  0.60331000  0.02283000  1
  C  C272  1  0.81277000  0.54604000  0.03015000  1
  C  C273  1  0.73600000  0.63550000  0.34842000  1
  C  C274  1  0.76206000  0.60327000  0.37391000  1
  C  C275  1  0.73328000  0.54604000  0.42382000  1
  C  C276  1  0.34839000  0.08443000  0.89950000  1
  C  C277  1  0.37388000  0.13597000  0.84122000  1
  C  C278  1  0.42382000  0.15709000  0.81278000  1
  C  C279  1  0.01608000  0.91558000  0.73607000  1
  C  C280  1  0.02281000  0.86402000  0.76212000  1
  C  C281  1  0.03013000  0.84285000  0.73336000  1
  C  C282  1  0.73603000  0.08440000  0.01608000  1
  C  C283  1  0.76208000  0.13594000  0.02283000  1
  C  C284  1  0.73327000  0.15708000  0.03015000  1
  C  C285  1  0.89950000  0.91559000  0.34841000  1
  C  C286  1  0.84121000  0.86403000  0.37391000  1
  C  C287  1  0.81276000  0.84290000  0.42382000  1
  C  C288  1  0.81592000  0.83575000  0.81592000  1
  C  C289  1  0.75804000  0.79265000  0.75811000  1
  C  C290  1  0.72902000  0.77123000  0.72910000  1
  C  C291  1  0.70444000  0.75147000  0.70436000  1
  C  C292  1  0.67698000  0.72687000  0.67693000  1
  C  C293  1  0.81592000  0.16425000  0.81592000  1
  C  C294  1  0.75804000  0.20728000  0.75811000  1
  C  C295  1  0.72902000  0.22869000  0.72910000  1
  C  C296  1  0.70445000  0.24862000  0.70435000  1
  C  C297  1  0.67698000  0.27318000  0.67693000  1
  C  C298  1  0.01985000  0.83574000  0.34838000  1
  C  C299  1  0.03461000  0.79268000  0.44926000  1
  C  C300  1  0.04220000  0.77126000  0.49969000  1
  C  C301  1  0.04702000  0.75142000  0.54418000  1
  C  C302  1  0.04988000  0.72685000  0.59618000  1
  C  C303  1  0.34831000  0.16424000  0.01984000  1
  C  C304  1  0.44923000  0.20730000  0.03462000  1
  C  C305  1  0.49967000  0.22872000  0.04223000  1
  C  C306  1  0.54416000  0.24857000  0.04704000  1
  C  C307  1  0.59620000  0.27316000  0.04990000  1
  C  C308  1  0.81593000  0.16424000  0.01984000  1
  C  C309  1  0.75807000  0.20730000  0.03462000  1
  C  C310  1  0.72905000  0.22872000  0.04223000  1
  C  C311  1  0.70441000  0.24856000  0.04705000  1
  C  C312  1  0.67696000  0.27315000  0.04991000  1
  C  C313  1  0.81589000  0.83573000  0.34838000  1
  C  C314  1  0.75807000  0.79268000  0.44926000  1
  C  C315  1  0.72906000  0.77126000  0.49969000  1
  C  C316  1  0.70441000  0.75143000  0.54417000  1
  C  C317  1  0.67697000  0.72684000  0.59619000  1
  C  C318  1  0.01983000  0.83575000  0.81592000  1
  C  C319  1  0.03461000  0.79265000  0.75811000  1
  C  C320  1  0.04221000  0.77123000  0.72910000  1
  C  C321  1  0.04703000  0.75147000  0.70436000  1
  C  C322  1  0.04989000  0.72687000  0.67693000  1
  C  C323  1  0.34833000  0.16425000  0.81592000  1
  C  C324  1  0.44924000  0.20727000  0.75813000  1
  C  C325  1  0.49968000  0.22870000  0.72909000  1
  C  C326  1  0.54417000  0.24861000  0.70436000  1
  C  C327  1  0.59621000  0.27319000  0.67692000  1
  C  C328  1  0.81589000  0.63177000  0.34839000  1
  C  C329  1  0.75807000  0.51613000  0.44927000  1
  C  C330  1  0.72906000  0.45812000  0.49968000  1
  C  C331  1  0.70441000  0.40882000  0.54417000  1
  C  C332  1  0.67698000  0.35395000  0.59618000  1
  C  C333  1  0.81592000  0.63184000  0.01984000  1
  C  C334  1  0.75808000  0.51616000  0.03461000  1
  C  C335  1  0.72906000  0.45812000  0.04222000  1
  C  C336  1  0.70441000  0.40881000  0.04704000  1
  C  C337  1  0.67696000  0.35392000  0.04990000  1
  C  C338  1  0.01983000  0.36817000  0.81592000  1
  C  C339  1  0.03461000  0.48385000  0.75811000  1
  C  C340  1  0.04221000  0.54188000  0.72910000  1
  C  C341  1  0.04703000  0.59120000  0.70437000  1
  C  C342  1  0.04989000  0.64609000  0.67693000  1
  C  C343  1  0.34834000  0.36817000  0.81592000  1
  C  C344  1  0.44924000  0.48385000  0.75811000  1
  C  C345  1  0.49968000  0.54189000  0.72909000  1
  C  C346  1  0.54417000  0.59120000  0.70436000  1
  C  C347  1  0.59620000  0.64609000  0.67693000  1
  C  C348  1  0.18408000  0.16425000  0.18409000  1
  C  C349  1  0.24196000  0.20735000  0.24190000  1
  C  C350  1  0.27098000  0.22877000  0.27091000  1
  C  C351  1  0.29557000  0.24854000  0.29564000  1
  C  C352  1  0.32302000  0.27313000  0.32308000  1
  C  C353  1  0.18408000  0.83575000  0.18409000  1
  C  C354  1  0.24197000  0.79273000  0.24189000  1
  C  C355  1  0.27098000  0.77130000  0.27092000  1
  C  C356  1  0.29556000  0.75139000  0.29565000  1
  C  C357  1  0.32302000  0.72681000  0.32309000  1
  C  C358  1  0.65169000  0.83576000  0.98017000  1
  C  C359  1  0.55077000  0.79270000  0.96539000  1
  C  C360  1  0.50033000  0.77128000  0.95778000  1
  C  C361  1  0.45584000  0.75143000  0.95297000  1
  C  C362  1  0.40381000  0.72685000  0.95010000  1
  C  C363  1  0.98016000  0.16427000  0.65162000  1
  C  C364  1  0.96539000  0.20732000  0.55075000  1
  C  C365  1  0.95780000  0.22874000  0.50032000  1
  C  C366  1  0.95298000  0.24857000  0.45584000  1
  C  C367  1  0.95013000  0.27316000  0.40382000  1
  C  C368  1  0.98017000  0.63183000  0.18409000  1
  C  C369  1  0.96539000  0.51615000  0.24190000  1
  C  C370  1  0.95779000  0.45811000  0.27092000  1
  C  C371  1  0.95297000  0.40880000  0.29564000  1
  C  C372  1  0.95011000  0.35391000  0.32308000  1
  C  C373  1  0.65166000  0.63183000  0.18409000  1
  C  C374  1  0.55076000  0.51615000  0.24190000  1
  C  C375  1  0.50033000  0.45812000  0.27091000  1
  C  C376  1  0.45583000  0.40880000  0.29565000  1
  C  C377  1  0.40380000  0.35391000  0.32308000  1
  C  C378  1  0.18408000  0.36816000  0.98017000  1
  C  C379  1  0.24192000  0.48384000  0.96540000  1
  C  C380  1  0.27094000  0.54188000  0.95779000  1
  C  C381  1  0.29560000  0.59119000  0.95297000  1
  C  C382  1  0.32304000  0.64608000  0.95011000  1
  C  C383  1  0.18412000  0.36824000  0.65161000  1
  C  C384  1  0.24194000  0.48387000  0.55074000  1
  C  C385  1  0.27094000  0.54188000  0.50033000  1
  C  C386  1  0.29559000  0.59118000  0.45584000  1
  C  C387  1  0.32303000  0.64606000  0.40382000  1
  C  C388  1  0.65167000  0.83575000  0.18409000  1
  C  C389  1  0.55076000  0.79272000  0.24189000  1
  C  C390  1  0.50033000  0.77131000  0.27091000  1
  C  C391  1  0.45583000  0.75138000  0.29566000  1
  C  C392  1  0.40380000  0.72682000  0.32308000  1
  C  C393  1  0.98017000  0.16425000  0.18409000  1
  C  C394  1  0.96539000  0.20735000  0.24190000  1
  C  C395  1  0.95779000  0.22876000  0.27092000  1
  C  C396  1  0.95297000  0.24853000  0.29565000  1
  C  C397  1  0.95011000  0.27313000  0.32308000  1
  C  C398  1  0.18408000  0.83577000  0.98016000  1
  C  C399  1  0.24193000  0.79270000  0.96539000  1
  C  C400  1  0.27095000  0.77128000  0.95778000  1
  C  C401  1  0.29559000  0.75143000  0.95297000  1
  C  C402  1  0.32304000  0.72684000  0.95011000  1
  C  C403  1  0.18411000  0.16427000  0.65163000  1
  C  C404  1  0.24194000  0.20733000  0.55074000  1
  C  C405  1  0.27094000  0.22874000  0.50032000  1
  C  C406  1  0.29560000  0.24858000  0.45583000  1
  C  C407  1  0.32303000  0.27315000  0.40383000  1
  C  C408  1  0.62304000  0.67369000  0.70328000  1
  C  C409  1  0.70333000  0.32635000  0.62302000  1
  C  C410  1  0.05064000  0.67366000  0.62302000  1
  C  C411  1  0.62301000  0.32635000  0.05065000  1
  C  C412  1  0.62302000  0.24603000  0.05065000  1
  C  C413  1  0.70332000  0.75396000  0.62302000  1
  C  C414  1  0.05064000  0.75396000  0.62302000  1
  C  C415  1  0.62304000  0.24608000  0.70327000  1
  C  C416  1  0.62302000  0.32635000  0.62302000  1
  C  C417  1  0.70334000  0.32635000  0.05065000  1
  C  C418  1  0.05065000  0.67369000  0.70328000  1
  C  C419  1  0.62302000  0.67366000  0.62302000  1
  C  C420  1  0.29668000  0.24604000  0.37699000  1
  C  C421  1  0.37696000  0.75392000  0.29674000  1
  C  C422  1  0.37699000  0.75397000  0.94936000  1
  C  C423  1  0.94936000  0.24603000  0.37700000  1
  C  C424  1  0.94936000  0.32634000  0.37699000  1
  C  C425  1  0.37697000  0.32632000  0.29672000  1
  C  C426  1  0.37699000  0.67365000  0.94936000  1
  C  C427  1  0.29667000  0.67365000  0.37699000  1
  C  C428  1  0.37698000  0.67365000  0.37699000  1
  C  C429  1  0.94935000  0.32631000  0.29673000  1
  C  C430  1  0.29666000  0.67365000  0.94936000  1
  C  C431  1  0.37698000  0.32634000  0.37699000  1
  N  N432  1  0.59719000  0.64796000  0.75486000  1
  N  N433  1  0.75494000  0.35206000  0.59718000  1
  N  N434  1  0.05076000  0.64789000  0.59719000  1
  N  N435  1  0.59714000  0.35210000  0.05076000  1
  N  N436  1  0.59715000  0.19430000  0.05076000  1
  N  N437  1  0.75493000  0.80569000  0.59718000  1
  N  N438  1  0.05076000  0.80569000  0.59718000  1
  N  N439  1  0.59719000  0.19438000  0.75485000  1
  N  N440  1  0.59712000  0.35205000  0.59719000  1
  N  N441  1  0.75496000  0.35209000  0.05077000  1
  N  N442  1  0.05077000  0.64796000  0.75486000  1
  N  N443  1  0.59713000  0.64789000  0.59719000  1
  N  N444  1  0.24508000  0.19432000  0.40282000  1
  N  N445  1  0.40281000  0.80562000  0.24516000  1
  N  N446  1  0.40285000  0.80570000  0.94925000  1
  N  N447  1  0.94924000  0.19431000  0.40283000  1
  N  N448  1  0.94924000  0.35211000  0.40282000  1
  N  N449  1  0.40281000  0.35204000  0.24515000  1
  N  N450  1  0.40286000  0.64790000  0.94925000  1
  N  N451  1  0.24506000  0.64794000  0.40283000  1
  N  N452  1  0.40288000  0.64794000  0.40283000  1
  N  N453  1  0.94923000  0.35204000  0.24515000  1
  N  N454  1  0.24504000  0.64790000  0.94925000  1
  N  N455  1  0.40287000  0.35211000  0.40283000  1
  O  O456  1  0.92235000  0.93542000  0.76341000  1
  O  O457  1  0.92207000  0.93542000  0.68870000  1
  O  O458  1  0.76344000  0.06464000  0.92232000  1
  O  O459  1  0.68866000  0.06458000  0.92209000  1
  O  O460  1  0.01307000  0.93537000  0.30124000  1
  O  O461  1  0.01336000  0.93549000  0.37589000  1
  O  O462  1  0.30118000  0.06460000  0.01306000  1
  O  O463  1  0.37591000  0.06454000  0.01335000  1
  O  O464  1  0.92236000  0.22353000  0.01306000  1
  O  O465  1  0.92212000  0.29802000  0.01335000  1
  O  O466  1  0.76340000  0.77646000  0.30125000  1
  O  O467  1  0.68863000  0.70198000  0.37590000  1
  O  O468  1  0.01304000  0.77648000  0.92232000  1
  O  O469  1  0.01333000  0.70199000  0.92209000  1
  O  O470  1  0.30117000  0.22353000  0.76341000  1
  O  O471  1  0.37588000  0.29795000  0.68871000  1
  O  O472  1  0.92230000  0.68569000  0.30125000  1
  O  O473  1  0.92214000  0.61076000  0.37589000  1
  O  O474  1  0.76342000  0.68577000  0.01305000  1
  O  O475  1  0.68863000  0.61076000  0.01334000  1
  O  O476  1  0.01307000  0.31425000  0.76341000  1
  O  O477  1  0.01335000  0.38924000  0.68869000  1
  O  O478  1  0.30121000  0.31425000  0.92232000  1
  O  O479  1  0.37593000  0.38926000  0.92209000  1
  O  O480  1  0.23657000  0.22353000  0.07769000  1
  O  O481  1  0.31134000  0.29801000  0.07792000  1
  O  O482  1  0.07764000  0.77647000  0.23660000  1
  O  O483  1  0.07793000  0.70205000  0.31130000  1
  O  O484  1  0.69883000  0.77647000  0.98695000  1
  O  O485  1  0.62410000  0.70198000  0.98666000  1
  O  O486  1  0.98694000  0.22354000  0.69876000  1
  O  O487  1  0.98665000  0.29802000  0.62411000  1
  O  O488  1  0.98696000  0.68574000  0.07770000  1
  O  O489  1  0.98667000  0.61074000  0.07792000  1
  O  O490  1  0.69882000  0.68575000  0.23660000  1
  O  O491  1  0.62412000  0.61077000  0.31131000  1
  O  O492  1  0.07765000  0.31424000  0.98695000  1
  O  O493  1  0.07787000  0.38924000  0.98667000  1
  O  O494  1  0.23661000  0.31432000  0.69875000  1
  O  O495  1  0.31138000  0.38924000  0.62412000  1
  O  O496  1  0.69880000  0.93536000  0.07769000  1
  O  O497  1  0.62408000  0.93542000  0.07792000  1
  O  O498  1  0.98693000  0.06458000  0.23660000  1
  O  O499  1  0.98665000  0.06458000  0.31131000  1
  O  O500  1  0.23658000  0.93540000  0.98695000  1
  O  O501  1  0.31137000  0.93546000  0.98667000  1
  O  O502  1  0.07771000  0.06464000  0.69876000  1
  O  O503  1  0.07788000  0.06452000  0.62411000  1
  O  O504  1  0.07765000  0.06458000  0.23660000  1
  O  O505  1  0.07793000  0.06458000  0.31131000  1
  O  O506  1  0.23657000  0.93536000  0.07769000  1
  O  O507  1  0.31135000  0.93543000  0.07791000  1
  O  O508  1  0.98694000  0.06464000  0.69876000  1
  O  O509  1  0.98664000  0.06451000  0.62412000  1
  O  O510  1  0.69882000  0.93540000  0.98695000  1
  O  O511  1  0.62409000  0.93546000  0.98667000  1
  O  O512  1  0.07764000  0.77647000  0.98695000  1
  O  O513  1  0.07788000  0.70198000  0.98666000  1
  O  O514  1  0.23661000  0.22355000  0.69875000  1
  O  O515  1  0.31137000  0.29801000  0.62412000  1
  O  O516  1  0.98696000  0.22352000  0.07769000  1
  O  O517  1  0.98667000  0.29801000  0.07792000  1
  O  O518  1  0.69883000  0.77647000  0.23660000  1
  O  O519  1  0.62412000  0.70205000  0.31130000  1
  O  O520  1  0.07771000  0.31432000  0.69875000  1
  O  O521  1  0.07787000  0.38925000  0.62411000  1
  O  O522  1  0.23659000  0.31424000  0.98695000  1
  O  O523  1  0.31138000  0.38925000  0.98666000  1
  O  O524  1  0.98694000  0.68576000  0.23659000  1
  O  O525  1  0.98666000  0.61077000  0.31131000  1
  O  O526  1  0.69879000  0.68574000  0.07770000  1
  O  O527  1  0.62408000  0.61075000  0.07791000  1
  O  O528  1  0.76344000  0.77648000  0.92231000  1
  O  O529  1  0.68866000  0.70199000  0.92209000  1
  O  O530  1  0.92236000  0.22353000  0.76341000  1
  O  O531  1  0.92207000  0.29795000  0.68871000  1
  O  O532  1  0.30118000  0.22354000  0.01305000  1
  O  O533  1  0.37591000  0.29803000  0.01334000  1
  O  O534  1  0.01306000  0.77646000  0.30125000  1
  O  O535  1  0.01336000  0.70199000  0.37589000  1
  O  O536  1  0.01305000  0.31426000  0.92231000  1
  O  O537  1  0.01333000  0.38926000  0.92209000  1
  O  O538  1  0.30118000  0.31425000  0.76341000  1
  O  O539  1  0.37589000  0.38923000  0.68870000  1
  O  O540  1  0.92235000  0.68576000  0.01306000  1
  O  O541  1  0.92213000  0.61075000  0.01335000  1
  O  O542  1  0.76339000  0.68568000  0.30126000  1
  O  O543  1  0.68862000  0.61075000  0.37590000  1
  O  O544  1  0.30121000  0.06464000  0.92232000  1
  O  O545  1  0.37593000  0.06459000  0.92208000  1
  O  O546  1  0.01307000  0.93542000  0.76341000  1
  O  O547  1  0.01335000  0.93542000  0.68870000  1
  O  O548  1  0.76342000  0.06460000  0.01306000  1
  O  O549  1  0.68863000  0.06454000  0.01334000  1
  O  O550  1  0.92230000  0.93536000  0.30125000  1
  O  O551  1  0.92213000  0.93549000  0.37589000  1
