# generated using pymatgen
data_H4C8N4O
_symmetry_space_group_name_H-M   'P 1'
_cell_length_a   9.90346667
_cell_length_b   34.31220000
_cell_length_c   43.75710000
_cell_angle_alpha   90.00000000
_cell_angle_beta   90.00000000
_cell_angle_gamma   90.00000000
_symmetry_Int_Tables_number   1
_chemical_formula_structural   H4C8N4O
_chemical_formula_sum   'H96 C192 N96 O24'
_cell_volume   14869.08829108
_cell_formula_units_Z   24
loop_
 _symmetry_equiv_pos_site_id
 _symmetry_equiv_pos_as_xyz
  1  'x, y, z'
loop_
 _atom_site_type_symbol
 _atom_site_label
 _atom_site_symmetry_multiplicity
 _atom_site_fract_x
 _atom_site_fract_y
 _atom_site_fract_z
 _atom_site_occupancy
  C  1  1  0.99505100  0.84956700  0.02374700  1
  C  3  1  0.99754600  0.90941400  0.99478600  1
  C  5  1  0.98487200  0.84751200  0.96859300  1
  C  7  1  0.99827800  0.13767800  0.96993300  1
  C  9  1  0.99602100  0.07652200  0.99716200  1
  C  11  1  0.98487700  0.13682400  0.02503800  1
  C  13  1  0.99658100  0.34916500  0.52367500  1
  C  15  1  0.99784400  0.40911800  0.49478400  1
  C  17  1  0.98500900  0.34717800  0.46860300  1
  C  19  1  0.99903400  0.63767700  0.46998300  1
  C  21  1  0.99590500  0.57642200  0.49713100  1
  C  23  1  0.98451400  0.63675900  0.52500300  1
  C  25  1  0.02041600  0.02831800  0.60765200  1
  C  27  1  0.01878000  0.95904300  0.60627700  1
  C  29  1  0.05374900  0.99485800  0.56075200  1
  C  31  1  0.00659300  0.95728400  0.38875800  1
  C  33  1  0.01321600  0.02640000  0.38729300  1
  C  35  1  0.04367000  0.99306400  0.43411500  1
  C  37  1  0.02434000  0.52863200  0.10700200  1
  C  39  1  0.01941700  0.45943200  0.10563300  1
  C  41  1  0.06454700  0.49496500  0.06052300  1
  C  43  1  0.01143900  0.45731900  0.88930300  1
  C  45  1  0.01324700  0.52639900  0.88793800  1
  C  47  1  0.05479400  0.49322500  0.93426100  1
  C  49  1  0.98069100  0.74793600  0.86353000  1
  C  51  1  0.96207200  0.72962000  0.81062200  1
  C  53  1  0.00089700  0.68125400  0.84866100  1
  C  55  1  0.97931300  0.23667800  0.12976000  1
  C  57  1  0.96139600  0.25581100  0.18246000  1
  C  59  1  0.99958100  0.30373000  0.14394500  1
  C  61  1  0.99650100  0.75161600  0.12995800  1
  C  63  1  0.01206000  0.73254300  0.18281200  1
  C  65  1  0.98011600  0.68445700  0.14419600  1
  C  67  1  0.99474300  0.23551500  0.86400500  1
  C  69  1  0.01015200  0.25512300  0.81130300  1
  C  71  1  0.97352400  0.30254600  0.85017000  1
  C  73  1  0.98247500  0.24753400  0.36373300  1
  C  75  1  0.97934400  0.23170000  0.31029300  1
  C  77  1  0.00487100  0.18141800  0.34717300  1
  C  79  1  0.98071700  0.73670700  0.62951400  1
  C  81  1  0.97796600  0.75336500  0.68275600  1
  C  83  1  0.00376000  0.80318200  0.64540400  1
  C  85  1  0.99735800  0.25091200  0.62960100  1
  C  87  1  0.99653600  0.23445100  0.68297000  1
  C  89  1  0.98038400  0.18430000  0.64568500  1
  C  91  1  0.99438600  0.73586700  0.36440500  1
  C  93  1  0.99378400  0.75282100  0.31116100  1
  C  95  1  0.97220000  0.80237500  0.34878200  1
  C  97  1  0.00043900  0.03468300  0.99575400  1
  C  98  1  0.03406900  0.01497800  0.96847300  1
  C  99  1  0.03608300  0.97368900  0.96675300  1
  C  100  1  0.00329100  0.95148900  0.99333800  1
  C  104  1  0.07805300  0.95657800  0.93955000  1
  C  105  1  0.22030200  0.94796700  0.93576800  1
  C  110  1  0.00003300  0.53453600  0.49571200  1
  C  111  1  0.03211000  0.51479400  0.46834500  1
  C  112  1  0.03440200  0.47348500  0.46664900  1
  C  113  1  0.00320600  0.45124500  0.49332100  1
  C  117  1  0.07464600  0.45641600  0.43931400  1
  C  118  1  0.21724700  0.44805100  0.43538800  1
  C  123  1  0.97949000  0.77531800  0.88834100  1
  C  124  1  0.94996900  0.81525400  0.88490400  1
  C  125  1  0.94955600  0.84085100  0.91054200  1
  C  126  1  0.97893500  0.82574600  0.94029200  1
  C  130  1  0.91355400  0.87952100  0.90593400  1
  C  131  1  0.77239700  0.89008100  0.90863100  1
  C  136  1  0.97863800  0.20874300  0.10530900  1
  C  137  1  0.95731600  0.16831400  0.10902000  1
  C  138  1  0.95767400  0.14270800  0.08336300  1
  C  139  1  0.97952100  0.15822800  0.05346300  1
  C  143  1  0.93143600  0.10339000  0.08786700  1
  C  144  1  0.79224800  0.09069800  0.08995600  1
  C  149  1  0.99730300  0.77923500  0.10518800  1
  C  150  1  0.01647300  0.81982500  0.10841000  1
  C  151  1  0.01703300  0.84491600  0.08239400  1
  C  152  1  0.99775200  0.82880100  0.05257400  1
  C  156  1  0.04072300  0.88446700  0.08651600  1
  C  157  1  0.17988000  0.89717000  0.08910100  1
  C  162  1  0.99740900  0.20802900  0.88876300  1
  C  163  1  0.02232900  0.16775800  0.88552600  1
  C  164  1  0.02500600  0.14273800  0.91152500  1
  C  165  1  0.00170500  0.15866200  0.94128900  1
  C  169  1  0.05571200  0.10363500  0.90728700  1
  C  170  1  0.19597100  0.09248700  0.90375800  1
  C  175  1  0.97867300  0.27458000  0.38871000  1
  C  176  1  0.95002000  0.31457100  0.38514000  1
  C  177  1  0.94946100  0.34027000  0.41067600  1
  C  178  1  0.97847100  0.32522300  0.44043600  1
  C  182  1  0.91465500  0.37898800  0.40590700  1
  C  183  1  0.77312800  0.38944000  0.40853700  1
  C  188  1  0.97744100  0.70908600  0.60490800  1
  C  189  1  0.95685200  0.66862600  0.60874700  1
  C  190  1  0.95705400  0.64289400  0.58319900  1
  C  191  1  0.97860800  0.65835200  0.55329800  1
  C  195  1  0.93172900  0.60350900  0.58783800  1
  C  196  1  0.79193400  0.59122500  0.58981100  1
  C  201  1  0.00037800  0.27823400  0.60468600  1
  C  202  1  0.01790800  0.31888500  0.60807700  1
  C  203  1  0.01812500  0.34414100  0.58220300  1
  C  204  1  0.99999900  0.32812300  0.55234500  1
  C  208  1  0.04028400  0.38369800  0.58651700  1
  C  209  1  0.17792700  0.39741900  0.58962100  1
  C  214  1  0.99946000  0.70868500  0.38929200  1
  C  215  1  0.02240500  0.66832500  0.38584100  1
  C  216  1  0.02500200  0.64311000  0.41168600  1
  C  217  1  0.00307900  0.65894100  0.44150300  1
  C  221  1  0.05349500  0.60391100  0.40721200  1
  C  222  1  0.19388000  0.59254500  0.40391200  1
  C  227  1  0.01147500  0.92143300  0.61918900  1
  C  228  1  0.04186900  0.91316000  0.64991700  1
  C  229  1  0.04432700  0.87397400  0.66018500  1
  C  230  1  0.01310500  0.84368600  0.63890700  1
  C  234  1  0.08663600  0.86623500  0.68986100  1
  C  235  1  0.22984500  0.86171100  0.69561100  1
  C  240  1  0.00752600  0.06356500  0.37369900  1
  C  241  1  0.03654200  0.07126200  0.34282000  1
  C  242  1  0.04017700  0.11034700  0.33228700  1
  C  243  1  0.01225300  0.14094500  0.35352200  1
  C  247  1  0.07963400  0.11772600  0.30236900  1
  C  248  1  0.22239200  0.12154100  0.29580100  1
  C  253  1  0.99232000  0.91984700  0.37587300  1
  C  254  1  0.95199400  0.91263500  0.34555100  1
  C  255  1  0.93958100  0.87375000  0.33497900  1
  C  256  1  0.96901000  0.84272800  0.35568600  1
  C  260  1  0.89329800  0.86706300  0.30543400  1
  C  261  1  0.74851100  0.86543700  0.30077000  1
  C  266  1  0.00803200  0.06591400  0.62060100  1
  C  267  1  0.96199600  0.07379700  0.65037700  1
  C  268  1  0.94749200  0.11298700  0.66025400  1
  C  269  1  0.97997000  0.14368800  0.63942800  1
  C  273  1  0.89484700  0.12032600  0.68910900  1
  C  274  1  0.74959100  0.12194300  0.69271500  1
  C  279  1  0.00935000  0.42187700  0.11838500  1
  C  280  1  0.05328300  0.41285400  0.14810600  1
  C  281  1  0.05690900  0.37349200  0.15790100  1
  C  282  1  0.01209600  0.34398300  0.13719200  1
  C  286  1  0.11494400  0.36462600  0.18604800  1
  C  287  1  0.25691900  0.35412300  0.18645900  1
  C  292  1  0.00425000  0.56349100  0.87449000  1
  C  293  1  0.04829500  0.57191100  0.84467500  1
  C  294  1  0.05366400  0.61117400  0.83463600  1
  C  295  1  0.01105700  0.64102300  0.85527500  1
  C  299  1  0.11110700  0.61966600  0.80633200  1
  C  300  1  0.25380500  0.62916400  0.80575000  1
  C  305  1  0.99568200  0.41977900  0.87676500  1
  C  306  1  0.93909500  0.41217500  0.84787500  1
  C  307  1  0.92427700  0.37318000  0.83773100  1
  C  308  1  0.96776200  0.34259300  0.85753600  1
  C  312  1  0.85973500  0.36569900  0.81008100  1
  C  313  1  0.71617900  0.35759400  0.81047400  1
  C  318  1  0.00999500  0.56631200  0.11963600  1
  C  319  1  0.95016200  0.57449000  0.14807400  1
  C  320  1  0.93292200  0.61376500  0.15749000  1
  C  321  1  0.97709800  0.64411200  0.13747700  1
  C  325  1  0.86546400  0.62173000  0.18467600  1
  C  326  1  0.72127700  0.62896300  0.18312200  1
  C  331  1  0.06124000  0.99482100  0.46570700  1
  C  332  1  0.10914900  0.02865000  0.48040000  1
  C  333  1  0.11380200  0.03019800  0.51252900  1
  C  334  1  0.06897500  0.99680100  0.52892200  1
  C  338  1  0.16604200  0.06323200  0.52666400  1
  C  339  1  0.31063300  0.06594600  0.53104300  1
  C  344  1  0.07552400  0.49482800  0.96569800  1
  C  345  1  0.12365400  0.52864900  0.98033900  1
  C  346  1  0.12818100  0.53016800  0.01246900  1
  C  347  1  0.08313600  0.49676600  0.02881800  1
  C  351  1  0.17928500  0.56329600  0.02666500  1
  C  352  1  0.32369400  0.56628600  0.03121300  1
  C  357  1  0.96729200  0.74544100  0.71453800  1
  C  358  1  0.90203200  0.71221800  0.72614700  1
  C  359  1  0.88991500  0.70673200  0.75815100  1
  C  360  1  0.94750100  0.73506400  0.77836300  1
  C  364  1  0.81446300  0.67523800  0.76887600  1
  C  365  1  0.67281500  0.68192700  0.77536400  1
  C  370  1  0.96853000  0.23996200  0.27855800  1
  C  371  1  0.90515300  0.27356800  0.26709300  1
  C  372  1  0.89285400  0.27925100  0.23510500  1
  C  373  1  0.94791000  0.25064900  0.21476800  1
  C  377  1  0.81906100  0.31110900  0.22454000  1
  C  378  1  0.67701100  0.30576700  0.21787300  1
  C  383  1  0.00389500  0.74553500  0.27924800  1
  C  384  1  0.07152400  0.71302900  0.26711300  1
  C  385  1  0.08470700  0.70859600  0.23502500  1
  C  386  1  0.02560600  0.73716300  0.21521300  1
  C  390  1  0.16247700  0.67787900  0.22388100  1
  C  391  1  0.30416700  0.68523200  0.21779100  1
  C  396  1  0.00483100  0.24203400  0.71486700  1
  C  397  1  0.06968300  0.27499100  0.72703900  1
  C  398  1  0.08173800  0.27958400  0.75915000  1
  C  399  1  0.02429900  0.25068100  0.77891100  1
  C  403  1  0.15738400  0.31074200  0.77039400  1
  C  404  1  0.29907200  0.30384300  0.77671300  1
  H  103  1  0.05954500  0.03086500  0.94955300  1
  H  106  1  0.27770500  0.97481400  0.93241100  1
  H  107  1  0.23540200  0.92912900  0.91593300  1
  H  108  1  0.26008500  0.93277900  0.95577700  1
  H  116  1  0.05631700  0.53067500  0.44933700  1
  H  119  1  0.27414500  0.47499500  0.43204000  1
  H  120  1  0.23248400  0.42930300  0.41550100  1
  H  121  1  0.25774300  0.43284100  0.45531400  1
  H  129  1  0.92684700  0.82567200  0.86360200  1
  H  132  1  0.71518800  0.87897300  0.88914700  1
  H  133  1  0.76170300  0.92175400  0.90939300  1
  H  134  1  0.72889100  0.87827500  0.92962300  1
  H  142  1  0.94040300  0.15749900  0.13049100  1
  H  145  1  0.74832900  0.09956600  0.11177200  1
  H  146  1  0.78655700  0.05898900  0.08812100  1
  H  147  1  0.73216300  0.10312500  0.07141700  1
  H  155  1  0.03147300  0.83112300  0.12979800  1
  H  158  1  0.22213800  0.88853100  0.11114100  1
  H  159  1  0.18558100  0.92886400  0.08712700  1
  H  160  1  0.24155200  0.88463900  0.07087100  1
  H  168  1  0.04019300  0.15669800  0.86416900  1
  H  171  1  0.23465000  0.10205800  0.88162300  1
  H  172  1  0.20644700  0.06085400  0.90526300  1
  H  173  1  0.25760200  0.10540100  0.92182000  1
  H  181  1  0.92789200  0.32500200  0.36378800  1
  H  184  1  0.71599100  0.37810500  0.38911900  1
  H  185  1  0.76194500  0.42110800  0.40913100  1
  H  186  1  0.72966400  0.37779900  0.42959400  1
  H  194  1  0.94079200  0.65782200  0.63025400  1
  H  197  1  0.74740400  0.60061800  0.61142800  1
  H  198  1  0.78544700  0.55949500  0.58837300  1
  H  199  1  0.73281300  0.60336600  0.57099500  1
  H  207  1  0.03151400  0.33016900  0.62952100  1
  H  210  1  0.21901300  0.38924100  0.61187800  1
  H  211  1  0.18121400  0.42912800  0.58748200  1
  H  212  1  0.24202500  0.38512300  0.57172900  1
  H  220  1  0.03858700  0.65728000  0.36441000  1
  H  223  1  0.23390700  0.60239300  0.38197200  1
  H  224  1  0.20366100  0.56086800  0.40513000  1
  H  225  1  0.25500300  0.60502700  0.42224900  1
  H  233  1  0.06836100  0.93539600  0.66434500  1
  H  236  1  0.27551400  0.84208800  0.67888200  1
  H  237  1  0.24616600  0.84923100  0.71828100  1
  H  238  1  0.28080500  0.88990100  0.69444000  1
  H  246  1  0.06043200  0.04869500  0.32847900  1
  H  249  1  0.27095600  0.14106200  0.31218500  1
  H  250  1  0.23691600  0.13379300  0.27299300  1
  H  251  1  0.27189500  0.09312500  0.29680900  1
  H  259  1  0.92994800  0.93553800  0.33139300  1
  H  262  1  0.70082000  0.84629400  0.31755800  1
  H  263  1  0.72610000  0.85386800  0.27807200  1
  H  264  1  0.70431800  0.89449900  0.30269400  1
  H  272  1  0.93638000  0.05116700  0.66449300  1
  H  275  1  0.70416200  0.14031600  0.67510200  1
  H  276  1  0.72377600  0.13439400  0.71493500  1
  H  277  1  0.70614700  0.09275200  0.69117200  1
  H  285  1  0.09011500  0.43459300  0.16182100  1
  H  288  1  0.27924100  0.33216600  0.16910000  1
  H  289  1  0.28415800  0.34185900  0.20866800  1
  H  290  1  0.31969500  0.37973500  0.18221700  1
  H  298  1  0.08420700  0.54986900  0.83113900  1
  H  301  1  0.27835100  0.65110700  0.82297100  1
  H  302  1  0.28146200  0.64103500  0.78344400  1
  H  303  1  0.31448600  0.60314700  0.81003300  1
  H  311  1  0.90622400  0.43486100  0.83461000  1
  H  314  1  0.69166700  0.33588400  0.82787500  1
  H  315  1  0.68401200  0.34603500  0.78837700  1
  H  316  1  0.65930000  0.38418500  0.81522200  1
  H  324  1  0.91580500  0.55202600  0.16137000  1
  H  327  1  0.69765900  0.65007500  0.16521200  1
  H  328  1  0.68515300  0.64091200  0.20477800  1
  H  329  1  0.66685700  0.60193200  0.17841200  1
  H  337  1  0.14036900  0.05216900  0.46781400  1
  H  340  1  0.35041300  0.03895200  0.54076000  1
  H  341  1  0.33436800  0.08961100  0.54685500  1
  H  342  1  0.36115600  0.07157900  0.50930300  1
  H  350  1  0.15419700  0.55222400  0.96773000  1
  H  353  1  0.36384200  0.53937700  0.04099500  1
  H  354  1  0.34653900  0.59001200  0.04703900  1
  H  355  1  0.37458100  0.57199000  0.00952800  1
  H  363  1  0.85940100  0.69270400  0.71128100  1
  H  366  1  0.65934500  0.70797000  0.78940400  1
  H  367  1  0.63083900  0.65724200  0.78794900  1
  H  368  1  0.61609300  0.68550900  0.75413800  1
  H  376  1  0.86402700  0.29323200  0.28205000  1
  H  379  1  0.66107600  0.27977300  0.20391700  1
  H  380  1  0.63813400  0.33075800  0.20514600  1
  H  381  1  0.61945400  0.30281400  0.23904000  1
  H  389  1  0.11536900  0.69337500  0.28168000  1
  H  392  1  0.31701500  0.71189000  0.20445400  1
  H  393  1  0.34755900  0.66123200  0.20463700  1
  H  394  1  0.36010100  0.68812600  0.23918600  1
  H  402  1  0.11271800  0.29482300  0.71249900  1
  H  405  1  0.31257700  0.27740700  0.79028800  1
  H  406  1  0.34120400  0.32815800  0.78971200  1
  H  407  1  0.35563300  0.30085600  0.75540900  1
  N  2  1  0.99872700  0.88941200  0.02178900  1
  N  4  1  0.99009200  0.88719800  0.96898300  1
  N  6  1  0.98847400  0.82972400  0.99657700  1
  N  8  1  0.00071600  0.09804500  0.97098300  1
  N  10  1  0.98786200  0.09693800  0.02384800  1
  N  12  1  0.99033100  0.15609400  0.99761000  1
  N  14  1  0.99992433  0.38904000  0.52176700  1
  N  16  1  0.98991700  0.38688100  0.46898700  1
  N  18  1  0.98944700  0.32936800  0.49653200  1
  N  20  1  0.00121500  0.59801800  0.47097700  1
  N  22  1  0.98736700  0.59685500  0.52381400  1
  N  24  1  0.99061400  0.65604700  0.49762900  1
  N  26  1  0.00955700  0.99325700  0.62228500  1
  N  28  1  0.03972200  0.96067100  0.57565500  1
  N  30  1  0.04154000  0.02774900  0.57718900  1
  N  32  1  0.99998900  0.99144600  0.37270100  1
  N  34  1  0.03488100  0.02617600  0.41776300  1
  N  36  1  0.02767700  0.95889900  0.41937200  1
  N  38  1  0.00914700  0.49366200  0.12157800  1
  N  40  1  0.04586300  0.46085700  0.07526100  1
  N  42  1  0.05093000  0.52794700  0.07677200  1
  N  44  1  0.99971100  0.49144100  0.87335500  1
  N  46  1  0.04055600  0.52637600  0.91815900  1
  N  48  1  0.03801700  0.45901500  0.91966400  1
  N  50  1  0.96411100  0.75746700  0.83315800  1
  N  52  1  0.98228200  0.69241300  0.81950100  1
  N  54  1  0.99738300  0.70948300  0.87044300  1
  N  56  1  0.96344500  0.22761100  0.16021000  1
  N  58  1  0.98129800  0.29288800  0.17320900  1
  N  60  1  0.99583000  0.27510100  0.12246000  1
  N  62  1  0.00979900  0.76077100  0.16050700  1
  N  64  1  0.99538400  0.69537400  0.17348700  1
  N  66  1  0.98397800  0.71305800  0.12270200  1
  N  68  1  0.00950100  0.22667500  0.83344100  1
  N  70  1  0.99056300  0.29212100  0.82079800  1
  N  72  1  0.97897100  0.27382500  0.87146400  1
  N  74  1  0.97216500  0.25827400  0.33360500  1
  N  76  1  0.99495600  0.19386500  0.31799400  1
  N  78  1  0.99784400  0.20880700  0.36968400  1
  N  80  1  0.97070000  0.72643000  0.65971900  1
  N  82  1  0.99389200  0.79106800  0.67469300  1
  N  84  1  0.99623800  0.77541000  0.62316700  1
  N  86  1  0.00336100  0.26139200  0.65986600  1
  N  88  1  0.98587100  0.19658700  0.67494700  1
  N  90  1  0.98730900  0.21201600  0.62338700  1
  N  92  1  0.00231300  0.72569500  0.33410400  1
  N  94  1  0.97973400  0.79052000  0.31941800  1
  N  96  1  0.98072700  0.77452000  0.37086600  1
  N  101  1  0.97461300  0.97285200  0.01890900  1
  N  102  1  0.97323900  0.01126500  0.02015200  1
  N  114  1  0.97582500  0.47264900  0.51895100  1
  N  115  1  0.97436100  0.51107800  0.52018100  1
  N  127  1  0.00481100  0.78674400  0.94139900  1
  N  128  1  0.00502600  0.76351400  0.91753000  1
  N  140  1  0.99850000  0.19754000  0.05218400  1
  N  141  1  0.99806500  0.22079700  0.07597200  1
  N  153  1  0.98045000  0.78939400  0.05179500  1
  N  154  1  0.98028200  0.76662800  0.07589900  1
  N  166  1  0.97907100  0.19779900  0.94213100  1
  N  167  1  0.97729000  0.22048800  0.91800100  1
  N  179  1  0.00345800  0.28615900  0.44167700  1
  N  180  1  0.00360900  0.26275900  0.41789800  1
  N  192  1  0.99679700  0.69771400  0.55188800  1
  N  193  1  0.99632800  0.72114800  0.57558000  1
  N  205  1  0.98439200  0.28863000  0.55139600  1
  N  206  1  0.98450400  0.26563500  0.57538300  1
  N  218  1  0.98235900  0.69819200  0.44255500  1
  N  219  1  0.98078700  0.72113600  0.41855600  1
  N  231  1  0.98463500  0.85454700  0.60979100  1
  N  232  1  0.98492300  0.89064800  0.60058400  1
  N  244  1  0.98455300  0.13058700  0.38274500  1
  N  245  1  0.98329100  0.09466700  0.39212200  1
  N  257  1  0.00621000  0.85253400  0.38450200  1
  N  258  1  0.01654400  0.88836200  0.39388600  1
  N  270  1  0.02334400  0.13328600  0.61122400  1
  N  271  1  0.03562900  0.09722300  0.60256100  1
  N  283  1  0.97181600  0.35543700  0.10895800  1
  N  284  1  0.97198800  0.39170700  0.10010700  1
  N  296  1  0.96970600  0.63008500  0.88351700  1
  N  297  1  0.96791300  0.59398200  0.89252600  1
  N  309  1  0.01989300  0.35260700  0.88506400  1
  N  310  1  0.03208500  0.38856500  0.89402300  1
  N  322  1  0.03332600  0.63357100  0.11051700  1
  N  323  1  0.04755900  0.59739700  0.10228100  1
  N  335  1  0.02749300  0.96512700  0.51283800  1
  N  336  1  0.02383000  0.96402900  0.48312600  1
  N  348  1  0.04160700  0.46510300  0.01274300  1
  N  349  1  0.03800200  0.46401900  0.98306200  1
  N  361  1  0.00695700  0.76655200  0.76519000  1
  N  362  1  0.01462500  0.77148100  0.73552000  1
  N  374  1  0.00584000  0.21884700  0.22781500  1
  N  375  1  0.01393800  0.21379700  0.25745500  1
  N  387  1  0.96372800  0.76789900  0.22889100  1
  N  388  1  0.95531200  0.77190200  0.25864600  1
  N  400  1  0.96504500  0.21955000  0.76519900  1
  N  401  1  0.95766000  0.21543700  0.73544900  1
  O  109  1  0.01976000  0.96793700  0.91650200  1
  O  122  1  0.01736200  0.46785800  0.41617300  1
  O  135  1  0.97645700  0.89646500  0.88580300  1
  O  148  1  0.01224200  0.08617800  0.10420300  1
  O  161  1  0.95847200  0.90167700  0.10244500  1
  O  174  1  0.97394200  0.08523300  0.89202700  1
  O  187  1  0.97580900  0.39596800  0.38553100  1
  O  200  1  0.01162200  0.58650000  0.60450100  1
  O  213  1  0.95551900  0.40053500  0.60204200  1
  O  226  1  0.97337700  0.58576000  0.39134700  1
  O  239  1  0.02088500  0.88173700  0.71021600  1
  O  252  1  0.01085400  0.10236400  0.28246400  1
  O  265  1  0.95975000  0.88177200  0.28485400  1
  O  278  1  0.95832200  0.10652300  0.71056100  1
  O  291  1  0.07756900  0.38382900  0.20807600  1
  O  304  1  0.06950000  0.60075800  0.78455300  1
  O  317  1  0.90049200  0.38410900  0.78793500  1
  O  330  1  0.90275400  0.60396900  0.20744300  1
  O  343  1  0.10703800  0.09384200  0.52124300  1
  O  356  1  0.11967000  0.59379500  0.02118800  1
  O  369  1  0.84249200  0.64321200  0.75829500  1
  O  382  1  0.85006700  0.34294900  0.23508700  1
  O  395  1  0.13708800  0.64525200  0.23367900  1
  O  408  1  0.12929400  0.34308000  0.76042100  1
