# generated using pymatgen
data_Cr3H12C32N4O13
_symmetry_space_group_name_H-M   'P 1'
_cell_length_a   10.03074000
_cell_length_b   11.42065000
_cell_length_c   18.86808000
_cell_angle_alpha   89.99995000
_cell_angle_beta   89.99989000
_cell_angle_gamma   109.12148000
_symmetry_Int_Tables_number   1
_chemical_formula_structural   Cr3H12C32N4O13
_chemical_formula_sum   'Cr6 H24 C64 N8 O26'
_cell_volume   2042.22420836
_cell_formula_units_Z   2
loop_
 _symmetry_equiv_pos_site_id
 _symmetry_equiv_pos_as_xyz
  1  'x, y, z'
loop_
 _atom_site_type_symbol
 _atom_site_label
 _atom_site_symmetry_multiplicity
 _atom_site_fract_x
 _atom_site_fract_y
 _atom_site_fract_z
 _atom_site_occupancy
  Cr  Cr0  1  0.02014000  0.81239000  0.75000000  1
  Cr  Cr1  1  0.97986000  0.18761000  0.25000000  1
  Cr  Cr2  1  0.65836000  0.75419000  0.75000000  1
  Cr  Cr3  1  0.34164000  0.24581000  0.25000000  1
  Cr  Cr4  1  0.78009000  0.51424000  0.75000000  1
  Cr  Cr5  1  0.21991000  0.48576000  0.25000000  1
  H  H6  1  0.25152000  0.78621000  0.45700000  1
  H  H7  1  0.74846000  0.21379000  0.54300000  1
  H  H8  1  0.74846000  0.21379000  0.95700000  1
  H  H9  1  0.25152000  0.78621000  0.04301000  1
  H  H10  1  0.23676000  0.58685000  0.41140000  1
  H  H11  1  0.76324000  0.41315000  0.58860000  1
  H  H12  1  0.76323000  0.41315000  0.91140000  1
  H  H13  1  0.23676000  0.58686000  0.08861000  1
  H  H14  1  0.58367000  0.77832000  0.59098000  1
  H  H15  1  0.41628000  0.22168000  0.40904000  1
  H  H16  1  0.41628000  0.22168000  0.09097000  1
  H  H17  1  0.58363000  0.77831000  0.90900000  1
  H  H18  1  0.93190000  0.30344000  0.04034000  1
  H  H19  1  0.06802000  0.69657000  0.95966000  1
  H  H20  1  0.06804000  0.69658000  0.54033000  1
  H  H21  1  0.93192000  0.30343000  0.45966000  1
  H  H22  1  0.93263000  0.06258000  0.05754000  1
  H  H23  1  0.06737000  0.93741000  0.94246000  1
  H  H24  1  0.06736000  0.93741000  0.55754000  1
  H  H25  1  0.93264000  0.06259000  0.44246000  1
  H  H26  1  0.19734000  0.98193000  0.05334000  1
  H  H27  1  0.80266000  0.01807000  0.94666000  1
  H  H28  1  0.80266000  0.01808000  0.55334000  1
  H  H29  1  0.19734000  0.98192000  0.44666000  1
  C  C30  1  0.85782000  0.92326000  0.64502000  1
  C  C31  1  0.14218000  0.07674000  0.35498000  1
  C  C32  1  0.14218000  0.07674000  0.14502000  1
  C  C33  1  0.85781000  0.92326000  0.85498000  1
  C  C34  1  0.41111000  0.56356000  0.47278000  1
  C  C35  1  0.58888000  0.43644000  0.52722000  1
  C  C36  1  0.58887000  0.43644000  0.97278000  1
  C  C37  1  0.41111000  0.56357000  0.02722000  1
  C  C38  1  0.05427000  0.61232000  0.92970000  1
  C  C39  1  0.94569000  0.38770000  0.07031000  1
  C  C40  1  0.94571000  0.38769000  0.42969000  1
  C  C41  1  0.05427000  0.61232000  0.57030000  1
  C  C42  1  0.02027000  0.50366000  0.96205000  1
  C  C43  1  0.97972000  0.49636000  0.03796000  1
  C  C44  1  0.97973000  0.49635000  0.46204000  1
  C  C45  1  0.02027000  0.50366000  0.53795000  1
  C  C46  1  0.88198000  0.98289000  0.92437000  1
  C  C47  1  0.11802000  0.01711000  0.07563000  1
  C  C48  1  0.11802000  0.01711000  0.42437000  1
  C  C49  1  0.88198000  0.98289000  0.57563000  1
  C  C50  1  0.99154000  0.97812000  0.96351000  1
  C  C51  1  0.00846000  0.02188000  0.03649000  1
  C  C52  1  0.00846000  0.02188000  0.46351000  1
  C  C53  1  0.99154000  0.97812000  0.53649000  1
  C  C54  1  0.62369000  0.56339000  0.63752000  1
  C  C55  1  0.37630000  0.43661000  0.36249000  1
  C  C56  1  0.37630000  0.43661000  0.13752000  1
  C  C57  1  0.62370000  0.56339000  0.86248000  1
  C  C58  1  0.03465000  0.62460000  0.64501000  1
  C  C59  1  0.96535000  0.37540000  0.35499000  1
  C  C60  1  0.96534000  0.37540000  0.14501000  1
  C  C61  1  0.03465000  0.62460000  0.85500000  1
  C  C62  1  0.42253000  0.45738000  0.43745000  1
  C  C63  1  0.57746000  0.54263000  0.56255000  1
  C  C64  1  0.57746000  0.54263000  0.93745000  1
  C  C65  1  0.42252000  0.45737000  0.06255000  1
  C  C66  1  0.31709000  0.62583000  0.45001000  1
  C  C67  1  0.68290000  0.37418000  0.54999000  1
  C  C68  1  0.68289000  0.37417000  0.95001000  1
  C  C69  1  0.31709000  0.62583000  0.05000000  1
  C  C70  1  0.32238000  0.74013000  0.47714000  1
  C  C71  1  0.67760000  0.25987000  0.52285000  1
  C  C72  1  0.67760000  0.25987000  0.97715000  1
  C  C73  1  0.32238000  0.74013000  0.02286000  1
  C  C74  1  0.41617000  0.79260000  0.53079000  1
  C  C75  1  0.58380000  0.20740000  0.46921000  1
  C  C76  1  0.58379000  0.20740000  0.03078000  1
  C  C77  1  0.41616000  0.79259000  0.96921000  1
  C  C78  1  0.50541000  0.73067000  0.55525000  1
  C  C79  1  0.49455000  0.26933000  0.44476000  1
  C  C80  1  0.49455000  0.26933000  0.05524000  1
  C  C81  1  0.50539000  0.73066000  0.94475000  1
  C  C82  1  0.49853000  0.61216000  0.53095000  1
  C  C83  1  0.50145000  0.38784000  0.46906000  1
  C  C84  1  0.50144000  0.38784000  0.03094000  1
  C  C85  1  0.49853000  0.61216000  0.96905000  1
  C  C86  1  0.41666000  0.90686000  0.56332000  1
  C  C87  1  0.58330000  0.09314000  0.43668000  1
  C  C88  1  0.58330000  0.09314000  0.06332000  1
  C  C89  1  0.41664000  0.90685000  0.93668000  1
  C  C90  1  0.97308000  0.60436000  0.07716000  1
  C  C91  1  0.02693000  0.39568000  0.92286000  1
  C  C92  1  0.02691000  0.39565000  0.57715000  1
  C  C93  1  0.97311000  0.60436000  0.42284000  1
  N  N94  1  0.41639000  0.99817000  0.58981000  1
  N  N95  1  0.58356000  0.00183000  0.41019000  1
  N  N96  1  0.58355000  0.00182000  0.08981000  1
  N  N97  1  0.41637000  0.99816000  0.91019000  1
  N  N98  1  0.96753000  0.69000000  0.10826000  1
  N  N99  1  0.03250000  0.31004000  0.89177000  1
  N  N100  1  0.03247000  0.31000000  0.60825000  1
  N  N101  1  0.96757000  0.69002000  0.39174000  1
  O  O102  1  0.09789000  0.73229000  0.66820000  1
  O  O103  1  0.90211000  0.26771000  0.33180000  1
  O  O104  1  0.90211000  0.26771000  0.16820000  1
  O  O105  1  0.09789000  0.73229000  0.83180000  1
  O  O106  1  0.96115000  0.90052000  0.67446000  1
  O  O107  1  0.03885000  0.09948000  0.32554000  1
  O  O108  1  0.03885000  0.09948000  0.17446000  1
  O  O109  1  0.96115000  0.90052000  0.82554000  1
  O  O110  1  0.73234000  0.88328000  0.66921000  1
  O  O111  1  0.26766000  0.11672000  0.33079000  1
  O  O112  1  0.26766000  0.11672000  0.16921000  1
  O  O113  1  0.73234000  0.88328000  0.83079000  1
  O  O114  1  0.57241000  0.63329000  0.67544000  1
  O  O115  1  0.42759000  0.36671000  0.32456000  1
  O  O116  1  0.42759000  0.36671000  0.17544000  1
  O  O117  1  0.57241000  0.63329000  0.82456000  1
  O  O118  1  0.62824000  0.46513000  0.66939000  1
  O  O119  1  0.37176000  0.53487000  0.33061000  1
  O  O120  1  0.37176000  0.53487000  0.16939000  1
  O  O121  1  0.62824000  0.46513000  0.83061000  1
  O  O122  1  0.92484000  0.54692000  0.67448000  1
  O  O123  1  0.07516000  0.45308000  0.32552000  1
  O  O124  1  0.07516000  0.45308000  0.17448000  1
  O  O125  1  0.92484000  0.54692000  0.82552000  1
  O  O126  1  0.81953000  0.69361000  0.75000000  1
  O  O127  1  0.18047000  0.30639000  0.25000000  1
