# generated using pymatgen
data_CuH3(C2O)4
_symmetry_space_group_name_H-M   'P 1'
_cell_length_a   13.57980000
_cell_length_b   13.58535000
_cell_length_c   13.59989000
_cell_angle_alpha   87.44398000
_cell_angle_beta   87.28063000
_cell_angle_gamma   87.71392000
_symmetry_Int_Tables_number   1
_chemical_formula_structural   CuH3(C2O)4
_chemical_formula_sum   'Cu6 H18 C48 O24'
_cell_volume   2501.88070022
_cell_formula_units_Z   6
loop_
 _symmetry_equiv_pos_site_id
 _symmetry_equiv_pos_as_xyz
  1  'x, y, z'
loop_
 _atom_site_type_symbol
 _atom_site_label
 _atom_site_symmetry_multiplicity
 _atom_site_fract_x
 _atom_site_fract_y
 _atom_site_fract_z
 _atom_site_occupancy
  Cu  Cu1  1  0.02222000  0.58369000  0.01796000  1.0
  Cu  Cu2  1  0.01667000  0.01755000  0.58176000  1.0
  Cu  Cu3  1  0.58432000  0.02203000  0.01891000  1.0
  Cu  Cu4  1  0.41713000  0.98156000  0.97895000  1.0
  Cu  Cu5  1  0.97755000  0.97823000  0.41408000  1.0
  Cu  Cu6  1  0.98164000  0.41653000  0.97905000  1.0
  H  H1  1  0.99862000  0.43257000  0.66359000  1.0
  H  H2  1  0.66188000  0.00339000  0.43273000  1.0
  H  H3  1  0.43593000  0.66591000  0.01034000  1.0
  H  H4  1  0.56322000  0.01047000  0.33363000  1.0
  H  H5  1  0.99385000  0.33246000  0.56384000  1.0
  H  H6  1  0.33651000  0.56583000  0.00772000  1.0
  H  H7  1  0.00362000  0.56297000  0.33314000  1.0
  H  H8  1  0.33017000  0.01471000  0.56247000  1.0
  H  H9  1  0.56756000  0.33644000  0.00788000  1.0
  H  H10  1  0.42983000  0.01422000  0.66249000  1.0
  H  H11  1  0.99990000  0.66275000  0.43241000  1.0
  H  H12  1  0.66693000  0.43643000  0.00961000  1.0
  H  H13  1  0.01645000  0.73534000  0.73411000  1.0
  H  H14  1  0.73333000  0.00983000  0.73563000  1.0
  H  H15  1  0.73901000  0.73983000  0.01856000  1.0
  H  H16  1  0.26160000  0.99082000  0.26047000  1.0
  H  H17  1  0.98233000  0.26090000  0.26130000  1.0
  H  H18  1  0.26655000  0.26365000  0.98093000  1.0
  C  C1  1  0.00618000  0.54954000  0.81507000  1.0
  C  C2  1  0.00186000  0.50905000  0.63715000  1.0
  C  C3  1  0.00698000  0.58012000  0.70808000  1.0
  C  C4  1  0.81389000  0.00070000  0.54917000  1.0
  C  C5  1  0.63543000  0.00693000  0.50916000  1.0
  C  C6  1  0.70677000  0.00617000  0.58014000  1.0
  C  C7  1  0.55303000  0.81908000  0.00980000  1.0
  C  C8  1  0.51265000  0.64031000  0.01229000  1.0
  C  C9  1  0.58370000  0.71204000  0.01425000  1.0
  C  C10  1  0.44948000  0.99825000  0.18181000  1.0
  C  C11  1  0.48639000  0.00801000  0.35933000  1.0
  C  C12  1  0.41641000  0.00120000  0.28793000  1.0
  C  C13  1  0.98513000  0.18094000  0.44705000  1.0
  C  C14  1  0.99285000  0.35880000  0.48728000  1.0
  C  C15  1  0.98749000  0.28783000  0.41631000  1.0
  C  C16  1  0.18534000  0.45024000  0.99126000  1.0
  C  C17  1  0.36298000  0.48960000  0.00341000  1.0
  C  C18  1  0.29207000  0.41891000  0.99403000  1.0
  C  C19  1  0.99566000  0.44689000  0.18107000  1.0
  C  C20  1  0.99844000  0.48653000  0.35924000  1.0
  C  C21  1  0.99323000  0.41588000  0.28797000  1.0
  C  C22  1  0.18007000  0.00045000  0.44626000  1.0
  C  C23  1  0.35722000  0.01022000  0.48627000  1.0
  C  C24  1  0.28689000  0.00299000  0.41515000  1.0
  C  C25  1  0.45223000  0.18507000  0.99310000  1.0
  C  C26  1  0.49115000  0.36254000  0.00376000  1.0
  C  C27  1  0.42065000  0.29149000  0.99475000  1.0
  C  C28  1  0.54673000  0.00926000  0.81490000  1.0
  C  C29  1  0.50681000  0.01303000  0.63671000  1.0
  C  C30  1  0.57787000  0.01206000  0.70805000  1.0
  C  C31  1  0.00963000  0.81481000  0.54847000  1.0
  C  C32  1  0.00315000  0.63660000  0.50888000  1.0
  C  C33  1  0.00911000  0.70788000  0.57942000  1.0
  C  C34  1  0.81922000  0.55321000  0.01113000  1.0
  C  C35  1  0.64073000  0.51290000  0.01211000  1.0
  C  C36  1  0.71217000  0.58414000  0.01462000  1.0
  C  C37  1  0.00102000  0.53553000  0.53597000  1.0
  C  C38  1  0.01199000  0.68000000  0.67947000  1.0
  C  C39  1  0.53402000  0.01155000  0.53575000  1.0
  C  C40  1  0.67835000  0.01015000  0.68018000  1.0
  C  C41  1  0.53954000  0.53927000  0.01170000  1.0
  C  C42  1  0.68392000  0.68423000  0.01683000  1.0
  C  C43  1  0.45859000  0.01068000  0.46004000  1.0
  C  C44  1  0.31608000  0.99724000  0.31553000  1.0
  C  C45  1  0.99711000  0.45979000  0.46043000  1.0
  C  C46  1  0.98663000  0.31601000  0.31621000  1.0
  C  C47  1  0.46405000  0.46333000  0.00677000  1.0
  C  C48  1  0.32075000  0.31918000  0.98852000  1.0
  O  O1  1  0.02496000  0.61583000  0.87481000  1.0
  O  O2  1  0.98619000  0.45985000  0.83854000  1.0
  O  O3  1  0.87454000  0.01419000  0.61612000  1.0
  O  O4  1  0.83685000  0.98307000  0.45898000  1.0
  O  O5  1  0.62007000  0.88014000  0.02340000  1.0
  O  O6  1  0.46305000  0.84149000  0.99136000  1.0
  O  O7  1  0.38360000  0.98125000  0.12101000  1.0
  O  O8  1  0.54056000  0.01336000  0.15994000  1.0
  O  O9  1  0.96900000  0.12098000  0.38005000  1.0
  O  O10  1  0.00040000  0.15758000  0.53748000  1.0
  O  O11  1  0.12517000  0.38429000  0.97196000  1.0
  O  O12  1  0.16233000  0.54035000  0.00921000  1.0
  O  O13  1  0.97997000  0.38012000  0.12067000  1.0
  O  O14  1  0.01370000  0.53706000  0.15807000  1.0
  O  O15  1  0.12041000  0.98079000  0.38024000  1.0
  O  O16  1  0.15685000  0.01818000  0.53637000  1.0
  O  O17  1  0.38692000  0.12498000  0.97193000  1.0
  O  O18  1  0.54156000  0.16225000  0.01375000  1.0
  O  O19  1  0.61232000  0.02840000  0.87509000  1.0
  O  O20  1  0.45769000  0.98650000  0.83793000  1.0
  O  O21  1  0.02805000  0.87484000  0.61465000  1.0
  O  O22  1  0.99053000  0.83796000  0.45877000  1.0
  O  O23  1  0.88040000  0.62016000  0.02452000  1.0
  O  O24  1  0.84154000  0.46291000  0.99387000  1.0
