# generated using pymatgen
data_H28C41(N2O)4
_symmetry_space_group_name_H-M   'P 1'
_cell_length_a   42.50290000
_cell_length_b   42.50290000
_cell_length_c   42.51610000
_cell_angle_alpha   90.00000000
_cell_angle_beta   90.00000000
_cell_angle_gamma   120.00000000
_symmetry_Int_Tables_number   1
_chemical_formula_structural   H28C41(N2O)4
_chemical_formula_sum   'H168 C246 N48 O24'
_cell_volume   66515.24239264
_cell_formula_units_Z   6
loop_
 _symmetry_equiv_pos_site_id
 _symmetry_equiv_pos_as_xyz
  1  'x, y, z'
loop_
 _atom_site_type_symbol
 _atom_site_label
 _atom_site_symmetry_multiplicity
 _atom_site_fract_x
 _atom_site_fract_y
 _atom_site_fract_z
 _atom_site_occupancy
  H  26  1  0.76019800  0.13864200  0.79753000  1
  H  27  1  0.78754000  0.19832400  0.77607800  1
  H  28  1  0.65703700  0.12120600  0.77156100  1
  H  29  1  0.68412200  0.18044600  0.75036700  1
  H  30  1  0.70217600  0.24506800  0.76915900  1
  H  31  1  0.70205400  0.27882700  0.81340700  1
  H  32  1  0.80731700  0.30090500  0.83728900  1
  H  33  1  0.80727700  0.26653400  0.79306600  1
  H  34  1  0.81272500  0.30470500  0.73816200  1
  H  35  1  0.87231500  0.32821100  0.71776500  1
  H  36  1  0.84838700  0.22259600  0.69314900  1
  H  37  1  0.78827500  0.19879000  0.71336500  1
  H  38  1  0.72195400  0.18663900  0.69516000  1
  H  39  1  0.74751900  0.29150100  0.72435800  1
  H  40  1  0.71253000  0.29468200  0.68206100  1
  H  45  1  0.68719900  0.18997500  0.65289100  1
  H  71  1  0.36617500  0.23005500  0.46425900  1
  H  72  1  0.39845000  0.20262300  0.44283600  1
  H  73  1  0.45202300  0.33315100  0.43830600  1
  H  74  1  0.48410900  0.30597900  0.41715000  1
  H  75  1  0.53058300  0.28799800  0.43585800  1
  H  76  1  0.56458900  0.28825700  0.48005800  1
  H  77  1  0.48155500  0.18298900  0.50411400  1
  H  78  1  0.44709900  0.18288900  0.45993100  1
  H  79  1  0.47952500  0.17719900  0.40501100  1
  H  80  1  0.44349400  0.11771100  0.38436700  1
  H  81  1  0.36201400  0.14188100  0.35964200  1
  H  82  1  0.39826100  0.20186700  0.38009800  1
  H  83  1  0.45236600  0.26810700  0.36198000  1
  H  84  1  0.53158000  0.24239800  0.39117100  1
  H  85  1  0.56978600  0.27739000  0.34889500  1
  H  90  1  0.49049000  0.30284900  0.31972300  1
  H  116  1  0.85227400  0.62511800  0.12710200  1
  H  117  1  0.79232800  0.59274100  0.10613300  1
  H  118  1  0.86708300  0.53650800  0.10634200  1
  H  119  1  0.80762600  0.50436800  0.08535500  1
  H  120  1  0.74285300  0.45704500  0.10172500  1
  H  121  1  0.70979700  0.42340700  0.14632700  1
  H  122  1  0.69287800  0.50913800  0.17340600  1
  H  123  1  0.72651600  0.54318900  0.12880000  1
  H  124  1  0.68277000  0.50609100  0.07572800  1
  H  125  1  0.65535300  0.53832900  0.05499900  1
  H  126  1  0.75754000  0.62114500  0.02375000  1
  H  127  1  0.78524200  0.58885800  0.04477500  1
  H  128  1  0.80221400  0.53729500  0.02864500  1
  H  129  1  0.69780500  0.45696200  0.05788300  1
  H  130  1  0.69509500  0.41915900  0.01543800  1
  H  135  1  0.79929100  0.49964100  0.98617900  1
  H  161  1  0.22379700  0.85710300  0.29415100  1
  H  162  1  0.19653600  0.79721600  0.27303500  1
  H  163  1  0.32736300  0.87273800  0.27256200  1
  H  164  1  0.30041100  0.81335600  0.25185000  1
  H  165  1  0.28341800  0.74852400  0.26859900  1
  H  166  1  0.28405100  0.71531400  0.31308800  1
  H  167  1  0.18118500  0.69782200  0.34009900  1
  H  168  1  0.18067200  0.73153200  0.29558600  1
  H  169  1  0.17411900  0.68792800  0.24265600  1
  H  170  1  0.11449900  0.66033600  0.22180500  1
  H  171  1  0.13372900  0.76235400  0.19021400  1
  H  172  1  0.19365900  0.79022600  0.21135000  1
  H  173  1  0.26243500  0.80743000  0.19538400  1
  H  174  1  0.23827000  0.70306600  0.22483400  1
  H  175  1  0.27342900  0.70026400  0.18249200  1
  H  180  1  0.29729500  0.80444500  0.15306100  1
  H  206  1  0.61825200  0.76412400  0.96381200  1
  H  207  1  0.58620700  0.79183900  0.94253000  1
  H  208  1  0.53170600  0.66111600  0.93867100  1
  H  209  1  0.49989900  0.68864000  0.91725700  1
  H  210  1  0.45388200  0.70717200  0.93560300  1
  H  211  1  0.42017800  0.70707600  0.97995100  1
  H  212  1  0.50374800  0.81209200  0.00401600  1
  H  213  1  0.53793600  0.81199400  0.95970500  1
  H  214  1  0.50533500  0.81769400  0.90466400  1
  H  215  1  0.54161400  0.87725300  0.88425900  1
  H  216  1  0.62313000  0.85297500  0.85993000  1
  H  217  1  0.58662100  0.79289800  0.88015000  1
  H  218  1  0.53251800  0.72683200  0.86184400  1
  H  219  1  0.45313500  0.75241600  0.89076100  1
  H  220  1  0.41509300  0.71742700  0.84839500  1
  H  225  1  0.49459500  0.69215600  0.81946200  1
  H  251  1  0.13370700  0.37108100  0.63096800  1
  H  252  1  0.19339600  0.40338700  0.60951900  1
  H  253  1  0.11632900  0.45682500  0.60492600  1
  H  254  1  0.17556700  0.48893700  0.58374100  1
  H  255  1  0.24005200  0.53544800  0.60252400  1
  H  256  1  0.27379400  0.56941000  0.64674300  1
  H  257  1  0.29603700  0.48635700  0.67072000  1
  H  258  1  0.26167000  0.45193700  0.62652700  1
  H  259  1  0.29981000  0.48457400  0.57161100  1
  H  260  1  0.32334200  0.44853900  0.55115800  1
  H  261  1  0.21774000  0.36685600  0.52649400  1
  H  262  1  0.19391300  0.40311800  0.54676900  1
  H  263  1  0.18177500  0.45727300  0.52857100  1
  H  264  1  0.28665300  0.53651800  0.55781600  1
  H  265  1  0.28990900  0.57469000  0.51550100  1
  H  270  1  0.18519000  0.49537000  0.48627900  1
  H  277  1  0.81603400  0.42435600  0.91901800  1
  H  282  1  0.64013200  0.24513200  0.86843900  1
  H  283  1  0.64074800  0.28557000  0.85750200  1
  H  284  1  0.61714000  0.26145900  0.89206600  1
  H  286  1  0.72070100  0.33000400  0.84597000  1
  H  288  1  0.79559400  0.44448800  0.96595600  1
  H  295  1  0.59592100  0.17425900  0.58580100  1
  H  300  1  0.59227000  0.34959000  0.53549300  1
  H  301  1  0.63192800  0.34896400  0.52400600  1
  H  302  1  0.63205100  0.37297000  0.55851000  1
  H  304  1  0.59725100  0.26980800  0.51270400  1
  H  306  1  0.63610300  0.19449400  0.63294800  1
  H  313  1  0.56585600  0.39379300  0.25264700  1
  H  318  1  0.74475000  0.39752400  0.20209000  1
  H  319  1  0.70430000  0.35793300  0.19077600  1
  H  320  1  0.72847200  0.35771100  0.22504300  1
  H  322  1  0.65844500  0.39189300  0.17904900  1
  H  324  1  0.54629900  0.35408600  0.30012600  1
  H  331  1  0.16967100  0.57083800  0.41913200  1
  H  336  1  0.34491500  0.74973900  0.36875800  1
  H  337  1  0.34399700  0.70927600  0.35738900  1
  H  338  1  0.36841700  0.73338900  0.39166700  1
  H  340  1  0.26428500  0.66376000  0.34568000  1
  H  342  1  0.18977600  0.55110500  0.46652200  1
  H  349  1  0.38915700  0.82098500  0.08592900  1
  H  354  1  0.39247100  0.64514300  0.03522100  1
  H  355  1  0.35263100  0.64574200  0.02431700  1
  H  356  1  0.35316300  0.62211100  0.05885400  1
  H  358  1  0.38792400  0.72565500  0.01279700  1
  H  360  1  0.34872500  0.80061700  0.13291600  1
  H  367  1  0.41915600  0.60075000  0.75241600  1
  H  372  1  0.24013300  0.59704100  0.70204900  1
  H  373  1  0.28040400  0.63672800  0.69058000  1
  H  374  1  0.25651100  0.63679200  0.72510200  1
  H  376  1  0.32501400  0.60205500  0.67925300  1
  H  378  1  0.43902600  0.64097100  0.79958500  1
  H  385  1  0.65139000  0.96041600  0.79618800  1
  H  390  1  0.64120300  0.12211500  0.87633800  1
  H  391  1  0.60230200  0.08674300  0.89478700  1
  H  392  1  0.60422000  0.09115500  0.85296500  1
  H  394  1  0.64090800  0.07450500  0.80807400  1
  H  396  1  0.57514500  0.91123800  0.83058600  1
  H  403  1  0.29693200  0.33895400  0.46287800  1
  H  408  1  0.46876300  0.34901900  0.54298200  1
  H  409  1  0.47232000  0.38791000  0.56148100  1
  H  410  1  0.47482800  0.38605000  0.51965400  1
  H  412  1  0.42149100  0.34936100  0.47476300  1
  H  414  1  0.32364400  0.41510400  0.49705600  1
  H  422  1  0.87558800  0.52435200  0.21385000  1
  H  423  1  0.91364100  0.52324800  0.22927000  1
  H  424  1  0.90515800  0.51918000  0.18791400  1
  H  426  1  0.91512000  0.56911900  0.14291900  1
  H  433  1  0.33341700  0.03448400  0.29639300  1
  H  438  1  0.34369800  0.87254200  0.37643800  1
  H  439  1  0.38235200  0.90798700  0.39510100  1
  H  440  1  0.38099200  0.90339400  0.35330300  1
  H  442  1  0.34278400  0.91933100  0.30864700  1
  H  444  1  0.41034400  0.08341200  0.33090900  1
  H  451  1  0.69506300  0.66984900  0.96107100  1
  H  456  1  0.52006400  0.64173900  0.04717900  1
  H  457  1  0.51810700  0.60205600  0.06228800  1
  H  458  1  0.51475900  0.60718900  0.02094600  1
  H  460  1  0.56368600  0.64493200  0.97569100  1
  H  462  1  0.71731900  0.63809800  0.99732000  1
  H  466  1  0.95552800  0.30176500  0.62956300  1
  H  468  1  0.11731500  0.47359900  0.70963200  1
  H  469  1  0.08199300  0.47716700  0.72813600  1
  H  470  1  0.08634600  0.47966200  0.68630900  1
  H  471  1  0.06965300  0.42632200  0.64142500  1
  H  473  1  0.90611300  0.32849300  0.66368900  1
  H  477  1  0.02264000  0.70030800  0.12779300  1
  H  479  1  0.07659500  0.72219100  0.16399400  1
  C  1  1  0.69467900  0.24191000  0.66423000  1
  C  2  1  0.71391400  0.27147900  0.68484800  1
  C  3  1  0.73434500  0.26932000  0.71006200  1
  C  4  1  0.73588300  0.23725500  0.71648600  1
  C  5  1  0.71977100  0.20945300  0.69335800  1
  C  6  1  0.69908100  0.21129800  0.66825000  1
  C  7  1  0.75654200  0.23394700  0.74480500  1
  C  8  1  0.79451600  0.24866500  0.73049700  1
  C  9  1  0.80570800  0.22612600  0.71513100  1
  C  10  1  0.84107700  0.24006800  0.70279900  1
  C  11  1  0.86617100  0.27766200  0.70350500  1
  C  12  1  0.85475300  0.30079500  0.71666700  1
  C  13  1  0.81954300  0.28664300  0.72910000  1
  C  14  1  0.75615300  0.25483000  0.77417800  1
  C  15  1  0.73931800  0.19529300  0.75825800  1
  C  16  1  0.76001800  0.18219400  0.77404200  1
  C  17  1  0.74389700  0.14695500  0.78705100  1
  C  18  1  0.70591900  0.12356300  0.78640100  1
  C  19  1  0.68468900  0.13693700  0.77247300  1
  C  20  1  0.70098300  0.17206300  0.75942000  1
  C  21  1  0.72509500  0.25727800  0.78269600  1
  C  22  1  0.72489800  0.27731000  0.80901900  1
  C  23  1  0.75553300  0.29501600  0.82896200  1
  C  24  1  0.78511400  0.28963700  0.82278600  1
  C  25  1  0.78510400  0.26953700  0.79636900  1
  C  46  1  0.53489700  0.29530300  0.33110700  1
  C  47  1  0.54521200  0.27603600  0.35169400  1
  C  48  1  0.52258900  0.25558100  0.37687100  1
  C  49  1  0.48901600  0.25411200  0.38328900  1
  C  50  1  0.47734700  0.27025400  0.36017600  1
  C  51  1  0.49989800  0.29093600  0.33508400  1
  C  52  1  0.46506900  0.23350100  0.41161500  1
  C  53  1  0.44178600  0.19550900  0.39732700  1
  C  54  1  0.40813400  0.18440900  0.38184300  1
  C  55  1  0.38673500  0.14909800  0.36937900  1
  C  56  1  0.39917300  0.12394900  0.37001400  1
  C  57  1  0.43365700  0.13528600  0.38330600  1
  C  58  1  0.45467200  0.17042900  0.39591500  1
  C  59  1  0.48643000  0.23399400  0.44095700  1
  C  60  1  0.44370000  0.25080500  0.42503800  1
  C  61  1  0.40988300  0.23015000  0.44080400  1
  C  62  1  0.39079300  0.24632100  0.45377600  1
  C  63  1  0.40544000  0.28431100  0.45312900  1
  C  64  1  0.44005900  0.30549500  0.43922100  1
  C  65  1  0.45885600  0.28914800  0.42619800  1
  C  66  1  0.51992500  0.26510700  0.44942700  1
  C  67  1  0.54023400  0.26538500  0.47571800  1
  C  68  1  0.52739000  0.23479000  0.49569200  1
  C  69  1  0.49243500  0.20516200  0.48957600  1
  C  70  1  0.47226800  0.20508600  0.46318400  1
  C  91  1  0.74768600  0.45469200  0.99755300  1
  C  92  1  0.71808500  0.44392100  0.01822300  1
  C  93  1  0.71994400  0.46631000  0.04349300  1
  C  94  1  0.75180600  0.50004100  0.05001800  1
  C  95  1  0.77959600  0.51215300  0.02683100  1
  C  96  1  0.77798900  0.48989300  0.00158400  1
  C  97  1  0.75484900  0.52366400  0.07851300  1
  C  98  1  0.73773100  0.54520300  0.06508500  1
  C  99  1  0.75793200  0.57810700  0.04795500  1
  C  100  1  0.74155200  0.59710700  0.03510800  1
  C  101  1  0.70371300  0.58331200  0.03786900  1
  C  102  1  0.68295600  0.54968800  0.05316700  1
  C  103  1  0.69944200  0.53078600  0.06564000  1
  C  104  1  0.73539300  0.50253400  0.10837000  1
  C  105  1  0.79390200  0.54585400  0.09099500  1
  C  106  1  0.80795400  0.58073300  0.10495900  1
  C  107  1  0.84331500  0.59982600  0.11778700  1
  C  108  1  0.86591700  0.58431400  0.11866900  1
  C  109  1  0.85181200  0.54895600  0.10623600  1
  C  110  1  0.81658200  0.53014900  0.09335900  1
  C  111  1  0.73187800  0.46836900  0.11602100  1
  C  112  1  0.71235400  0.44833400  0.14259000  1
  C  113  1  0.69624700  0.46209000  0.16348800  1
  C  114  1  0.70302700  0.49769700  0.15823100  1
  C  115  1  0.72274400  0.51764500  0.13165300  1
  C  136  1  0.29057800  0.75284200  0.16453000  1
  C  137  1  0.27171200  0.72329100  0.18524200  1
  C  138  1  0.25113200  0.72520100  0.21044900  1
  C  139  1  0.24920400  0.75705500  0.21686500  1
  C  140  1  0.26498500  0.78482000  0.19366500  1
  C  141  1  0.28570800  0.78317300  0.16849300  1
  C  142  1  0.22852800  0.76010500  0.24530600  1
  C  143  1  0.18988700  0.74282000  0.23181300  1
  C  144  1  0.17714900  0.76291700  0.21457000  1
  C  145  1  0.14179500  0.74642500  0.20165200  1
  C  146  1  0.11778900  0.70857800  0.20446300  1
  C  147  1  0.13071100  0.68793400  0.21989200  1
  C  148  1  0.16607100  0.70452700  0.23245700  1
  C  149  1  0.23035600  0.74078600  0.27521300  1
  C  150  1  0.24511400  0.79918000  0.25770600  1
  C  151  1  0.22414500  0.81304800  0.27173400  1
  C  152  1  0.24023700  0.84840700  0.28460400  1
  C  153  1  0.27832500  0.87132200  0.28531700  1
  C  154  1  0.29965800  0.85740500  0.27261100  1
  C  155  1  0.28345000  0.82214500  0.25985800  1
  C  156  1  0.26110400  0.73743800  0.28288000  1
  C  157  1  0.26163500  0.71779700  0.30936400  1
  C  158  1  0.23172300  0.70145800  0.33019900  1
  C  159  1  0.20281400  0.70812500  0.32496300  1
  C  160  1  0.20255200  0.72794300  0.29846500  1
  C  181  1  0.45009800  0.69961500  0.83068900  1
  C  182  1  0.43968500  0.71883700  0.85124500  1
  C  183  1  0.46219600  0.73927000  0.87649100  1
  C  184  1  0.49575200  0.74075600  0.88301900  1
  C  185  1  0.50753200  0.72466500  0.85995100  1
  C  186  1  0.48510500  0.70403200  0.83478000  1
  C  187  1  0.51960000  0.76131400  0.91140200  1
  C  188  1  0.54304200  0.79930300  0.89715600  1
  C  189  1  0.57679300  0.81039700  0.88185600  1
  C  190  1  0.59835100  0.84575800  0.86954100  1
  C  191  1  0.58597200  0.87095400  0.87015100  1
  C  192  1  0.55140600  0.85963600  0.88324400  1
  C  193  1  0.53023600  0.82444700  0.89569300  1
  C  194  1  0.49829800  0.76102800  0.94070900  1
  C  195  1  0.54066700  0.74374400  0.92493300  1
  C  196  1  0.57454000  0.76427700  0.94062500  1
  C  197  1  0.59345200  0.74793800  0.95358500  1
  C  198  1  0.57846800  0.70990900  0.95311100  1
  C  199  1  0.54374100  0.68879200  0.93945200  1
  C  200  1  0.52517900  0.70534400  0.92630700  1
  C  201  1  0.46470500  0.73005500  0.94918800  1
  C  202  1  0.44458000  0.72987500  0.97557600  1
  C  203  1  0.45767700  0.76044600  0.99561200  1
  C  204  1  0.49268700  0.78994900  0.98944000  1
  C  205  1  0.51269100  0.78991200  0.96297000  1
  C  226  1  0.23713800  0.53978200  0.49765800  1
  C  227  1  0.26669700  0.55011200  0.51828100  1
  C  228  1  0.26450000  0.52751100  0.54348800  1
  C  229  1  0.23238700  0.49394300  0.54991600  1
  C  230  1  0.20461600  0.48224900  0.52676200  1
  C  231  1  0.20649900  0.50478800  0.50165200  1
  C  232  1  0.22904700  0.46998300  0.57823200  1
  C  233  1  0.24377100  0.44672200  0.56396000  1
  C  234  1  0.22124700  0.41302000  0.54854200  1
  C  235  1  0.23520200  0.39162100  0.53617800  1
  C  236  1  0.27279700  0.40412700  0.53690000  1
  C  237  1  0.29592200  0.43867200  0.55007100  1
  C  238  1  0.28175600  0.45969900  0.56254200  1
  C  239  1  0.24991300  0.49129700  0.60758600  1
  C  240  1  0.19038300  0.44856600  0.59164800  1
  C  241  1  0.17727200  0.41478500  0.60746400  1
  C  242  1  0.14203300  0.39568900  0.62047000  1
  C  243  1  0.11865800  0.41029400  0.61979300  1
  C  244  1  0.13204600  0.44488900  0.60585000  1
  C  245  1  0.16717500  0.46369800  0.59280600  1
  C  246  1  0.25229600  0.52478400  0.61607400  1
  C  247  1  0.27231200  0.54505800  0.64238000  1
  C  248  1  0.29006500  0.53219400  0.66232800  1
  C  249  1  0.28474100  0.49724700  0.65619600  1
  C  250  1  0.26463900  0.47710300  0.62980300  1
  C  271  1  0.74598600  0.35230900  0.88759300  1
  C  273  1  0.78951600  0.40433700  0.91666400  1
  C  274  1  0.76206500  0.40277100  0.93642600  1
  C  276  1  0.71788500  0.34935400  0.90786700  1
  C  278  1  0.68140600  0.32244600  0.90532700  1
  C  281  1  0.64120700  0.26963600  0.87749800  1
  C  285  1  0.73984900  0.33185500  0.86051000  1
  C  287  1  0.76971100  0.42820900  0.96010900  1
  C  289  1  0.59429600  0.24445900  0.55429800  1
  C  291  1  0.60253200  0.20080800  0.58343500  1
  C  292  1  0.62843500  0.22820200  0.60322800  1
  C  294  1  0.61946300  0.27252000  0.57459800  1
  C  296  1  0.62934000  0.30909700  0.57199700  1
  C  299  1  0.61591800  0.34870600  0.54423100  1
  C  303  1  0.57997700  0.25061400  0.52722100  1
  C  305  1  0.64604600  0.22039000  0.62696400  1
  C  307  1  0.63773800  0.39542800  0.22133700  1
  C  309  1  0.58588600  0.38729600  0.25038700  1
  C  310  1  0.58747500  0.36151700  0.27026900  1
  C  312  1  0.64070500  0.37037700  0.24168200  1
  C  314  1  0.66745000  0.36063300  0.23910400  1
  C  317  1  0.72026600  0.37390100  0.21093300  1
  C  321  1  0.65795300  0.40945100  0.19418000  1
  C  323  1  0.56210700  0.34401100  0.29402200  1
  C  325  1  0.23994400  0.64277600  0.38789500  1
  C  327  1  0.19620800  0.59083900  0.41687400  1
  C  328  1  0.22355400  0.59237500  0.43675400  1
  C  330  1  0.26794700  0.64566000  0.40822400  1
  C  332  1  0.30444300  0.67239800  0.40569000  1
  C  335  1  0.34402100  0.72522800  0.37756700  1
  C  339  1  0.24615000  0.66311500  0.36079400  1
  C  341  1  0.21567100  0.56696700  0.46048600  1
  C  343  1  0.39106900  0.75092200  0.05445600  1
  C  345  1  0.38265200  0.79446600  0.08357400  1
  C  346  1  0.35680700  0.76702600  0.10337200  1
  C  348  1  0.36597400  0.72283100  0.07475900  1
  C  350  1  0.35641200  0.68635400  0.07219100  1
  C  353  1  0.36903700  0.64619200  0.04430000  1
  C  357  1  0.40528600  0.74478000  0.02732000  1
  C  359  1  0.33907400  0.77472200  0.12708000  1
  C  361  1  0.34732500  0.59908500  0.72088200  1
  C  363  1  0.39920800  0.60734500  0.75003100  1
  C  364  1  0.39769000  0.63325100  0.76979600  1
  C  366  1  0.34440300  0.62424500  0.74116100  1
  C  368  1  0.31769800  0.63411300  0.73854800  1
  C  371  1  0.26465700  0.62068800  0.71079600  1
  C  375  1  0.32688300  0.58477700  0.69380300  1
  C  377  1  0.42308500  0.65090300  0.79352500  1
  C  379  1  0.65021700  0.03367400  0.82124100  1
  C  381  1  0.64556300  0.97578700  0.81096300  1
  C  382  1  0.62126900  0.95996400  0.83628800  1
  C  384  1  0.62645700  0.01824900  0.84752300  1
  C  386  1  0.61402300  0.03650600  0.86657600  1
  C  389  1  0.61995000  0.09381200  0.87412100  1
  C  393  1  0.66001700  0.06758500  0.80884900  1
  C  395  1  0.59959000  0.92303900  0.84059100  1
  C  397  1  0.37138700  0.34015200  0.48790900  1
  C  399  1  0.31821300  0.34489400  0.47759000  1
  C  400  1  0.32678600  0.36926900  0.50286100  1
  C  402  1  0.37977300  0.36396700  0.51416000  1
  C  404  1  0.41040300  0.37629100  0.53327800  1
  C  407  1  0.46173800  0.37029500  0.54079500  1
  C  411  1  0.39545300  0.33028300  0.47554200  1
  C  413  1  0.31135200  0.39075500  0.50725200  1
  C  415  1  0.95653700  0.62069700  0.15262800  1
  C  417  1  0.97462900  0.61536800  0.17861600  1
  C  418  1  0.95910100  0.58511500  0.19840200  1
  C  421  1  0.90388000  0.53251300  0.20944500  1
  C  425  1  0.92216100  0.59516100  0.14185100  1
  C  427  1  0.33441500  0.96097200  0.32106400  1
  C  429  1  0.33942600  0.01907700  0.31095200  1
  C  430  1  0.36390900  0.03482300  0.33616400  1
  C  432  1  0.35845600  0.97635500  0.34721400  1
  C  434  1  0.37104400  0.95808300  0.36616900  1
  C  437  1  0.36498400  0.90083400  0.37424100  1
  C  441  1  0.32409200  0.92682300  0.30877400  1
  C  443  1  0.38573300  0.07173800  0.34059500  1
  C  445  1  0.61539600  0.65595300  0.98609700  1
  C  447  1  0.67271100  0.65976300  0.97529900  1
  C  448  1  0.66796000  0.63631800  0.00060800  1
  C  450  1  0.61033100  0.63279300  0.01219900  1
  C  452  1  0.58016400  0.61798900  0.03202000  1
  C  455  1  0.52790000  0.62138100  0.04268400  1
  C  459  1  0.58961000  0.66433600  0.97526700  1
  C  461  1  0.69323600  0.62571600  0.00788500  1
  C  463  1  0.97087100  0.32304100  0.64427800  1
  C  464  1  0.95507300  0.33161800  0.66954800  1
  C  467  1  0.08901800  0.46657600  0.70745200  1
  C  472  1  0.91815200  0.31620000  0.67391800  1
  C  474  1  0.01031600  0.67786100  0.14190800  1
  C  475  1  0.02896900  0.67288400  0.16712600  1
  C  478  1  0.06488400  0.69805900  0.17446700  1
  C  480  1  0.02878300  0.37621500  0.65459200  1
  C  482  1  0.01336300  0.38460500  0.68084500  1
  C  483  1  0.03167800  0.41524100  0.69995300  1
  C  486  1  0.06270600  0.40028700  0.64221500  1
  N  41  1  0.69222800  0.09024600  0.79892800  1
  N  42  1  0.75782100  0.31572900  0.85364700  1
  N  43  1  0.67447900  0.24489700  0.64143200  1
  N  44  1  0.90053600  0.29076300  0.69412300  1
  N  86  1  0.38585100  0.29805400  0.46563700  1
  N  87  1  0.54588600  0.23257100  0.52034800  1
  N  88  1  0.55807300  0.31546100  0.30832500  1
  N  89  1  0.37782900  0.08964100  0.36043200  1
  N  131  1  0.89948400  0.60404800  0.13061600  1
  N  132  1  0.67552000  0.44373700  0.18811600  1
  N  133  1  0.74500800  0.43166800  0.97472700  1
  N  134  1  0.68571900  0.59941000  0.02703300  1
  N  176  1  0.29212800  0.90468300  0.29794500  1
  N  177  1  0.22936400  0.68062500  0.35475400  1
  N  178  1  0.31088700  0.75007500  0.14171300  1
  N  179  1  0.08367800  0.69051700  0.19360300  1
  N  221  1  0.59827700  0.69616200  0.96491300  1
  N  222  1  0.43936000  0.76273500  0.02037500  1
  N  223  1  0.42696500  0.67936800  0.80789300  1
  N  224  1  0.60735700  0.90528200  0.86069400  1
  N  266  1  0.08533800  0.39069100  0.63231300  1
  N  267  1  0.31077900  0.55067200  0.68698200  1
  N  268  1  0.24016600  0.56296800  0.47487100  1
  N  269  1  0.28591200  0.38289300  0.52746300  1
  N  272  1  0.78041600  0.37980000  0.89304300  1
  N  275  1  0.72774300  0.37508900  0.93091200  1
  N  290  1  0.58721100  0.20998900  0.55977800  1
  N  293  1  0.63523200  0.26257700  0.59768400  1
  N  308  1  0.61031100  0.40247600  0.22667600  1
  N  311  1  0.61505500  0.35469700  0.26480500  1
  N  326  1  0.20546500  0.61533900  0.39321700  1
  N  329  1  0.25795900  0.61996100  0.43130900  1
  N  344  1  0.39802600  0.78535700  0.05991300  1
  N  347  1  0.35014700  0.73269600  0.09784700  1
  N  362  1  0.37471600  0.59200900  0.72637200  1
  N  365  1  0.37010900  0.64003400  0.76424200  1
  N  380  1  0.65829700  0.01144000  0.80419800  1
  N  383  1  0.61272200  0.98201100  0.85273400  1
  N  398  1  0.34106200  0.33206700  0.47087300  1
  N  401  1  0.35731000  0.37774600  0.51937000  1
  N  416  1  0.97557700  0.65178600  0.13560400  1
  N  428  1  0.32634000  0.98334400  0.30421300  1
  N  431  1  0.37239800  0.01263100  0.35242600  1
  N  446  1  0.64641700  0.66810100  0.96895800  1
  N  449  1  0.63692600  0.62429800  0.01763500  1
  N  465  1  0.97712100  0.36214200  0.68605700  1
  N  476  1  0.00980300  0.64180200  0.18405200  1
  N  481  1  0.00654600  0.34589100  0.63755600  1
  O  279  1  0.66029500  0.32280900  0.92480000  1
  O  280  1  0.67389700  0.28926700  0.89582800  1
  O  297  1  0.65093200  0.33024100  0.59135700  1
  O  298  1  0.60331700  0.31625900  0.56282200  1
  O  315  1  0.66756800  0.33947300  0.25863800  1
  O  316  1  0.70066300  0.38655700  0.22979700  1
  O  333  1  0.32569100  0.67246600  0.42522700  1
  O  334  1  0.31176400  0.70563400  0.39643300  1
  O  351  1  0.33495500  0.66522600  0.09166300  1
  O  352  1  0.38208500  0.67886300  0.06265500  1
  O  369  1  0.31813100  0.65569900  0.75790800  1
  O  370  1  0.28452000  0.60808600  0.72935900  1
  O  387  1  0.59400800  0.01985100  0.88866300  1
  O  388  1  0.63697200  0.07183200  0.87244900  1
  O  405  1  0.41373700  0.39624600  0.55540300  1
  O  406  1  0.42274100  0.35330300  0.53911500  1
  O  419  1  0.97856000  0.58338100  0.21883900  1
  O  420  1  0.92421300  0.57151500  0.20666700  1
  O  435  1  0.39160500  0.97508500  0.38785000  1
  O  436  1  0.34799500  0.92281200  0.37205600  1
  O  453  1  0.57851200  0.59724700  0.05284300  1
  O  454  1  0.56692500  0.63961000  0.04034100  1
  O  484  1  0.01506200  0.41858200  0.72208100  1
  O  485  1  0.06700700  0.42758000  0.70578400  1
