# generated using pymatgen
data_Cr3H21C31O15
_symmetry_space_group_name_H-M   'P 1'
_cell_length_a   10.93146000
_cell_length_b   11.02913000
_cell_length_c   18.83098000
_cell_angle_alpha   89.56234000
_cell_angle_beta   89.30250000
_cell_angle_gamma   60.52930000
_symmetry_Int_Tables_number   1
_chemical_formula_structural   Cr3H21C31O15
_chemical_formula_sum   'Cr6 H42 C62 O30'
_cell_volume   1976.43137749
_cell_formula_units_Z   2
loop_
 _symmetry_equiv_pos_site_id
 _symmetry_equiv_pos_as_xyz
  1  'x, y, z'
loop_
 _atom_site_type_symbol
 _atom_site_label
 _atom_site_symmetry_multiplicity
 _atom_site_fract_x
 _atom_site_fract_y
 _atom_site_fract_z
 _atom_site_occupancy
  Cr  Cr0  1  0.39792000  0.39296000  0.49776000  1
  Cr  Cr1  1  0.70848000  0.39834000  0.49875000  1
  Cr  Cr2  1  0.39357000  0.70867000  0.50354000  1
  Cr  Cr3  1  0.93854000  0.93765000  0.99239000  1
  Cr  Cr4  1  0.93737000  0.62533000  0.00548000  1
  Cr  Cr5  1  0.62523000  0.93794000  0.99881000  1
  H  H6  1  0.87582000  0.50773000  0.19439000  1
  H  H7  1  0.42307000  0.82615000  0.30436000  1
  H  H8  1  0.64470000  0.89785000  0.21413000  1
  H  H9  1  0.62238000  0.87716000  0.33304000  1
  H  H10  1  0.09904000  0.51598000  0.32347000  1
  H  H11  1  0.07178000  0.52870000  0.19831000  1
  H  H12  1  0.00575000  0.96873000  0.19380000  1
  H  H13  1  0.18173000  0.95865000  0.18892000  1
  H  H14  1  0.18999000  0.95148000  0.31659000  1
  H  H15  1  0.02126000  0.94552000  0.32093000  1
  H  H16  1  0.73265000  0.47648000  0.17834000  1
  H  H17  1  0.84253000  0.21787000  0.16495000  1
  H  H18  1  0.41866000  0.09690000  0.19521000  1
  H  H19  1  0.36877000  0.33785000  0.29407000  1
  H  H20  1  0.39308000  0.16154000  0.31742000  1
  H  H21  1  0.83473000  0.44511000  0.69404000  1
  H  H22  1  0.84822000  0.45406000  0.82465000  1
  H  H23  1  0.52222000  0.95104000  0.81419000  1
  H  H24  1  0.35257000  0.94887000  0.82222000  1
  H  H25  1  0.34582000  0.93871000  0.69599000  1
  H  H26  1  0.70659000  0.45849000  0.29710000  1
  H  H27  1  0.51787000  0.93624000  0.68871000  1
  H  H28  1  0.23328000  0.81154000  0.69397000  1
  H  H29  1  0.21452000  0.81817000  0.82395000  1
  H  H30  1  0.01094000  0.51973000  0.81031000  1
  H  H31  1  0.17269000  0.34421000  0.81761000  1
  H  H32  1  0.19689000  0.33667000  0.69121000  1
  H  H33  1  0.03377000  0.51085000  0.68457000  1
  H  H34  1  0.44811000  0.21723000  0.68234000  1
  H  H35  1  0.46738000  0.18882000  0.81116000  1
  H  H36  1  0.02576000  0.01646000  0.79220000  1
  H  H37  1  0.85355000  0.48738000  0.31378000  1
  H  H38  1  0.89526000  0.20586000  0.79864000  1
  H  H39  1  0.89332000  0.22038000  0.67356000  1
  H  H40  1  0.01566000  0.02929000  0.66570000  1
  H  H41  1  0.82288000  0.76303000  0.21634000  1
  H  H42  1  0.80061000  0.73634000  0.33615000  1
  H  H43  1  0.44406000  0.84895000  0.18776000  1
  H  H44  1  0.48446000  0.67217000  0.17348000  1
  H  H45  1  0.46446000  0.64713000  0.29222000  1
  H  H46  1  0.07072000  0.24490000  0.26906000  1
  H  H47  1  0.24602000  0.35927000  0.06224000  1
  C  C48  1  0.64604000  0.24330000  0.38890000  1
  C  C49  1  0.51631000  0.73892000  0.20321000  1
  C  C50  1  0.66991000  0.69708000  0.18563000  1
  C  C51  1  0.64402000  0.67036000  0.32186000  1
  C  C52  1  0.69753000  0.77407000  0.30979000  1
  C  C53  1  0.50187000  0.72316000  0.28300000  1
  C  C54  1  0.13502000  0.68686000  0.18002000  1
  C  C55  1  0.18261000  0.76671000  0.21391000  1
  C  C56  1  0.19742000  0.75819000  0.28754000  1
  C  C57  1  0.12002000  0.58900000  0.29429000  1
  C  C58  1  0.10735000  0.59500000  0.22154000  1
  C  C59  1  0.62062000  0.65296000  0.39810000  1
  C  C60  1  0.11438000  0.92044000  0.21388000  1
  C  C61  1  0.12393000  0.91115000  0.29385000  1
  C  C62  1  0.16679000  0.67015000  0.32823000  1
  C  C63  1  0.67491000  0.17128000  0.16590000  1
  C  C64  1  0.58859000  0.14210000  0.20907000  1
  C  C65  1  0.58084000  0.16520000  0.28082000  1
  C  C66  1  0.78290000  0.20177000  0.27239000  1
  C  C67  1  0.76973000  0.20308000  0.19843000  1
  C  C68  1  0.43598000  0.18674000  0.20463000  1
  C  C69  1  0.42480000  0.22426000  0.28330000  1
  C  C70  1  0.22736000  0.62847000  0.39810000  1
  C  C71  1  0.67443000  0.19594000  0.31532000  1
  C  C72  1  0.65812000  0.65332000  0.83482000  1
  C  C73  1  0.53717000  0.74847000  0.79797000  1
  C  C74  1  0.53092000  0.74336000  0.72546000  1
  C  C75  1  0.75195000  0.53157000  0.72266000  1
  C  C76  1  0.75913000  0.53603000  0.79733000  1
  C  C77  1  0.45794000  0.90498000  0.79658000  1
  C  C78  1  0.45368000  0.89754000  0.71670000  1
  C  C79  1  0.64192000  0.64284000  0.68561000  1
  C  C80  1  0.18900000  0.63612000  0.83113000  1
  C  C81  1  0.64891000  0.22064000  0.59800000  1
  C  C82  1  0.20774000  0.51859000  0.79389000  1
  C  C83  1  0.21990000  0.51437000  0.72121000  1
  C  C84  1  0.22361000  0.73040000  0.72140000  1
  C  C85  1  0.21485000  0.73329000  0.79547000  1
  C  C86  1  0.11986000  0.44887000  0.79227000  1
  C  C87  1  0.13443000  0.44413000  0.71232000  1
  C  C88  1  0.21348000  0.62632000  0.68344000  1
  C  C89  1  0.69036000  0.11853000  0.81144000  1
  C  C90  1  0.81032000  0.07196000  0.76854000  1
  C  C91  1  0.80173000  0.08469000  0.69626000  1
  C  C92  1  0.61944000  0.63860000  0.60954000  1
  C  C93  1  0.55113000  0.17333000  0.70573000  1
  C  C94  1  0.56091000  0.16052000  0.77944000  1
  C  C95  1  0.92743000  0.10455000  0.77226000  1
  C  C96  1  0.92167000  0.11454000  0.69227000  1
  C  C97  1  0.67015000  0.14817000  0.66445000  1
  C  C98  1  0.09418000  0.70406000  0.10573000  1
  C  C99  1  0.68536000  0.72081000  0.11010000  1
  C  C100  1  0.70647000  0.11736000  0.09412000  1
  C  C101  1  0.11088000  0.67341000  0.89746000  1
  C  C102  1  0.68845000  0.69592000  0.90302000  1
  C  C103  1  0.23891000  0.61117000  0.60771000  1
  C  C104  1  0.71201000  0.08936000  0.88614000  1
  C  C105  1  0.76405000  0.54387000  0.20761000  1
  C  C106  1  0.74927000  0.52971000  0.28802000  1
  C  C107  1  0.71332000  0.78897000  0.22928000  1
  C  C108  1  0.91005000  0.21128000  0.29691000  1
  C  C109  1  0.35925000  0.30257000  0.15228000  1
  O  O110  1  0.25570000  0.50738000  0.41856000  1
  O  O111  1  0.69581000  0.52448000  0.57596000  1
  O  O112  1  0.50429000  0.73639000  0.58521000  1
  O  O113  1  0.27729000  0.69130000  0.57783000  1
  O  O114  1  0.49999000  0.49999000  0.50002000  1
  O  O115  1  0.82569000  0.08940000  0.06943000  1
  O  O116  1  0.05444000  0.81846000  0.07015000  1
  O  O117  1  0.07715000  0.60606000  0.08449000  1
  O  O118  1  0.80668000  0.64655000  0.08243000  1
  O  O119  1  0.59341000  0.83717000  0.08475000  1
  O  O120  1  0.63553000  0.06520000  0.06843000  1
  O  O121  1  0.52735000  0.28032000  0.42107000  1
  O  O122  1  0.82889000  0.06826000  0.90816000  1
  O  O123  1  0.05741000  0.79887000  0.92066000  1
  O  O124  1  0.08035000  0.58493000  0.92322000  1
  O  O125  1  0.80965000  0.62696000  0.93294000  1
  O  O126  1  0.59661000  0.81604000  0.92349000  1
  O  O127  1  0.63850000  0.04561000  0.91894000  1
  O  O128  1  0.83371000  0.83364000  0.99890000  1
  O  O129  1  0.73959000  0.26051000  0.41541000  1
  O  O130  1  0.69508000  0.53230000  0.42618000  1
  O  O131  1  0.50350000  0.74484000  0.42363000  1
  O  O132  1  0.27656000  0.69912000  0.42804000  1
  O  O133  1  0.25650000  0.49894000  0.58014000  1
  O  O134  1  0.52808000  0.27250000  0.57085000  1
  O  O135  1  0.74038000  0.25206000  0.57699000  1
  O  O136  1  0.95680000  0.17964000  0.35685000  1
  O  O137  1  0.98547000  0.24582000  0.24777000  1
  O  O138  1  0.37709000  0.40366000  0.15088000  1
  O  O139  1  0.27634000  0.28691000  0.10127000  1
