# generated using pymatgen
data_H17C18N4O
_symmetry_space_group_name_H-M   'P 1'
_cell_length_a   15.10055000
_cell_length_b   26.15491982
_cell_length_c   45.30180000
_cell_angle_alpha   90.00000000
_cell_angle_beta   90.00000000
_cell_angle_gamma   90.00000000
_symmetry_Int_Tables_number   1
_chemical_formula_structural   H17C18N4O
_chemical_formula_sum   'H204 C216 N48 O12'
_cell_volume   17892.11237244
_cell_formula_units_Z   12
loop_
 _symmetry_equiv_pos_site_id
 _symmetry_equiv_pos_as_xyz
  1  'x, y, z'
loop_
 _atom_site_type_symbol
 _atom_site_label
 _atom_site_symmetry_multiplicity
 _atom_site_fract_x
 _atom_site_fract_y
 _atom_site_fract_z
 _atom_site_occupancy
  C  1  1  0.52881500  0.51045100  0.01320500  1
  C  2  1  0.62128100  0.50437200  0.00957600  1
  C  3  1  0.68175100  0.51375400  0.03280500  1
  C  4  1  0.64739200  0.52768300  0.06085000  1
  C  5  1  0.05787500  0.03882800  0.06324300  1
  C  6  1  0.99946600  0.02667300  0.04000000  1
  C  9  1  0.46886800  0.50447100  0.98899800  1
  C  10  1  0.99026900  0.02345400  0.96039000  1
  C  11  1  0.93077600  0.01977400  0.93651200  1
  C  12  1  0.34720300  0.49695500  0.94123800  1
  C  13  1  0.32372300  0.47678200  0.96926400  1
  C  14  1  0.38594300  0.48009300  0.99251900  1
  C  21  1  0.23604300  0.45243900  0.97509800  1
  C  24  1  0.02083100  0.05092100  0.09296600  1
  C  27  1  0.96146000  0.03733400  0.90703500  1
  C  30  1  0.77984700  0.51054700  0.02871100  1
  C  33  1  0.96742400  0.00890200  0.67988200  1
  C  34  1  0.93029200  0.05817000  0.67624900  1
  C  35  1  0.88598900  0.08371900  0.69947800  1
  C  36  1  0.88228400  0.05958100  0.72752300  1
  C  37  1  0.92152800  0.01094900  0.73215400  1
  C  38  1  0.96178900  0.98596000  0.70803600  1
  C  41  1  0.50635500  0.48191700  0.65566500  1
  C  42  1  0.46611400  0.48251700  0.62753400  1
  C  43  1  0.50178700  0.45526100  0.60342600  1
  C  44  1  0.57845900  0.42484600  0.60790500  1
  C  45  1  0.62045600  0.42319000  0.63593100  1
  C  46  1  0.58437900  0.45264200  0.65918600  1
  C  53  1  0.70081100  0.39152100  0.64176500  1
  C  56  1  0.92257200  0.98523400  0.76145100  1
  C  59  1  0.46026600  0.46211200  0.57391500  1
  C  62  1  0.84174300  0.13436700  0.69538100  1
  C  65  1  0.50045100  0.47898800  0.34654200  1
  C  66  1  0.44509500  0.43580000  0.34291300  1
  C  67  1  0.42893700  0.40087300  0.36614000  1
  C  68  1  0.46701200  0.41107800  0.39418500  1
  C  69  1  0.52034900  0.45501200  0.39881400  1
  C  70  1  0.53770900  0.48763300  0.37469400  1
  C  73  1  0.02125400  0.01221000  0.32302900  1
  C  74  1  0.04131100  0.99136300  0.29513800  1
  C  75  1  0.06337300  0.02255200  0.27089000  1
  C  76  1  0.07069100  0.07617000  0.27501100  1
  C  77  1  0.05234400  0.09835000  0.30295300  1
  C  78  1  0.02599600  0.06590000  0.32634700  1
  C  85  1  0.05986200  0.15440700  0.30854000  1
  C  88  1  0.55838800  0.46839400  0.42811500  1
  C  91  1  0.07150700  0.99762200  0.24163100  1
  C  94  1  0.37507700  0.35343200  0.36204300  1
  C  97  1  0.47336500  0.48500600  0.19897600  1
  C  98  1  0.93079600  0.02225800  0.18727700  1
  C  99  1  0.94257300  0.03037300  0.15657000  1
  C  100  1  0.99848200  0.99696800  0.14026500  1
  C  101  1  0.50886600  0.45380000  0.14952700  1
  C  102  1  0.51518400  0.44909000  0.18036100  1
  C  104  1  0.84809000  0.10457000  0.15998300  1
  C  105  1  0.84259400  0.09829800  0.19104600  1
  C  109  1  0.79972800  0.14433400  0.14333000  1
  C  113  1  0.79573100  0.13257800  0.21180600  1
  C  121  1  0.03319200  0.99392800  0.86558800  1
  C  122  1  0.49827100  0.44890600  0.85304300  1
  C  123  1  0.49426300  0.44334700  0.82198700  1
  C  124  1  0.52512600  0.48303700  0.80343400  1
  C  125  1  0.06229900  0.02727700  0.81617100  1
  C  126  1  0.06615200  0.03281400  0.84699500  1
  C  128  1  0.42442600  0.36142900  0.82790300  1
  C  129  1  0.42778800  0.36722000  0.85905600  1
  C  133  1  0.38621700  0.31660000  0.81267000  1
  C  137  1  0.39398200  0.33015300  0.88098300  1
  C  145  1  0.48998900  0.51942100  0.53231000  1
  C  146  1  0.07500600  0.02445300  0.51978500  1
  C  147  1  0.08532900  0.02524500  0.48873300  1
  C  148  1  0.01033800  0.02084000  0.47020400  1
  C  149  1  0.42543200  0.51727600  0.48285900  1
  C  150  1  0.41520200  0.51646900  0.51369500  1
  C  152  1  0.24313200  0.03123300  0.49460700  1
  C  153  1  0.23280000  0.03001000  0.52576300  1
  C  157  1  0.32944900  0.03452800  0.47935200  1
  C  161  1  0.30533800  0.03162900  0.54767400  1
  C  169  1  0.40807900  0.99073600  0.99602200  1
  C  170  1  0.94720600  0.44278500  0.00025300  1
  C  171  1  0.04076900  0.43819700  0.00051200  1
  C  172  1  0.09472400  0.48211200  0.99745300  1
  C  173  1  0.55538000  0.02979800  0.99367300  1
  C  174  1  0.46266200  0.03436600  0.99315300  1
  C  176  1  0.02708300  0.34743000  0.00731300  1
  C  177  1  0.93336600  0.35203400  0.00696700  1
  C  181  1  0.07500000  0.29858600  0.01101700  1
  C  185  1  0.86952400  0.30953100  0.01023400  1
  C  193  1  0.80720100  0.20749600  0.66426300  1
  C  194  1  0.85970900  0.25192700  0.66692000  1
  C  195  1  0.81981200  0.30100300  0.66717900  1
  C  196  1  0.72696100  0.30602400  0.66411900  1
  C  197  1  0.67498700  0.26156500  0.66113000  1
  C  198  1  0.71444000  0.21288000  0.66142000  1
  C  200  1  0.96280100  0.33954300  0.67397800  1
  C  201  1  0.00275200  0.29038400  0.67363300  1
  C  205  1  0.01210900  0.38792300  0.67768200  1
  C  209  1  0.09843000  0.27971500  0.67690000  1
  C  217  1  0.28267500  0.29963400  0.33091400  1
  C  218  1  0.18977600  0.30368600  0.33358100  1
  C  219  1  0.13611700  0.25920400  0.33385200  1
  C  220  1  0.17502300  0.21027300  0.33081200  1
  C  221  1  0.26768700  0.20649400  0.32781300  1
  C  222  1  0.32098500  0.25055900  0.32807700  1
  C  224  1  0.00679700  0.31140600  0.34065300  1
  C  225  1  0.06055000  0.35596600  0.34030000  1
  C  229  1  0.90957000  0.31184800  0.34435500  1
  C  233  1  0.02869100  0.40913200  0.34356700  1
  C  241  1  0.03055800  0.00977800  0.01230500  1
  C  242  1  0.12291100  0.00382600  0.00843300  1
  C  243  1  0.18403500  0.01711300  0.03077500  1
  C  244  1  0.15045500  0.03532700  0.05809000  1
  C  245  1  0.55482100  0.53238200  0.06547800  1
  C  246  1  0.49721700  0.52475400  0.04135600  1
  C  249  1  0.97020500  0.00295100  0.98840200  1
  C  250  1  0.48988300  0.52429200  0.96086700  1
  C  251  1  0.43116600  0.52008200  0.93676000  1
  C  252  1  0.84691900  0.99665400  0.94115200  1
  C  253  1  0.82424400  0.97611100  0.96916900  1
  C  254  1  0.88715600  0.97892500  0.99223200  1
  C  261  1  0.73673600  0.95179500  0.97516900  1
  C  264  1  0.51572000  0.54471600  0.09478000  1
  C  267  1  0.46219900  0.53741700  0.90724900  1
  C  270  1  0.28193200  0.01356400  0.02646700  1
  C  273  1  0.46740900  0.50890300  0.67987100  1
  C  274  1  0.43029300  0.55817400  0.67624200  1
  C  275  1  0.38598500  0.58371800  0.69947100  1
  C  276  1  0.38227100  0.55957400  0.72751600  1
  C  277  1  0.42150600  0.51094000  0.73214500  1
  C  278  1  0.46175000  0.48595100  0.70802300  1
  C  281  1  0.00636400  0.98191100  0.65567800  1
  C  282  1  0.96610000  0.98249600  0.62755100  1
  C  283  1  0.00176800  0.95523900  0.60344400  1
  C  284  1  0.07845500  0.92484000  0.60791400  1
  C  285  1  0.12046600  0.92318800  0.63593700  1
  C  286  1  0.08439300  0.95264000  0.65919400  1
  C  293  1  0.20082200  0.89152300  0.64176900  1
  C  296  1  0.42256000  0.48522400  0.76144600  1
  C  299  1  0.96025200  0.96210600  0.57393700  1
  C  302  1  0.34174800  0.63437000  0.69537800  1
  C  305  1  0.99977400  0.97926500  0.34710100  1
  C  306  1  0.94446900  0.93607700  0.34332400  1
  C  307  1  0.92866900  0.90086000  0.36641400  1
  C  308  1  0.96690700  0.91087700  0.39445900  1
  C  309  1  0.02026400  0.95478400  0.39916500  1
  C  310  1  0.03747600  0.98764300  0.37516600  1
  C  313  1  0.52145300  0.51195000  0.32233600  1
  C  314  1  0.54066300  0.49152900  0.29420200  1
  C  315  1  0.56370300  0.52299200  0.27009500  1
  C  316  1  0.57100100  0.57653400  0.27457200  1
  C  317  1  0.55250300  0.59836600  0.30259700  1
  C  318  1  0.52636300  0.56560300  0.32585500  1
  C  325  1  0.55984300  0.65437800  0.30843100  1
  C  328  1  0.05829700  0.96813600  0.42843800  1
  C  331  1  0.57418800  0.49880100  0.24058200  1
  C  334  1  0.87502400  0.85336900  0.36217100  1
  C  337  1  0.97119400  0.98024400  0.20132000  1
  C  338  1  0.42338800  0.52501800  0.18637800  1
  C  339  1  0.41705600  0.52980100  0.15532000  1
  C  340  1  0.46115900  0.49452300  0.13676800  1
  C  341  1  0.02758200  0.95137000  0.15401400  1
  C  342  1  0.01522400  0.94315000  0.18425500  1
  C  344  1  0.32909800  0.60568000  0.16123500  1
  C  345  1  0.33610300  0.60110300  0.19239000  1
  C  349  1  0.28095600  0.64719800  0.14600200  1
  C  353  1  0.29740500  0.63653800  0.21431600  1
  C  361  1  0.53330000  0.49390000  0.86564300  1
  C  362  1  0.99819800  0.94890800  0.85302300  1
  C  363  1  0.99423200  0.94334500  0.82197200  1
  C  364  1  0.02511800  0.98303900  0.80342500  1
  C  365  1  0.56235800  0.52725500  0.81619300  1
  C  366  1  0.56626700  0.53276800  0.84702600  1
  C  368  1  0.92441300  0.86142100  0.82789900  1
  C  369  1  0.92774300  0.86722200  0.85905400  1
  C  373  1  0.88623900  0.81658500  0.81266500  1
  C  377  1  0.89395700  0.83014200  0.88098000  1
  C  385  1  0.98998500  0.01946600  0.53237600  1
  C  386  1  0.57499600  0.52440300  0.51971200  1
  C  387  1  0.58533800  0.52517900  0.48865400  1
  C  388  1  0.51037200  0.52077000  0.47010300  1
  C  389  1  0.92538500  0.01733100  0.48294100  1
  C  390  1  0.91517700  0.01651500  0.51377000  1
  C  392  1  0.74313400  0.53122000  0.49457000  1
  C  393  1  0.73276800  0.53000400  0.52572300  1
  C  397  1  0.82948000  0.53453100  0.47933600  1
  C  401  1  0.80527000  0.53163600  0.54764900  1
  C  409  1  0.90681400  0.49125400  0.99759400  1
  C  410  1  0.44821700  0.94232400  0.99934400  1
  C  411  1  0.54172800  0.93775500  0.00021600  1
  C  412  1  0.59581100  0.98164700  0.99729600  1
  C  413  1  0.05402300  0.53032900  0.99446400  1
  C  414  1  0.96127000  0.53494400  0.99475300  1
  C  416  1  0.52770600  0.84709500  0.00739400  1
  C  417  1  0.43401500  0.85172500  0.00665500  1
  C  421  1  0.57545400  0.79826700  0.01141000  1
  C  425  1  0.37002900  0.80932400  0.01005100  1
  C  433  1  0.30720100  0.70750000  0.66426100  1
  C  434  1  0.35970800  0.75193200  0.66692000  1
  C  435  1  0.31981500  0.80100500  0.66717900  1
  C  436  1  0.22696400  0.80602500  0.66411900  1
  C  437  1  0.17498700  0.76156600  0.66113000  1
  C  438  1  0.21444000  0.71288300  0.66141700  1
  C  440  1  0.46280400  0.83954400  0.67398000  1
  C  441  1  0.50275400  0.79038700  0.67363300  1
  C  445  1  0.51211000  0.88792500  0.67768200  1
  C  449  1  0.59843200  0.77971600  0.67690000  1
  C  457  1  0.78268300  0.79964300  0.33094300  1
  C  458  1  0.68977300  0.80365000  0.33358900  1
  C  459  1  0.63612200  0.75915800  0.33383700  1
  C  460  1  0.67503100  0.71022600  0.33077500  1
  C  461  1  0.76771400  0.70649100  0.32778600  1
  C  462  1  0.82099900  0.75057400  0.32808600  1
  C  464  1  0.50679400  0.81135800  0.34064400  1
  C  465  1  0.56053800  0.85592000  0.34030200  1
  C  469  1  0.40956800  0.81180900  0.34434600  1
  C  473  1  0.52868800  0.90909100  0.34356900  1
  H  7  1  0.64469400  0.49279900  0.98951500  1
  H  16  1  0.37030100  0.46430700  0.01252400  1
  H  17  1  0.21649300  0.08558000  0.07855700  1
  H  18  1  0.75244800  0.02257100  0.91826400  1
  H  19  1  0.93275600  0.03101700  0.04323800  1
  H  20  1  0.04945000  0.04179700  0.95718300  1
  H  22  1  0.24666300  0.41276000  0.98187700  1
  H  23  1  0.69624700  0.95053300  0.95517400  1
  H  25  1  0.56752900  0.55518100  0.11052600  1
  H  26  1  0.94973300  0.05729600  0.09151400  1
  H  28  1  0.40662000  0.54004400  0.89184100  1
  H  29  1  0.98962700  0.07581100  0.90857500  1
  H  31  1  0.30972700  0.05152000  0.03061500  1
  H  32  1  0.80458800  0.48262100  0.04470800  1
  H  39  1  0.93593100  0.07565600  0.65618400  1
  H  48  1  0.61588100  0.45271800  0.67919100  1
  H  49  1  0.78115200  0.07355100  0.75082900  1
  H  50  1  0.58738000  0.36503500  0.58470300  1
  H  51  1  0.48644300  0.44987000  0.71107100  1
  H  52  1  0.90908200  0.00300200  0.62443400  1
  H  54  1  0.75502000  0.41667100  0.64854600  1
  H  55  1  0.72271600  0.37193200  0.62174300  1
  H  57  1  0.88096300  0.00590300  0.77719900  1
  H  58  1  0.89423600  0.94689700  0.75935200  1
  H  60  1  0.48411800  0.43300900  0.55850800  1
  H  61  1  0.38842200  0.45720300  0.57543000  1
  H  63  1  0.77175500  0.12959800  0.70107600  1
  H  64  1  0.87125300  0.16070400  0.71137800  1
  H  71  1  0.41602300  0.42988500  0.32285000  1
  H  80  1  0.00995800  0.08181400  0.34628000  1
  H  81  1  0.49660200  0.35352300  0.41749100  1
  H  82  1  0.15570600  0.10998200  0.25143100  1
  H  83  1  0.07931800  0.01800000  0.37823900  1
  H  84  1  0.53840300  0.45276800  0.29108300  1
  H  86  1  0.99509100  0.16912500  0.31523500  1
  H  87  1  0.07852900  0.17487200  0.28844300  1
  H  89  1  0.54818400  0.43725600  0.44386100  1
  H  90  1  0.63006000  0.47339500  0.42601600  1
  H  92  1  0.10100700  0.02409900  0.22571500  1
  H  93  1  0.11610800  0.96470600  0.24299300  1
  H  95  1  0.41721500  0.32081700  0.36773800  1
  H  96  1  0.32081200  0.35502100  0.37803800  1
  H  107  1  0.55260000  0.42032600  0.18921400  1
  H  108  1  0.54221000  0.42845900  0.13639100  1
  H  110  1  0.81096500  0.14079500  0.11972500  1
  H  111  1  0.82136000  0.18225500  0.15033100  1
  H  112  1  0.72845000  0.14050200  0.14738600  1
  H  114  1  0.76307400  0.16445200  0.20081900  1
  H  115  1  0.84328600  0.14825200  0.22758700  1
  H  116  1  0.74576300  0.11097300  0.22389000  1
  H  118  1  0.46583500  0.44902100  0.23809900  1
  H  120  1  0.10540200  0.00561500  0.11593500  1
  H  131  1  0.09050300  0.06591900  0.85585300  1
  H  132  1  0.08361500  0.05662600  0.80303200  1
  H  134  1  0.39075100  0.32054100  0.78871300  1
  H  135  1  0.31648200  0.31255400  0.81853700  1
  H  136  1  0.42187000  0.28205900  0.81908700  1
  H  138  1  0.36518300  0.29620600  0.87088100  1
  H  139  1  0.34313100  0.34841600  0.89447700  1
  H  140  1  0.44810100  0.31797900  0.89531500  1
  H  142  1  0.09066900  0.00841900  0.90468600  1
  H  144  1  0.54775600  0.45126900  0.76386600  1
  H  155  1  0.35335600  0.51214100  0.52254700  1
  H  156  1  0.37074600  0.51327300  0.46972500  1
  H  158  1  0.32122400  0.03482600  0.45539700  1
  H  159  1  0.37038600  0.00167700  0.48521000  1
  H  160  1  0.36346600  0.06962000  0.48576200  1
  H  162  1  0.37063900  0.03419900  0.53755900  1
  H  163  1  0.80330200  0.49707700  0.56114500  1
  H  164  1  0.29656900  0.06477600  0.56200900  1
  H  166  1  0.43977500  0.54117900  0.57143200  1
  H  168  1  0.04698000  0.04777700  0.43064100  1
  H  179  1  0.43487300  0.06983500  0.99101600  1
  H  180  1  0.59341700  0.06202900  0.99188800  1
  H  182  1  0.14664200  0.30430300  0.01059900  1
  H  183  1  0.05757800  0.27242500  0.99317700  1
  H  184  1  0.05750500  0.28126700  0.03214200  1
  H  186  1  0.90153800  0.27250400  0.01294500  1
  H  187  1  0.82738800  0.30768400  0.99068900  1
  H  188  1  0.82790300  0.31637300  0.02953000  1
  H  190  1  0.29369300  0.01876600  0.98067200  1
  H  192  1  0.20746000  0.46850100  0.01913700  1
  H  203  1  0.67512300  0.18117300  0.65972600  1
  H  204  1  0.60761100  0.26438700  0.65934200  1
  H  206  1  0.96770900  0.42088800  0.67726200  1
  H  207  1  0.06006100  0.39229300  0.65984100  1
  H  208  1  0.04683200  0.38783900  0.69880700  1
  H  210  1  0.13796400  0.31423600  0.67961100  1
  H  211  1  0.12227000  0.25957000  0.65735600  1
  H  212  1  0.10897900  0.25548400  0.69619700  1
  H  214  1  0.82009500  0.13547100  0.64988800  1
  H  216  1  0.69100900  0.36919700  0.68580300  1
  H  227  1  0.38820200  0.24675200  0.32638700  1
  H  228  1  0.29713100  0.17138800  0.32604200  1
  H  230  1  0.88234700  0.27316200  0.34393800  1
  H  231  1  0.87902900  0.33362900  0.32651200  1
  H  232  1  0.89232500  0.32925300  0.36547800  1
  H  234  1  0.95714400  0.41162400  0.34628000  1
  H  235  1  0.04697000  0.43112400  0.32402000  1
  H  236  1  0.05976200  0.42652800  0.36286400  1
  H  238  1  0.38428800  0.34207100  0.31655000  1
  H  240  1  0.09821700  0.16084900  0.35256900  1
  H  247  1  0.14572600  0.99016200  0.98868900  1
  H  256  1  0.87198500  0.96318400  0.01229300  1
  H  257  1  0.71891500  0.57125800  0.08415800  1
  H  258  1  0.25302800  0.52239900  0.91803600  1
  H  259  1  0.43074600  0.53045100  0.04440400  1
  H  260  1  0.54915300  0.54254400  0.95774800  1
  H  262  1  0.74743100  0.91214200  0.98197600  1
  H  263  1  0.19570700  0.45128000  0.95507700  1
  H  265  1  0.05098200  0.08589900  0.10180500  1
  H  266  1  0.47239000  0.57805200  0.09268000  1
  H  268  1  0.90586600  0.03971700  0.89162500  1
  H  269  1  0.49076000  0.57579200  0.90876300  1
  H  271  1  0.80769300  0.54792400  0.03440800  1
  H  272  1  0.30715500  0.98758100  0.04347300  1
  H  279  1  0.43594500  0.57566600  0.65618100  1
  H  288  1  0.11590500  0.95271600  0.67919800  1
  H  289  1  0.28114600  0.57354800  0.75082400  1
  H  290  1  0.08738000  0.86503800  0.58470300  1
  H  291  1  0.98649000  0.94987900  0.71108600  1
  H  292  1  0.40910200  0.50302600  0.62441400  1
  H  294  1  0.25503200  0.91666900  0.64854800  1
  H  295  1  0.22272100  0.87193600  0.62174600  1
  H  297  1  0.38095600  0.50589400  0.77719400  1
  H  298  1  0.39421600  0.44689100  0.75934700  1
  H  300  1  0.98411300  0.93302200  0.55851900  1
  H  301  1  0.88840700  0.95719700  0.57544700  1
  H  303  1  0.27176200  0.62960600  0.70107600  1
  H  304  1  0.37126500  0.66070600  0.71137600  1
  H  311  1  0.91536000  0.93031100  0.32324800  1
  H  320  1  0.51051100  0.58131700  0.34586000  1
  H  321  1  0.99677500  0.85322800  0.41762600  1
  H  322  1  0.65625300  0.61089500  0.25136700  1
  H  323  1  0.57949100  0.51801700  0.37774200  1
  H  324  1  0.03937100  0.95253600  0.29222500  1
  H  326  1  0.49502400  0.66891100  0.31521700  1
  H  327  1  0.57825400  0.67512400  0.28840800  1
  H  329  1  0.04776700  0.93708200  0.44421600  1
  H  330  1  0.13001500  0.97298800  0.42636100  1
  H  332  1  0.60591600  0.52527800  0.22517400  1
  H  333  1  0.61747000  0.46533500  0.24209900  1
  H  335  1  0.91730100  0.82077900  0.36778900  1
  H  336  1  0.82075300  0.85476500  0.37817000  1
  H  347  1  0.04657200  0.91312900  0.19425600  1
  H  348  1  0.06808400  0.92643400  0.14277900  1
  H  350  1  0.28459800  0.64296200  0.12204500  1
  H  351  1  0.30975500  0.68409000  0.15187000  1
  H  352  1  0.21131700  0.64664300  0.15241900  1
  H  354  1  0.26088300  0.66791300  0.20421500  1
  H  355  1  0.35022400  0.65283300  0.22781000  1
  H  356  1  0.25208200  0.61556700  0.22864900  1
  H  358  1  0.96381500  0.94670200  0.24114700  1
  H  360  1  0.40218900  0.49909200  0.09719800  1
  H  371  1  0.59070100  0.56585600  0.85588000  1
  H  372  1  0.58369800  0.55659900  0.80305600  1
  H  374  1  0.89078900  0.82052300  0.78870800  1
  H  375  1  0.81650100  0.81252800  0.81852800  1
  H  376  1  0.92190300  0.78205200  0.81908700  1
  H  378  1  0.86519700  0.79618700  0.87087700  1
  H  379  1  0.84308200  0.84838800  0.89447200  1
  H  380  1  0.94808000  0.81798400  0.89531500  1
  H  382  1  0.59104700  0.50813000  0.90476500  1
  H  384  1  0.04778100  0.95128600  0.76386400  1
  H  395  1  0.85333800  0.01215700  0.52262600  1
  H  396  1  0.87071900  0.01328100  0.46980000  1
  H  398  1  0.82130200  0.53482900  0.45537900  1
  H  399  1  0.87041900  0.50168400  0.48520400  1
  H  400  1  0.86346700  0.56962500  0.48575300  1
  H  402  1  0.87059100  0.53420900  0.53754800  1
  H  403  1  0.30338000  0.99707100  0.56116500  1
  H  404  1  0.79647000  0.56478100  0.56198200  1
  H  406  1  0.93975500  0.04117700  0.57149600  1
  H  408  1  0.54670700  0.54797000  0.43053500  1
  H  419  1  0.93337000  0.57045500  0.99305800  1
  H  420  1  0.09194600  0.56260600  0.99267600  1
  H  422  1  0.64711200  0.80394500  0.01117400  1
  H  423  1  0.55845600  0.77193900  0.99359800  1
  H  424  1  0.55738900  0.78116500  0.03253400  1
  H  426  1  0.40190700  0.77236000  0.01316300  1
  H  427  1  0.32843200  0.80702200  0.99039300  1
  H  428  1  0.32787500  0.81664600  0.02916400  1
  H  430  1  0.79233100  0.52082400  0.98321900  1
  H  432  1  0.70813600  0.96782200  0.01923400  1
  H  443  1  0.17512400  0.68117600  0.65972400  1
  H  444  1  0.10761100  0.76439200  0.65934200  1
  H  446  1  0.46771300  0.92089000  0.67726200  1
  H  447  1  0.56006200  0.89229500  0.65984100  1
  H  448  1  0.54683500  0.88784100  0.69880700  1
  H  450  1  0.63796400  0.81423700  0.67961100  1
  H  451  1  0.62226900  0.75957100  0.65735600  1
  H  452  1  0.60898000  0.75548300  0.69619700  1
  H  454  1  0.32009200  0.63547500  0.64988600  1
  H  456  1  0.19101900  0.86919800  0.68580500  1
  H  467  1  0.88822200  0.74677800  0.32640600  1
  H  468  1  0.79719000  0.67140000  0.32600000  1
  H  470  1  0.38233700  0.77312400  0.34392700  1
  H  471  1  0.37903000  0.83359900  0.32650800  1
  H  472  1  0.39232900  0.82921000  0.36547300  1
  H  474  1  0.45713900  0.91158800  0.34628000  1
  H  475  1  0.54698100  0.93108300  0.32402500  1
  H  476  1  0.55975300  0.92648400  0.36286600  1
  H  478  1  0.88427500  0.84223600  0.31665400  1
  H  480  1  0.59828400  0.66064500  0.35246300  1
  N  103  1  0.89957100  0.07106900  0.14462100  1
  N  106  1  0.88407600  0.05721000  0.20305600  1
  N  117  1  0.48477700  0.48394000  0.22985200  1
  N  119  1  0.03805500  0.00637100  0.11232800  1
  N  127  1  0.45759700  0.39992900  0.81100700  1
  N  130  1  0.46445700  0.41076400  0.86998700  1
  N  141  1  0.02890900  0.00023700  0.89642100  1
  N  143  1  0.51534200  0.48242600  0.77245300  1
  N  151  1  0.16876400  0.02859700  0.47773200  1
  N  154  1  0.14916100  0.02658700  0.53670900  1
  N  165  1  0.48268300  0.51424800  0.56318500  1
  N  167  1  0.01623800  0.01608600  0.43926100  1
  N  175  1  0.07583100  0.39081400  0.00410900  1
  N  178  1  0.89836000  0.39956900  0.00354700  1
  N  189  1  0.31459300  0.99502500  0.99734700  1
  N  191  1  0.18827000  0.48103800  0.99862500  1
  N  199  1  0.87335200  0.34222600  0.67077500  1
  N  202  1  0.94895800  0.24911400  0.67021400  1
  N  213  1  0.84773800  0.15864900  0.66571300  1
  N  215  1  0.68179700  0.35333400  0.66528900  1
  N  223  1  0.04751800  0.26534700  0.33745500  1
  N  226  1  0.14935700  0.34971300  0.33687400  1
  N  237  1  0.33568100  0.34431400  0.33236900  1
  N  239  1  0.12663500  0.16406400  0.33205100  1
  N  343  1  0.37026200  0.56984300  0.14434000  1
  N  346  1  0.38308400  0.56099600  0.20332000  1
  N  357  1  0.98119300  0.98136500  0.23216700  1
  N  359  1  0.46513200  0.49972300  0.10578700  1
  N  367  1  0.95758900  0.89991500  0.81099900  1
  N  370  1  0.96438300  0.91077700  0.86997900  1
  N  381  1  0.52919400  0.50013900  0.89651600  1
  N  383  1  0.01535600  0.98243900  0.77244800  1
  N  391  1  0.66879700  0.52855900  0.47767400  1
  N  394  1  0.64911500  0.52656700  0.53665400  1
  N  405  1  0.98268100  0.01425800  0.56324200  1
  N  407  1  0.51618700  0.51618200  0.43912200  1
  N  415  1  0.57660800  0.89042900  0.00422400  1
  N  418  1  0.39919100  0.89919300  0.00272300  1
  N  429  1  0.81327500  0.49541000  0.99904200  1
  N  431  1  0.68928200  0.98050000  0.99871300  1
  N  439  1  0.37335200  0.84222800  0.67077500  1
  N  442  1  0.44895800  0.74911700  0.67021400  1
  N  453  1  0.34773900  0.65865300  0.66570900  1
  N  455  1  0.18180200  0.85333500  0.66529100  1
  N  463  1  0.54751700  0.76529800  0.33743500  1
  N  466  1  0.64934500  0.84967200  0.33688700  1
  N  477  1  0.83566100  0.84435400  0.33247500  1
  N  479  1  0.62666200  0.66397900  0.33194700  1
  O  8  1  0.70443300  0.53459600  0.08386300  1
  O  15  1  0.29064800  0.49169400  0.91798800  1
  O  40  1  0.84338900  0.08464600  0.75053500  1
  O  47  1  0.61462500  0.39919800  0.58465400  1
  O  72  1  0.44884800  0.37910000  0.41719800  1
  O  79  1  0.09081600  0.10670300  0.25156400  1
  O  248  1  0.20853700  0.04833700  0.07990900  1
  O  255  1  0.78977400  0.99174900  0.91804500  1
  O  280  1  0.34338400  0.58464000  0.75053100  1
  O  287  1  0.11462400  0.89920000  0.58466100  1
  O  312  1  0.94890200  0.87873400  0.41739400  1
  O  319  1  0.59138600  0.60743900  0.25132100  1
