# generated using pymatgen
data_H22C15N4O
_symmetry_space_group_name_H-M   'P 1'
_cell_length_a   19.52172500
_cell_length_b   19.52170000
_cell_length_c   23.48910000
_cell_angle_alpha   90.00000000
_cell_angle_beta   90.00000000
_cell_angle_gamma   119.99987291
_symmetry_Int_Tables_number   1
_chemical_formula_structural   H22C15N4O
_chemical_formula_sum   'H132 C90 N24 O6'
_cell_volume   7752.35032023
_cell_formula_units_Z   6
loop_
 _symmetry_equiv_pos_site_id
 _symmetry_equiv_pos_as_xyz
  1  'x, y, z'
loop_
 _atom_site_type_symbol
 _atom_site_label
 _atom_site_symmetry_multiplicity
 _atom_site_fract_x
 _atom_site_fract_y
 _atom_site_fract_z
 _atom_site_occupancy
  C  1  1  0.59199100  0.60899000  0.96793800  1
  C  2  1  0.57113850  0.53454850  0.93054150  1
  C  3  1  0.66389750  0.62693550  0.00716400  1
  C  4  1  0.64501350  0.55462750  0.04639500  1
  C  7  1  0.62333550  0.48112750  0.00724900  1
  C  8  1  0.55025650  0.46013050  0.96797500  1
  C  13  1  0.47831900  0.44221500  0.00715500  1
  C  14  1  0.49716600  0.51454300  0.04634800  1
  C  17  1  0.57107550  0.53459750  0.08412300  1
  C  20  1  0.51888000  0.58802100  0.00716800  1
  C  23  1  0.61060700  0.68230700  0.92977300  1
  C  26  1  0.42387650  0.49640650  0.08410400  1
  C  29  1  0.71827050  0.57278650  0.08419500  1
  C  32  1  0.53167800  0.38679200  0.92984800  1
  C  35  1  0.12452700  0.51351200  0.30114100  1
  C  36  1  0.07096250  0.53442150  0.26376600  1
  C  37  1  0.07054050  0.44160250  0.34035500  1
  C  38  1  0.01715000  0.46051000  0.37960500  1
  C  41  1  0.96535250  0.48224650  0.34047800  1
  C  42  1  0.01746650  0.55533550  0.30121900  1
  C  47  1  0.07152200  0.62723900  0.34041400  1
  C  48  1  0.12497900  0.60833100  0.37958800  1
  C  51  1  0.07109750  0.53441950  0.41734600  1
  C  54  1  0.17670700  0.58659500  0.34038200  1
  C  57  1  0.17917900  0.49486000  0.26295100  1
  C  60  1  0.18016150  0.68158850  0.41735900  1
  C  63  1  0.96203600  0.38724400  0.41739500  1
  C  66  1  0.96275250  0.57399850  0.26310800  1
  C  69  1  0.49664500  0.98095600  0.63453500  1
  C  70  1  0.57108600  0.03451500  0.59712900  1
  C  71  1  0.47872700  0.03495100  0.67374200  1
  C  72  1  0.55104650  0.08838450  0.71296300  1
  C  75  1  0.62454900  0.14017200  0.67380500  1
  C  76  1  0.64551700  0.08805100  0.63455200  1
  C  81  1  0.66341750  0.03403650  0.67374900  1
  C  82  1  0.59108800  0.98058700  0.71295400  1
  C  85  1  0.57105850  0.03447550  0.75070700  1
  C  88  1  0.51760100  0.92881900  0.67378000  1
  C  91  1  0.42332350  0.92626050  0.59637300  1
  C  94  1  0.60922100  0.92544500  0.75072600  1
  C  97  1  0.53291200  0.14351800  0.75074200  1
  C  100  1  0.71886100  0.14276700  0.59641500  1
  C  103  1  0.44825650  0.28708950  0.80394200  1
  C  104  1  0.43876850  0.28436450  0.86454400  1
  C  105  1  0.42001450  0.21280850  0.89284700  1
  C  107  1  0.43828850  0.15852850  0.80832100  1
  C  109  1  0.46560250  0.35394650  0.76260700  1
  C  110  1  0.47418250  0.33273850  0.69909000  1
  C  114  1  0.54613800  0.42901600  0.77777600  1
  C  118  1  0.39616850  0.37236650  0.76172600  1
  C  128  1  0.94653450  0.65755850  0.13728800  1
  C  129  1  0.95338850  0.66711650  0.19788200  1
  C  130  1  0.90053700  0.68576200  0.22623100  1
  C  132  1  0.82790900  0.66746500  0.14173900  1
  C  134  1  0.99601750  0.64022450  0.09592000  1
  C  135  1  0.96621550  0.63170750  0.03241200  1
  C  139  1  0.99051250  0.55966050  0.11104800  1
  C  143  1  0.08388250  0.70963050  0.09504700  1
  C  153  1  0.81851200  0.15901300  0.47053200  1
  C  154  1  0.82127100  0.15213500  0.53111800  1
  C  155  1  0.89279500  0.20496900  0.55944800  1
  C  157  1  0.94708150  0.27759750  0.47493600  1
  C  159  1  0.75163900  0.10956900  0.42919000  1
  C  160  1  0.77286650  0.13939350  0.36567900  1
  C  164  1  0.67662500  0.11511400  0.44438800  1
  C  168  1  0.73313700  0.02169200  0.42827200  1
  C  178  1  0.69402300  0.78194200  0.80388100  1
  C  179  1  0.70363200  0.78470800  0.86447200  1
  C  180  1  0.72231100  0.85623700  0.89279100  1
  C  182  1  0.70390650  0.91047550  0.80828400  1
  C  184  1  0.67657800  0.71504900  0.76255300  1
  C  185  1  0.66794500  0.73624900  0.69904500  1
  C  189  1  0.59603950  0.64001550  0.77777100  1
  C  193  1  0.74597250  0.69657650  0.76163200  1
  C  203  1  0.19553600  0.41160300  0.13714300  1
  C  204  1  0.18846900  0.40172000  0.19770800  1
  C  205  1  0.24132500  0.38306900  0.22604800  1
  C  207  1  0.31418250  0.40174750  0.14161600  1
  C  209  1  0.14597250  0.42883550  0.09578400  1
  C  210  1  0.17586700  0.43752800  0.03228800  1
  C  214  1  0.15123200  0.50927000  0.11096900  1
  C  218  1  0.05818650  0.35927550  0.09485300  1
  C  228  1  0.32374750  0.90987050  0.47051900  1
  C  229  1  0.32090800  0.91691300  0.53108600  1
  C  230  1  0.24939050  0.86403650  0.55941000  1
  C  232  1  0.19523650  0.79123550  0.47494900  1
  C  234  1  0.39056850  0.95942650  0.42917500  1
  C  235  1  0.36939650  0.92954750  0.36567500  1
  C  239  1  0.46571300  0.95412300  0.44438600  1
  C  243  1  0.40883250  0.04722850  0.42824000  1
  H  5  1  0.67855150  0.67915450  0.03298800  1
  H  6  1  0.71602050  0.64116650  0.98136000  1
  H  9  1  0.67407650  0.49299650  0.98051400  1
  H  10  1  0.61085350  0.43022850  0.03400800  1
  H  11  1  0.62103150  0.54664550  0.90296200  1
  H  12  1  0.52126200  0.52243400  0.90293600  1
  H  15  1  0.46364450  0.39000850  0.03300500  1
  H  16  1  0.42621850  0.42796350  0.98132200  1
  H  18  1  0.55802350  0.48448950  0.11182700  1
  H  19  1  0.58410200  0.58472400  0.11180000  1
  H  21  1  0.46816100  0.57613400  0.98040100  1
  H  22  1  0.53133900  0.63893600  0.03390200  1
  H  24  1  0.60888900  0.72684500  0.95697800  1
  H  25  1  0.56333900  0.66495600  0.89840600  1
  H  27  1  0.38149050  0.50152250  0.05650800  1
  H  28  1  0.44158400  0.54188500  0.11708100  1
  H  30  1  0.76068450  0.56767450  0.05663100  1
  H  31  1  0.70053800  0.52730900  0.11717800  1
  H  33  1  0.57895900  0.40413700  0.89849200  1
  H  34  1  0.53339750  0.34227950  0.95708100  1
  H  39  1  0.10808850  0.42690950  0.36616400  1
  H  40  1  0.03261950  0.38949750  0.31454900  1
  H  43  1  0.92645950  0.43152650  0.31373600  1
  H  44  1  0.92696350  0.49474650  0.36725000  1
  H  45  1  0.03313900  0.48454400  0.23618100  1
  H  46  1  0.10874000  0.58429700  0.23616600  1
  H  49  1  0.03401850  0.64193450  0.36628200  1
  H  50  1  0.10940050  0.67934850  0.31459800  1
  H  52  1  0.03406100  0.54748400  0.44506300  1
  H  53  1  0.10818150  0.52135250  0.44501000  1
  H  55  1  0.21555400  0.63731800  0.31362500  1
  H  56  1  0.21514550  0.57409550  0.36710100  1
  H  58  1  0.22546700  0.49659600  0.29012900  1
  H  59  1  0.20906100  0.54209600  0.23155500  1
  H  61  1  0.22765650  0.72398650  0.38976700  1
  H  62  1  0.20793450  0.66384550  0.45031000  1
  H  64  1  0.91450750  0.34484250  0.38982700  1
  H  65  1  0.93430200  0.40497700  0.45038200  1
  H  67  1  0.93281250  0.52676250  0.23171700  1
  H  68  1  0.91651350  0.57226350  0.29034000  1
  H  73  1  0.42650900  0.99740900  0.69957500  1
  H  74  1  0.46450750  0.07284350  0.64793300  1
  H  77  1  0.61269100  0.17904000  0.64706000  1
  H  78  1  0.67545350  0.17858950  0.70056100  1
  H  79  1  0.55900050  0.07231650  0.56954400  1
  H  80  1  0.58318100  0.99673200  0.56953100  1
  H  83  1  0.71562950  0.07156650  0.69959200  1
  H  84  1  0.67764700  0.99615600  0.64793000  1
  H  86  1  0.62117300  0.07153700  0.77840500  1
  H  87  1  0.52093200  0.99739900  0.77839300  1
  H  89  1  0.52947050  0.88996250  0.64702600  1
  H  90  1  0.46668600  0.89038500  0.70052000  1
  H  92  1  0.37878300  0.88000500  0.62357700  1
  H  93  1  0.44066300  0.89634500  0.56499700  1
  H  95  1  0.60411800  0.87793400  0.72314700  1
  H  96  1  0.56373900  0.89768000  0.78370200  1
  H  98  1  0.53802650  0.19103650  0.72316700  1
  H  99  1  0.57839200  0.17126600  0.78372000  1
  H  101  1  0.70154050  0.17271450  0.56505000  1
  H  102  1  0.76339450  0.18899350  0.62363600  1
  H  111  1  0.52345650  0.32147850  0.69482200  1
  H  112  1  0.48518800  0.38073000  0.66982000  1
  H  113  1  0.42036650  0.27994450  0.68484800  1
  H  115  1  0.59193300  0.41343100  0.78521400  1
  H  116  1  0.54129100  0.45845700  0.81545700  1
  H  117  1  0.56652450  0.47219850  0.74330900  1
  H  119  1  0.34060300  0.31933300  0.75056800  1
  H  120  1  0.40724950  0.41814450  0.73037600  1
  H  121  1  0.38756950  0.39351850  0.80234500  1
  H  123  1  0.41371600  0.10654600  0.88602200  1
  H  125  1  0.44330750  0.38895550  0.88094700  1
  H  127  1  0.44675400  0.06025400  0.80383200  1
  H  136  1  0.90568050  0.58244650  0.02813300  1
  H  137  1  0.00319300  0.62072100  0.00311600  1
  H  138  1  0.96725000  0.68554100  0.01820700  1
  H  140  1  0.92913250  0.51388550  0.11850000  1
  H  141  1  0.02482850  0.56447750  0.14870600  1
  H  142  1  0.01326300  0.53927400  0.07654900  1
  H  144  1  0.08644000  0.76521600  0.08391800  1
  H  145  1  0.11856150  0.69855250  0.06367900  1
  H  146  1  0.11363500  0.71818500  0.13566000  1
  H  148  1  0.80052400  0.69197800  0.21946900  1
  H  150  1  0.05335950  0.66242750  0.21427700  1
  H  152  1  0.72112550  0.65891150  0.13730100  1
  H  161  1  0.78416900  0.19994300  0.36143500  1
  H  162  1  0.72486150  0.10244850  0.33640600  1
  H  163  1  0.82563350  0.13833250  0.35142800  1
  H  165  1  0.69227250  0.17650050  0.45187400  1
  H  166  1  0.64715550  0.08078550  0.48204600  1
  H  167  1  0.63345100  0.09241100  0.40991200  1
  H  169  1  0.78614150  0.01910750  0.41710300  1
  H  170  1  0.68734700  0.98704400  0.39691500  1
  H  171  1  0.71195850  0.99191850  0.46888000  1
  H  173  1  0.99905150  0.30493550  0.55264000  1
  H  175  1  0.71662650  0.05216350  0.54754000  1
  H  177  1  0.04531800  0.38436900  0.47048100  1
  H  186  1  0.61868150  0.74752650  0.69480500  1
  H  187  1  0.65689650  0.68824050  0.66977600  1
  H  188  1  0.72175850  0.78902350  0.68478000  1
  H  190  1  0.55028050  0.65563750  0.78525100  1
  H  191  1  0.60092450  0.61057250  0.81543600  1
  H  192  1  0.57558550  0.59682050  0.74330600  1
  H  194  1  0.80154300  0.74958400  0.75043600  1
  H  195  1  0.73482650  0.65076850  0.73029000  1
  H  196  1  0.75460050  0.67544050  0.80224800  1
  H  198  1  0.72853700  0.96246200  0.88598300  1
  H  200  1  0.69899650  0.68008650  0.88091400  1
  H  202  1  0.69535600  0.00870500  0.80383100  1
  H  211  1  0.23636000  0.48688800  0.02806700  1
  H  212  1  0.13884900  0.44845600  0.00299500  1
  H  213  1  0.17498500  0.38378400  0.01804100  1
  H  215  1  0.21256250  0.55515550  0.11845200  1
  H  216  1  0.11685350  0.50431150  0.14862100  1
  H  217  1  0.12840750  0.52960150  0.07648300  1
  H  219  1  0.05579300  0.30378200  0.08367200  1
  H  220  1  0.02344850  0.37029550  0.06349800  1
  H  221  1  0.02839650  0.35058350  0.13546600  1
  H  223  1  0.34138550  0.37693850  0.21930900  1
  H  225  1  0.08849500  0.40639400  0.21415600  1
  H  227  1  0.42095100  0.41026300  0.13722400  1
  H  236  1  0.35824250  0.86904650  0.36145200  1
  H  237  1  0.41736600  0.96655800  0.33639600  1
  H  238  1  0.31655500  0.93045700  0.35140900  1
  H  240  1  0.45023450  0.89278450  0.45187000  1
  H  241  1  0.49511200  0.98848900  0.48204600  1
  H  242  1  0.50889000  0.97693200  0.40991400  1
  H  244  1  0.35574700  0.04964300  0.41705600  1
  H  245  1  0.45459550  0.08195050  0.39688500  1
  H  246  1  0.42993900  0.07702000  0.46884800  1
  H  248  1  0.14318500  0.76401300  0.55263200  1
  H  250  1  0.42552300  0.01690700  0.54754400  1
  H  252  1  0.09696150  0.68449250  0.47051900  1
  N  106  1  0.42161900  0.15280300  0.86480300  1
  N  108  1  0.44785550  0.22332950  0.78055100  1
  N  124  1  0.45312100  0.34852700  0.90065900  1
  N  126  1  0.45260550  0.10464550  0.77741900  1
  N  131  1  0.83888850  0.68412450  0.19822300  1
  N  133  1  0.88313950  0.65792750  0.11393700  1
  N  149  1  0.00310250  0.65259450  0.23397300  1
  N  151  1  0.75967150  0.65309550  0.11086700  1
  N  156  1  0.95275100  0.26665700  0.53142600  1
  N  158  1  0.88227150  0.22238750  0.44716200  1
  N  174  1  0.75707350  0.10241250  0.56723400  1
  N  176  1  0.00093850  0.34582850  0.44405600  1
  N  181  1  0.72058250  0.91618950  0.86476500  1
  N  183  1  0.69432850  0.84566850  0.78051500  1
  N  199  1  0.68917550  0.72052550  0.90059900  1
  N  201  1  0.68952200  0.96432900  0.77740600  1
  N  206  1  0.30306400  0.38485500  0.19806300  1
  N  208  1  0.25897850  0.41131850  0.11380500  1
  N  224  1  0.13879150  0.41626250  0.23381800  1
  N  226  1  0.38243650  0.41609950  0.11077400  1
  N  231  1  0.18946350  0.80229950  0.53140500  1
  N  233  1  0.26002350  0.84644950  0.44716200  1
  N  249  1  0.38509950  0.96661450  0.56720900  1
  N  251  1  0.14132100  0.72302600  0.44407700  1
  O  122  1  0.40521150  0.20436650  0.94956200  1
  O  147  1  0.90692550  0.70053550  0.28295400  1
  O  172  1  0.90124950  0.19854150  0.61615200  1
  O  197  1  0.73716750  0.86469350  0.94949900  1
  O  222  1  0.23482700  0.36811400  0.28274300  1
  O  247  1  0.24089900  0.87054000  0.61610100  1
