# generated using pymatgen
data_H16C41N12
_symmetry_space_group_name_H-M   'P 1'
_cell_length_a   32.59150000
_cell_length_b   39.71700000
_cell_length_c   61.46890000
_cell_angle_alpha   90.00000000
_cell_angle_beta   90.00000000
_cell_angle_gamma   90.00220000
_symmetry_Int_Tables_number   1
_chemical_formula_structural   H16C41N12
_chemical_formula_sum   'H128 C328 N96'
_cell_volume   79567.59420116
_cell_formula_units_Z   8
loop_
 _symmetry_equiv_pos_site_id
 _symmetry_equiv_pos_as_xyz
  1  'x, y, z'
loop_
 _atom_site_type_symbol
 _atom_site_label
 _atom_site_symmetry_multiplicity
 _atom_site_fract_x
 _atom_site_fract_y
 _atom_site_fract_z
 _atom_site_occupancy
  H  25  1  0.36598900  0.02281300  0.17483200  1
  H  26  1  0.29411600  0.01619400  0.18001800  1
  H  27  1  0.21978800  0.01635000  0.17974500  1
  H  28  1  0.14816800  0.02318800  0.17395800  1
  H  29  1  0.16925800  0.12036700  0.14745000  1
  H  30  1  0.34618200  0.12001200  0.14809700  1
  H  31  1  0.25793200  0.13891800  0.19816400  1
  H  32  1  0.25797200  0.24293700  0.18235700  1
  H  33  1  0.25766400  0.22929600  0.14470500  1
  H  34  1  0.25776600  0.08361800  0.11077600  1
  H  35  1  0.25757300  0.20621200  0.10813800  1
  H  36  1  0.25764700  0.17518700  0.07517700  1
  H  42  1  0.41821200  0.09721600  0.15482700  1
  H  43  1  0.09758600  0.09728700  0.15113900  1
  H  44  1  0.25775600  0.08311200  0.06958400  1
  H  45  1  0.25972300  0.18297800  0.22756600  1
  H  70  1  0.14936500  0.02213300  0.83951400  1
  H  71  1  0.22122300  0.01567500  0.83409200  1
  H  72  1  0.29564600  0.01578200  0.83444700  1
  H  73  1  0.36723500  0.02247900  0.84045100  1
  H  74  1  0.34603400  0.11931600  0.86743700  1
  H  75  1  0.16928200  0.11893700  0.86680600  1
  H  76  1  0.25743600  0.13882400  0.81679700  1
  H  77  1  0.25739300  0.24253700  0.83336100  1
  H  78  1  0.25770300  0.22819900  0.87095600  1
  H  79  1  0.25765800  0.08161700  0.90338900  1
  H  80  1  0.25779700  0.20410100  0.90757500  1
  H  81  1  0.25774900  0.17200100  0.94023500  1
  H  87  1  0.09724900  0.09611700  0.86020800  1
  H  88  1  0.41768700  0.09622300  0.86381100  1
  H  89  1  0.25766000  0.07967200  0.94425200  1
  H  90  1  0.25575600  0.18321800  0.78775600  1
  H  115  1  0.86738400  0.02690700  0.84149200  1
  H  116  1  0.79581000  0.03379000  0.83561100  1
  H  117  1  0.72145600  0.03397600  0.83516600  1
  H  118  1  0.64952900  0.02738300  0.84021400  1
  H  119  1  0.66912300  0.93025900  0.86710000  1
  H  120  1  0.84605800  0.92980300  0.86807300  1
  H  121  1  0.75869100  0.91133300  0.81723300  1
  H  122  1  0.75707200  0.80731400  0.83302000  1
  H  123  1  0.75619200  0.82094800  0.87067000  1
  H  124  1  0.75782200  0.96660100  0.90462800  1
  H  125  1  0.75573300  0.84401600  0.90724000  1
  H  126  1  0.75581100  0.87502800  0.94020700  1
  H  132  1  0.91781700  0.95283400  0.86442400  1
  H  133  1  0.59717300  0.95306000  0.86023200  1
  H  134  1  0.75711100  0.96709200  0.94582000  1
  H  135  1  0.76041400  0.86726600  0.78783100  1
  H  160  1  0.64799500  0.02764000  0.17479600  1
  H  161  1  0.71953000  0.03433900  0.18096000  1
  H  162  1  0.79394200  0.03461200  0.18128000  1
  H  163  1  0.86582800  0.02822900  0.17592200  1
  H  164  1  0.84614700  0.93134900  0.14870100  1
  H  165  1  0.66942300  0.93086600  0.14776100  1
  H  166  1  0.75674000  0.91137800  0.19858800  1
  H  167  1  0.75825400  0.80766900  0.18203200  1
  H  168  1  0.75908300  0.82201100  0.14443900  1
  H  169  1  0.75762300  0.96858500  0.11200100  1
  H  170  1  0.75942100  0.84611100  0.10782000  1
  H  171  1  0.75931900  0.87820800  0.07515900  1
  H  177  1  0.59771300  0.95394700  0.15128600  1
  H  178  1  0.91809100  0.95421900  0.15529900  1
  H  179  1  0.75806200  0.97053200  0.07113900  1
  H  180  1  0.75511800  0.86697600  0.22762100  1
  H  205  1  0.86585100  0.52280100  0.67512500  1
  H  206  1  0.79392100  0.51619000  0.68014200  1
  H  207  1  0.71958600  0.51638100  0.67970200  1
  H  208  1  0.64801200  0.52328200  0.67383500  1
  H  209  1  0.66933200  0.62043500  0.64732900  1
  H  210  1  0.84627400  0.61999100  0.64833600  1
  H  211  1  0.75671200  0.63892300  0.69818900  1
  H  212  1  0.75838000  0.74293600  0.68238800  1
  H  213  1  0.75925000  0.72929200  0.64473900  1
  H  214  1  0.75753800  0.58362700  0.61080000  1
  H  215  1  0.75967600  0.70620900  0.60817300  1
  H  216  1  0.75957000  0.67518900  0.57521000  1
  H  222  1  0.91821800  0.59717000  0.65517200  1
  H  223  1  0.59758200  0.59738100  0.65093400  1
  H  224  1  0.75823700  0.58312600  0.56960900  1
  H  225  1  0.75497400  0.68300000  0.72758300  1
  H  250  1  0.64954900  0.52203100  0.33940400  1
  H  251  1  0.72144200  0.51563800  0.33405800  1
  H  252  1  0.79586600  0.51589500  0.33439400  1
  H  253  1  0.86741300  0.52260500  0.34053800  1
  H  254  1  0.84598200  0.61934200  0.36763000  1
  H  255  1  0.66924000  0.61885300  0.36670300  1
  H  256  1  0.75869400  0.63880000  0.31683200  1
  H  257  1  0.75718600  0.74251300  0.33337700  1
  H  258  1  0.75633200  0.72818400  0.37097000  1
  H  259  1  0.75774600  0.58161700  0.40342700  1
  H  260  1  0.75596300  0.70409400  0.40759200  1
  H  261  1  0.75604400  0.67200700  0.44025700  1
  H  267  1  0.59728800  0.59601200  0.36002800  1
  H  268  1  0.91771500  0.59630400  0.36401000  1
  H  269  1  0.75728000  0.57968400  0.44428800  1
  H  270  1  0.76034700  0.68319600  0.28779300  1
  H  295  1  0.36724300  0.52701900  0.34139900  1
  H  296  1  0.29562100  0.53389000  0.33565400  1
  H  297  1  0.22128400  0.53402600  0.33535300  1
  H  298  1  0.14940100  0.52737900  0.34049700  1
  H  299  1  0.16921500  0.43018900  0.36724600  1
  H  300  1  0.34615300  0.42982600  0.36788200  1
  H  301  1  0.25746100  0.41131300  0.31720300  1
  H  302  1  0.25746900  0.30728900  0.33300100  1
  H  303  1  0.25778300  0.32092300  0.37065400  1
  H  304  1  0.25763000  0.46659400  0.40459500  1
  H  305  1  0.25785200  0.34399900  0.40722200  1
  H  306  1  0.25777300  0.37501600  0.44018700  1
  H  312  1  0.41783200  0.45289400  0.36417400  1
  H  313  1  0.09718500  0.45298500  0.36052100  1
  H  314  1  0.25764800  0.46709000  0.44578700  1
  H  315  1  0.25564900  0.36725600  0.28779800  1
  H  340  1  0.14814700  0.52769600  0.67502000  1
  H  341  1  0.21974900  0.53440300  0.68100000  1
  H  342  1  0.29418500  0.53454400  0.68129400  1
  H  343  1  0.36604300  0.52807600  0.67588000  1
  H  344  1  0.34611600  0.43128100  0.64857900  1
  H  345  1  0.16934300  0.43090600  0.64796000  1
  H  346  1  0.25795800  0.41143100  0.69857000  1
  H  347  1  0.25800000  0.30771200  0.68202100  1
  H  348  1  0.25768700  0.32203600  0.64442500  1
  H  349  1  0.25775600  0.46860300  0.61196800  1
  H  350  1  0.25759700  0.34611600  0.60780300  1
  H  351  1  0.25766000  0.37820600  0.57513700  1
  H  357  1  0.09767900  0.45396900  0.65167100  1
  H  358  1  0.41815800  0.45408300  0.65522300  1
  H  359  1  0.25776800  0.47053400  0.57110800  1
  H  360  1  0.25965700  0.36704400  0.72761900  1
  C  1  1  0.25772800  0.12807000  0.12963500  1
  C  2  1  0.25764900  0.16324800  0.12862000  1
  C  3  1  0.25759800  0.17640000  0.14947500  1
  C  4  1  0.25763700  0.15004900  0.16457100  1
  C  5  1  0.25779900  0.15813700  0.18709800  1
  C  6  1  0.25789000  0.19237700  0.19431600  1
  C  7  1  0.25779400  0.21800500  0.17817000  1
  C  8  1  0.25763300  0.21030700  0.15591000  1
  C  9  1  0.25763300  0.18051300  0.10872800  1
  C  10  1  0.25767500  0.16184200  0.08938900  1
  C  11  1  0.25773400  0.12598700  0.08941100  1
  C  12  1  0.25775600  0.10933300  0.10997400  1
  C  13  1  0.29290100  0.09446500  0.15858200  1
  C  14  1  0.27847300  0.06434500  0.16757100  1
  C  15  1  0.23605000  0.06444700  0.16744600  1
  C  16  1  0.22203300  0.09466900  0.15843200  1
  C  17  1  0.20914800  0.03846900  0.17341900  1
  C  18  1  0.16703500  0.04272500  0.16975100  1
  C  19  1  0.15120100  0.07246000  0.15996400  1
  C  20  1  0.17937300  0.09872000  0.15468800  1
  C  21  1  0.33569000  0.09838900  0.15521300  1
  C  22  1  0.36350300  0.07197800  0.16068600  1
  C  23  1  0.34728000  0.04232000  0.17037100  1
  C  24  1  0.30504800  0.03823600  0.17371900  1
  C  37  1  0.25760500  0.11687500  0.15286300  1
  C  38  1  0.10921500  0.07521100  0.15547300  1
  C  39  1  0.40569500  0.07467300  0.15693800  1
  C  40  1  0.25774400  0.10811700  0.06969900  1
  C  41  1  0.25843500  0.20109200  0.21648500  1
  C  46  1  0.25766700  0.12663400  0.88513900  1
  C  47  1  0.25773300  0.16177800  0.88654800  1
  C  48  1  0.25776000  0.17540600  0.86579300  1
  C  49  1  0.25772400  0.14937000  0.85046100  1
  C  50  1  0.25755900  0.15785200  0.82800100  1
  C  51  1  0.25746300  0.19220800  0.82103800  1
  C  52  1  0.25756100  0.21753800  0.83738000  1
  C  53  1  0.25772000  0.20942700  0.85959800  1
  C  54  1  0.25775100  0.17841900  0.90667800  1
  C  55  1  0.25772500  0.15916000  0.92580800  1
  C  56  1  0.25768100  0.12331700  0.92529300  1
  C  57  1  0.25766000  0.10730400  0.90453600  1
  C  58  1  0.22248700  0.09363300  0.85597900  1
  C  59  1  0.23691200  0.06362900  0.84683300  1
  C  60  1  0.27934400  0.06376800  0.84690300  1
  C  61  1  0.29335200  0.09386300  0.85610100  1
  C  62  1  0.30627500  0.03785600  0.84084300  1
  C  63  1  0.34836300  0.04201100  0.84466000  1
  C  64  1  0.36414100  0.07158100  0.85467800  1
  C  65  1  0.33597600  0.09782200  0.85998800  1
  C  66  1  0.17973000  0.09745100  0.85950300  1
  C  67  1  0.15192400  0.07107100  0.85397000  1
  C  68  1  0.16809600  0.04159400  0.84403700  1
  C  69  1  0.21031100  0.03760100  0.84056300  1
  C  82  1  0.25777900  0.11595000  0.86183600  1
  C  83  1  0.40605100  0.07419100  0.85938800  1
  C  84  1  0.10979300  0.07362400  0.85793200  1
  C  85  1  0.25767900  0.10465000  0.94466800  1
  C  86  1  0.25693800  0.20122300  0.79891300  1
  C  91  1  0.75725900  0.92216200  0.88576000  1
  C  92  1  0.75670200  0.88698500  0.88676700  1
  C  93  1  0.75690700  0.87384200  0.86591000  1
  C  94  1  0.75762000  0.90019600  0.85082100  1
  C  95  1  0.75811000  0.89211400  0.82829400  1
  C  96  1  0.75788800  0.85787700  0.82106900  1
  C  97  1  0.75714700  0.83224600  0.83720900  1
  C  98  1  0.75664400  0.83994000  0.85946900  1
  C  99  1  0.75614600  0.86971600  0.90665500  1
  C  100  1  0.75622000  0.88837800  0.92599900  1
  C  101  1  0.75689700  0.92422600  0.92598400  1
  C  102  1  0.75734600  0.94088700  0.90542600  1
  C  103  1  0.79335600  0.95556300  0.85706000  1
  C  104  1  0.77942700  0.98573700  0.84793000  1
  C  105  1  0.73700800  0.98591300  0.84778500  1
  C  106  1  0.72249700  0.95581200  0.85675700  1
  C  107  1  0.71048000  0.01198900  0.84152000  1
  C  108  1  0.66821700  0.00790900  0.84476600  1
  C  109  1  0.65191800  0.97828400  0.85445500  1
  C  110  1  0.67968200  0.95189500  0.86002500  1
  C  111  1  0.83600800  0.95143400  0.86079300  1
  C  112  1  0.86423700  0.97766500  0.85552700  1
  C  113  1  0.84848000  0.00739200  0.84569600  1
  C  114  1  0.80638900  0.01168500  0.84198500  1
  C  127  1  0.75772000  0.93336600  0.86253600  1
  C  128  1  0.60970400  0.97559700  0.85812800  1
  C  129  1  0.90620800  0.97490200  0.86005800  1
  C  130  1  0.75713400  0.94208500  0.94570000  1
  C  131  1  0.75870400  0.84916000  0.79890200  1
  C  136  1  0.75811800  0.92357200  0.13025300  1
  C  137  1  0.75860700  0.88843100  0.12884500  1
  C  138  1  0.75841000  0.87480200  0.14959900  1
  C  139  1  0.75774900  0.90083300  0.16492900  1
  C  140  1  0.75728500  0.89235100  0.18738700  1
  C  141  1  0.75749200  0.85799500  0.19435200  1
  C  142  1  0.75819000  0.83266900  0.17801200  1
  C  143  1  0.75866000  0.84078100  0.15579600  1
  C  144  1  0.75908200  0.87179000  0.10871500  1
  C  145  1  0.75900300  0.89104900  0.08958600  1
  C  146  1  0.75843400  0.92688800  0.09010000  1
  C  147  1  0.75804500  0.94290100  0.11085600  1
  C  148  1  0.72202700  0.95633100  0.15919300  1
  C  149  1  0.73594600  0.98641400  0.16844900  1
  C  150  1  0.77838100  0.98654200  0.16867900  1
  C  151  1  0.79288300  0.95657800  0.15951400  1
  C  152  1  0.80491600  0.01265700  0.17488000  1
  C  153  1  0.84714700  0.00872100  0.17142800  1
  C  154  1  0.86340000  0.97923300  0.16154600  1
  C  155  1  0.83565200  0.95282400  0.15600000  1
  C  156  1  0.67943000  0.95236800  0.15522000  1
  C  157  1  0.65121200  0.97858100  0.16051300  1
  C  158  1  0.66690400  0.00812900  0.17059500  1
  C  159  1  0.70896100  0.01229300  0.17449500  1
  C  172  1  0.75766400  0.93425500  0.15355400  1
  C  173  1  0.90553900  0.97670300  0.15760600  1
  C  174  1  0.60932400  0.97597300  0.15573800  1
  C  175  1  0.75821400  0.94555200  0.07072300  1
  C  176  1  0.75670600  0.84897900  0.21647200  1
  C  181  1  0.75812900  0.62807400  0.62966300  1
  C  182  1  0.75869800  0.66324700  0.62865100  1
  C  183  1  0.75850500  0.67639800  0.64950600  1
  C  184  1  0.75779200  0.65004900  0.66459800  1
  C  185  1  0.75730500  0.65813900  0.68712500  1
  C  186  1  0.75754000  0.69237900  0.69434500  1
  C  187  1  0.75829900  0.71800500  0.67820200  1
  C  188  1  0.75879200  0.71030300  0.65594300  1
  C  189  1  0.75925100  0.68051200  0.60876200  1
  C  190  1  0.75916100  0.66184500  0.58942000  1
  C  191  1  0.75847500  0.62599400  0.58944000  1
  C  192  1  0.75802400  0.60934100  0.61000000  1
  C  193  1  0.79289700  0.59443300  0.65867000  1
  C  194  1  0.77838300  0.56429000  0.66757800  1
  C  195  1  0.73596400  0.56445900  0.66741600  1
  C  196  1  0.72202600  0.59470300  0.65839000  1
  C  197  1  0.70900400  0.53851000  0.67336000  1
  C  198  1  0.66691100  0.54281500  0.66966400  1
  C  199  1  0.65116000  0.57255300  0.65984300  1
  C  200  1  0.67938300  0.59880200  0.65460900  1
  C  201  1  0.83571500  0.59834100  0.65538900  1
  C  202  1  0.86347600  0.57193900  0.66093800  1
  C  203  1  0.84717200  0.54229200  0.67059600  1
  C  204  1  0.80490700  0.53819800  0.67382400  1
  C  217  1  0.75767400  0.61687700  0.65288800  1
  C  218  1  0.60918900  0.57531000  0.65529600  1
  C  219  1  0.90568900  0.57463100  0.65727100  1
  C  220  1  0.75822600  0.60813000  0.56972600  1
  C  221  1  0.75670500  0.70110000  0.71651000  1
  C  226  1  0.75726600  0.62662600  0.38516900  1
  C  227  1  0.75678600  0.66177000  0.38657300  1
  C  228  1  0.75699600  0.67539100  0.36581600  1
  C  229  1  0.75766600  0.64935400  0.35049000  1
  C  230  1  0.75814500  0.65782900  0.32803100  1
  C  231  1  0.75794800  0.69218200  0.32106200  1
  C  232  1  0.75724600  0.71751600  0.33739800  1
  C  233  1  0.75676400  0.70940900  0.35961400  1
  C  234  1  0.75629900  0.67841500  0.40670000  1
  C  235  1  0.75636600  0.65916100  0.42583200  1
  C  236  1  0.75692900  0.62332300  0.42532300  1
  C  237  1  0.75732700  0.60730400  0.40456700  1
  C  238  1  0.72251400  0.59361500  0.35590900  1
  C  239  1  0.73701600  0.56365300  0.34673800  1
  C  240  1  0.77944700  0.56379400  0.34694600  1
  C  241  1  0.79336300  0.59383900  0.35625000  1
  C  242  1  0.80642900  0.53790600  0.34091200  1
  C  243  1  0.84849200  0.54208000  0.34479100  1
  C  244  1  0.86419100  0.57163700  0.35486100  1
  C  245  1  0.83597000  0.59783700  0.36017700  1
  C  246  1  0.67973900  0.59739200  0.35938800  1
  C  247  1  0.65198800  0.57099500  0.35382500  1
  C  248  1  0.66823600  0.54152400  0.34391900  1
  C  249  1  0.71046800  0.53757800  0.34048100  1
  C  262  1  0.75773200  0.61593800  0.36186900  1
  C  263  1  0.90609100  0.57426000  0.35960100  1
  C  264  1  0.60985100  0.57352300  0.35776300  1
  C  265  1  0.75714000  0.60466300  0.44470100  1
  C  266  1  0.75874000  0.70119300  0.29894000  1
  C  271  1  0.25767800  0.42214400  0.38573200  1
  C  272  1  0.25776700  0.38696800  0.38674400  1
  C  273  1  0.25781700  0.37382000  0.36588800  1
  C  274  1  0.25777100  0.40017400  0.35079500  1
  C  275  1  0.25760500  0.39209200  0.32826700  1
  C  276  1  0.25752100  0.35785400  0.32104500  1
  C  277  1  0.25764000  0.33222000  0.33719000  1
  C  278  1  0.25779700  0.33991500  0.35945000  1
  C  279  1  0.25778700  0.36969800  0.40663500  1
  C  280  1  0.25774100  0.38836500  0.42597600  1
  C  281  1  0.25767300  0.42421900  0.42595700  1
  C  282  1  0.25764600  0.44087700  0.40539500  1
  C  283  1  0.29337000  0.45555600  0.35694500  1
  C  284  1  0.27935300  0.48579500  0.34795500  1
  C  285  1  0.23693400  0.48591300  0.34785600  1
  C  286  1  0.22250000  0.45575400  0.35678900  1
  C  287  1  0.21035300  0.51199700  0.34167000  1
  C  288  1  0.16811500  0.50788300  0.34497600  1
  C  289  1  0.15189200  0.47822800  0.35466400  1
  C  290  1  0.17970800  0.45183200  0.36015500  1
  C  291  1  0.33604100  0.45146200  0.36063300  1
  C  292  1  0.36421200  0.47773200  0.35537000  1
  C  293  1  0.34837800  0.50747800  0.34559600  1
  C  294  1  0.30626300  0.51174300  0.34193900  1
  C  307  1  0.25779900  0.43334600  0.36250700  1
  C  308  1  0.10969500  0.47552700  0.35839800  1
  C  309  1  0.40619900  0.47497800  0.35985700  1
  C  310  1  0.25766000  0.44208500  0.44566900  1
  C  311  1  0.25696100  0.34914000  0.29887600  1
  C  316  1  0.25772800  0.42359200  0.63022600  1
  C  317  1  0.25765900  0.38844800  0.62882200  1
  C  318  1  0.25762100  0.37482900  0.64958100  1
  C  319  1  0.25765800  0.40087100  0.66490700  1
  C  320  1  0.25782700  0.39239900  0.68736900  1
  C  321  1  0.25792600  0.35804600  0.69433800  1
  C  322  1  0.25782400  0.33270900  0.67800000  1
  C  323  1  0.25766400  0.34081100  0.65578100  1
  C  324  1  0.25764700  0.37180000  0.60869500  1
  C  325  1  0.25768200  0.39105200  0.58956300  1
  C  326  1  0.25773100  0.42689500  0.59007300  1
  C  327  1  0.25775000  0.44291600  0.61082800  1
  C  328  1  0.22204700  0.45639100  0.65924600  1
  C  329  1  0.23605700  0.48647700  0.66845200  1
  C  330  1  0.27848800  0.48659500  0.66855300  1
  C  331  1  0.29290500  0.45660800  0.65937400  1
  C  332  1  0.30509500  0.51261900  0.67482100  1
  C  333  1  0.34731100  0.50862100  0.67134900  1
  C  334  1  0.36347600  0.47914000  0.66142100  1
  C  335  1  0.33566700  0.45276800  0.65588100  1
  C  336  1  0.17941700  0.45241600  0.65538200  1
  C  337  1  0.15124900  0.47863600  0.66073100  1
  C  338  1  0.16703000  0.50820100  0.67075600  1
  C  339  1  0.20912800  0.51237500  0.67453600  1
  C  352  1  0.25761400  0.43428800  0.65352600  1
  C  353  1  0.40561000  0.47658200  0.65746300  1
  C  354  1  0.10932800  0.47601500  0.65605200  1
  C  355  1  0.25773900  0.44555500  0.57069400  1
  C  356  1  0.25846000  0.34903700  0.71646300  1
  C  361  1  0.25770800  0.11645300  0.98460400  1
  C  363  1  0.25773300  0.15008600  0.01698600  1
  C  364  1  0.25773100  0.12075900  0.03006800  1
  C  366  1  0.25770500  0.08700300  0.99760900  1
  C  367  1  0.25769200  0.05687100  0.98947300  1
  C  368  1  0.25774400  0.18073400  0.02452800  1
  C  373  1  0.75798000  0.93374400  0.03078900  1
  C  375  1  0.75792100  0.90011100  0.99840800  1
  C  376  1  0.75765200  0.92943600  0.98532500  1
  C  378  1  0.75771800  0.96319500  0.01778300  1
  C  379  1  0.75760000  0.99332500  0.02591800  1
  C  380  1  0.75801400  0.86946100  0.99086600  1
  C  385  1  0.75738300  0.61647200  0.48463400  1
  C  387  1  0.75745800  0.65010500  0.51701600  1
  C  388  1  0.75771700  0.62078000  0.53009700  1
  C  390  1  0.75763600  0.58702300  0.49763900  1
  C  391  1  0.75773900  0.55689000  0.48950500  1
  C  392  1  0.75737300  0.68075100  0.52456000  1
  C  397  1  0.25770000  0.43374600  0.53076300  1
  C  399  1  0.25766400  0.40011300  0.49838100  1
  C  400  1  0.25767100  0.42944100  0.48529800  1
  C  402  1  0.25770700  0.46319700  0.51775600  1
  C  403  1  0.25772600  0.49332800  0.52589000  1
  C  404  1  0.25764800  0.36946400  0.49083900  1
  C  409  1  0.04657400  0.03988900  0.15521100  1
  C  411  1  0.00233500  0.99191500  0.16034100  1
  C  412  1  0.96752300  0.01175100  0.15530800  1
  C  414  1  0.01180800  0.05970200  0.15008600  1
  C  415  1  0.01319400  0.09162200  0.14563600  1
  C  416  1  0.00071700  0.96073200  0.16662300  1
  C  421  1  0.46856900  0.03878300  0.85998000  1
  C  423  1  0.51287000  0.99080000  0.85503600  1
  C  424  1  0.54762200  0.01064500  0.86017300  1
  C  426  1  0.50327200  0.05859400  0.86523600  1
  C  427  1  0.50185000  0.09051000  0.86969500  1
  C  428  1  0.51456900  0.95962200  0.84875500  1
  C  433  1  0.96883000  0.01028500  0.86035900  1
  C  435  1  0.01298000  0.05832100  0.85525100  1
  C  436  1  0.04782900  0.03852800  0.86028100  1
  C  438  1  0.00363000  0.99051300  0.86548200  1
  C  439  1  0.00229400  0.95858500  0.86991200  1
  C  440  1  0.01454600  0.08950900  0.84897800  1
  C  445  1  0.54681500  0.01141400  0.15510700  1
  C  447  1  0.50256000  0.05943800  0.16001300  1
  C  448  1  0.46778900  0.03961200  0.15488400  1
  C  450  1  0.51209400  0.99162100  0.14986000  1
  C  451  1  0.51348500  0.95969200  0.14543800  1
  C  452  1  0.50088300  0.09062500  0.16627900  1
  C  457  1  0.54656300  0.53993000  0.65501100  1
  C  459  1  0.50241800  0.49189800  0.66014100  1
  C  460  1  0.46756900  0.51168300  0.65509700  1
  C  462  1  0.51176400  0.55969200  0.64987500  1
  C  463  1  0.51310000  0.59161600  0.64542700  1
  C  464  1  0.50085400  0.46071700  0.66643000  1
  C  469  1  0.96858700  0.53880700  0.36024900  1
  C  471  1  0.01282500  0.49076700  0.35536200  1
  C  472  1  0.04760500  0.51060000  0.36046000  1
  C  474  1  0.00332100  0.55860500  0.36546800  1
  C  475  1  0.00194200  0.59054100  0.36987000  1
  C  476  1  0.01448400  0.45956900  0.34912000  1
  C  481  1  0.46883300  0.51030800  0.36013800  1
  C  483  1  0.51306200  0.55829000  0.35501100  1
  C  484  1  0.54787700  0.53846200  0.36005700  1
  C  486  1  0.50359900  0.49050500  0.36527600  1
  C  487  1  0.50221700  0.45859000  0.36973500  1
  C  488  1  0.51467400  0.58947100  0.34872600  1
  C  493  1  0.04682700  0.51143600  0.65543200  1
  C  495  1  0.00253300  0.55943000  0.66035500  1
  C  496  1  0.96777700  0.53958300  0.65523200  1
  C  498  1  0.01211800  0.49162300  0.65019100  1
  C  499  1  0.01353100  0.45970200  0.64574500  1
  C  500  1  0.00084100  0.59061900  0.66666667  1
  C  505  1  0.25779100  0.29902600  0.27467900  1
  C  507  1  0.26426400  0.24137800  0.26254300  1
  C  508  1  0.25756600  0.25120400  0.24068400  1
  C  510  1  0.25112200  0.30885500  0.25281700  1
  C  511  1  0.24414500  0.33960500  0.24671800  1
  C  512  1  0.27126600  0.21063000  0.26864000  1
  C  517  1  0.25764600  0.29896800  0.74062700  1
  C  519  1  0.25091700  0.24140000  0.75291100  1
  C  520  1  0.25775200  0.25129400  0.77475300  1
  C  522  1  0.26448800  0.30886000  0.76246900  1
  C  523  1  0.27170400  0.33959300  0.76852400  1
  C  524  1  0.24368100  0.21067000  0.74685600  1
  C  529  1  0.75777200  0.75121700  0.74071000  1
  C  531  1  0.76463600  0.80882700  0.75285900  1
  C  532  1  0.75759700  0.79905100  0.77469800  1
  C  534  1  0.75076100  0.74143800  0.76255000  1
  C  535  1  0.74345100  0.71073100  0.76863100  1
  C  536  1  0.77197000  0.83953200  0.74678100  1
  C  541  1  0.75769300  0.75125000  0.27476800  1
  C  543  1  0.75057400  0.80877200  0.26246000  1
  C  544  1  0.75775300  0.79892000  0.24064200  1
  C  546  1  0.76487800  0.74140000  0.25295100  1
  C  547  1  0.77243100  0.71071100  0.24691700  1
  C  548  1  0.74300000  0.83945900  0.26849200  1
  N  362  1  0.25772200  0.14646000  0.99509700  1
  N  365  1  0.25771600  0.09040200  0.01972000  1
  N  369  1  0.25775400  0.20779100  0.03111600  1
  N  370  1  0.25768000  0.03017400  0.98230500  1
  N  371  1  0.25769900  0.11970100  0.96318500  1
  N  372  1  0.25773400  0.12410900  0.05151500  1
  N  374  1  0.75806800  0.90373600  0.02029600  1
  N  377  1  0.75755200  0.95979300  0.99567300  1
  N  381  1  0.75809900  0.84240500  0.98427500  1
  N  382  1  0.75749900  0.02002400  0.03308500  1
  N  383  1  0.75815500  0.93049800  0.05220800  1
  N  384  1  0.75739700  0.92608500  0.96387800  1
  N  386  1  0.75730700  0.64647900  0.49512700  1
  N  389  1  0.75780200  0.59042200  0.51974900  1
  N  393  1  0.75730100  0.70780800  0.53114800  1
  N  394  1  0.75783300  0.53019400  0.48233700  1
  N  395  1  0.75720800  0.61972000  0.46321500  1
  N  396  1  0.75797200  0.62412800  0.55154400  1
  N  398  1  0.25767800  0.40373900  0.52027000  1
  N  401  1  0.25769300  0.45979800  0.49564600  1
  N  405  1  0.25763300  0.34240800  0.48425000  1
  N  406  1  0.25774400  0.52002700  0.53305800  1
  N  407  1  0.25771000  0.43049800  0.55218000  1
  N  408  1  0.25767000  0.42609000  0.46385300  1
  N  410  1  0.03975100  0.00700200  0.16017900  1
  N  413  1  0.97426200  0.04479900  0.15070900  1
  N  417  1  0.99951000  0.93320000  0.17229200  1
  N  418  1  0.01407100  0.11987100  0.14168100  1
  N  419  1  0.08539700  0.04946000  0.15714500  1
  N  420  1  0.92833800  0.00320500  0.15735000  1
  N  422  1  0.47545600  0.00589700  0.85503400  1
  N  425  1  0.54081800  0.04368300  0.86476900  1
  N  429  1  0.51585000  0.93209200  0.84308300  1
  N  430  1  0.50095500  0.11875600  0.87366000  1
  N  431  1  0.42978900  0.04837500  0.85782800  1
  N  432  1  0.58682600  0.00205200  0.85835900  1
  N  434  1  0.97559400  0.04318500  0.85540000  1
  N  437  1  0.04115000  0.00546600  0.86486500  1
  N  441  1  0.01570800  0.11704700  0.84331400  1
  N  442  1  0.00145200  0.93033000  0.87384700  1
  N  443  1  0.93003500  0.00065200  0.85840000  1
  N  444  1  0.08699700  0.04712100  0.85822400  1
  N  446  1  0.53995900  0.04431400  0.16003200  1
  N  449  1  0.47456000  0.00655900  0.15031600  1
  N  453  1  0.49962000  0.11816000  0.17194100  1
  N  454  1  0.51435900  0.93143500  0.14150600  1
  N  455  1  0.58557400  0.00178300  0.15728900  1
  N  456  1  0.42859900  0.04823200  0.15671300  1
  N  458  1  0.53980500  0.50703700  0.65998600  1
  N  461  1  0.47424400  0.54473900  0.65049500  1
  N  465  1  0.49969600  0.43318700  0.67210600  1
  N  466  1  0.51394200  0.61986600  0.64147600  1
  N  467  1  0.58535900  0.54956600  0.65696300  1
  N  468  1  0.42839900  0.50308700  0.65714900  1
  N  470  1  0.97543100  0.50589700  0.35534700  1
  N  473  1  0.04085000  0.54365900  0.36500900  1
  N  477  1  0.01573300  0.43202200  0.34348300  1
  N  478  1  0.00107800  0.61880600  0.37378600  1
  N  479  1  0.92982900  0.54844000  0.35807700  1
  N  480  1  0.08679400  0.50196900  0.35862700  1
  N  482  1  0.47564900  0.54319600  0.35516500  1
  N  485  1  0.54114300  0.50541600  0.36465900  1
  N  489  1  0.51587800  0.61700000  0.34305300  1
  N  490  1  0.50134100  0.43034200  0.37369800  1
  N  491  1  0.43001300  0.50073300  0.35820100  1
  N  492  1  0.58706200  0.54701800  0.35802800  1
  N  494  1  0.03994400  0.54433100  0.66036000  1
  N  497  1  0.97457500  0.50653900  0.65065400  1
  N  501  1  0.99956500  0.61815800  0.67227000  1
  N  502  1  0.01442000  0.43145300  0.64179100  1
  N  503  1  0.08560600  0.50184600  0.65758100  1
  N  504  1  0.92857400  0.54818100  0.65704100  1
  N  506  1  0.26394900  0.26556900  0.27823800  1
  N  509  1  0.25143200  0.28466100  0.23712200  1
  N  513  1  0.27757100  0.18352200  0.27421400  1
  N  514  1  0.23786300  0.36671500  0.24114500  1
  N  515  1  0.25803700  0.31815600  0.29253000  1
  N  516  1  0.25734900  0.23207800  0.22283000  1
  N  518  1  0.25129200  0.26551400  0.73716200  1
  N  521  1  0.26410500  0.28474700  0.77821800  1
  N  525  1  0.23716500  0.18358800  0.74129700  1
  N  526  1  0.27820100  0.36667700  0.77408400  1
  N  527  1  0.25742100  0.31800000  0.72271000  1
  N  528  1  0.25797100  0.23226200  0.79267100  1
  N  530  1  0.76427900  0.78463100  0.73716600  1
  N  533  1  0.75111200  0.76563200  0.77824400  1
  N  537  1  0.77857200  0.86660100  0.74122400  1
  N  538  1  0.73687100  0.68365900  0.77419200  1
  N  539  1  0.75806900  0.73207400  0.72286300  1
  N  540  1  0.75732800  0.81818600  0.79254700  1
  N  542  1  0.75099000  0.78466400  0.27821100  1
  N  545  1  0.76445600  0.76550800  0.23720000  1
  N  549  1  0.73618600  0.86650100  0.27403100  1
  N  550  1  0.77922600  0.68366700  0.24137700  1
  N  551  1  0.75741600  0.73222000  0.29268600  1
  N  552  1  0.75802400  0.81795200  0.22272400  1
