# generated using pymatgen
data_CuH6C6IN2
_symmetry_space_group_name_H-M   'P 1'
_cell_length_a   13.12574000
_cell_length_b   14.07910827
_cell_length_c   14.07910827
_cell_angle_alpha   77.56040407
_cell_angle_beta   62.36943120
_cell_angle_gamma   62.36943120
_symmetry_Int_Tables_number   1
_chemical_formula_structural   CuH6C6IN2
_chemical_formula_sum   'Cu8 H48 C48 I8 N16'
_cell_volume   2042.20168920
_cell_formula_units_Z   8
loop_
 _symmetry_equiv_pos_site_id
 _symmetry_equiv_pos_as_xyz
  1  'x, y, z'
loop_
 _atom_site_type_symbol
 _atom_site_label
 _atom_site_symmetry_multiplicity
 _atom_site_fract_x
 _atom_site_fract_y
 _atom_site_fract_z
 _atom_site_occupancy
  Cu  Cu1  1  0.36127000  0.25050000  0.27676000  1.0
  Cu  Cu2  1  0.88838000  0.24987000  0.22370000  1.0
  Cu  Cu3  1  0.11162000  0.27630000  0.25013000  1.0
  Cu  Cu4  1  0.63874000  0.22324000  0.24950000  1.0
  Cu  Cu5  1  0.63874000  0.74950000  0.72324000  1.0
  Cu  Cu6  1  0.11162000  0.75013000  0.77630000  1.0
  Cu  Cu7  1  0.88838000  0.72370000  0.74987000  1.0
  Cu  Cu8  1  0.36127000  0.77676000  0.75050000  1.0
  H  H1  1  0.30458000  0.33177000  0.51288000  1.0
  H  H2  1  0.37147000  0.37507000  0.38052000  1.0
  H  H3  1  0.14803000  0.16939000  0.98832000  1.0
  H  H4  1  0.12606000  0.12630000  0.12074000  1.0
  H  H5  1  0.13690000  0.51217000  0.16884000  1.0
  H  H6  1  0.24669000  0.37981000  0.12565000  1.0
  H  H7  1  0.81692000  0.98767000  0.33123000  1.0
  H  H8  1  0.75223000  0.12008000  0.37427000  1.0
  H  H9  1  0.69542000  0.98712000  0.16823000  1.0
  H  H10  1  0.62854000  0.11948000  0.12492000  1.0
  H  H11  1  0.85198000  0.51168000  0.33060000  1.0
  H  H12  1  0.87394000  0.37926000  0.37370000  1.0
  H  H13  1  0.86311000  0.33115000  0.98783000  1.0
  H  H14  1  0.75331000  0.37435000  0.12019000  1.0
  H  H15  1  0.18308000  0.16877000  0.51233000  1.0
  H  H16  1  0.24778000  0.12572000  0.37992000  1.0
  H  H17  1  0.69542000  0.66823000  0.48712000  1.0
  H  H18  1  0.62854000  0.62492000  0.61948000  1.0
  H  H19  1  0.85197000  0.83061000  0.01168000  1.0
  H  H20  1  0.87394000  0.87370000  0.87926000  1.0
  H  H21  1  0.86310000  0.48783000  0.83116000  1.0
  H  H22  1  0.75331000  0.62019000  0.87435000  1.0
  H  H23  1  0.18308000  0.01233000  0.66877000  1.0
  H  H24  1  0.24778000  0.87992000  0.62572000  1.0
  H  H25  1  0.30458000  0.01288000  0.83177000  1.0
  H  H26  1  0.37147000  0.88052000  0.87507000  1.0
  H  H27  1  0.14803000  0.48832000  0.66939000  1.0
  H  H28  1  0.12606000  0.62074000  0.62630000  1.0
  H  H29  1  0.13690000  0.66884000  0.01217000  1.0
  H  H30  1  0.24669000  0.62565000  0.87981000  1.0
  H  H31  1  0.81692000  0.83123000  0.48767000  1.0
  H  H32  1  0.75222000  0.87428000  0.62008000  1.0
  H  H33  1  0.34707000  0.48383000  0.51810000  1.0
  H  H34  1  0.26643000  0.56302000  0.43843000  1.0
  H  H35  1  0.34707000  0.01810000  0.98383000  1.0
  H  H36  1  0.26643000  0.93843000  0.06302000  1.0
  H  H37  1  0.33099000  0.51712000  0.01712000  1.0
  H  H38  1  0.32902000  0.43773000  0.93773000  1.0
  H  H39  1  0.86507000  0.98285000  0.48285000  1.0
  H  H40  1  0.70524000  0.06226000  0.56226000  1.0
  H  H41  1  0.65293000  0.98190000  0.01617000  1.0
  H  H42  1  0.73358000  0.06157000  0.93698000  1.0
  H  H43  1  0.65293000  0.51617000  0.48190000  1.0
  H  H44  1  0.73358000  0.43698000  0.56157000  1.0
  H  H45  1  0.66902000  0.48287000  0.98288000  1.0
  H  H46  1  0.67098000  0.56227000  0.06227000  1.0
  H  H47  1  0.13493000  0.01715000  0.51715000  1.0
  H  H48  1  0.29476000  0.93774000  0.43774000  1.0
  C  C1  1  0.17374000  0.41591000  0.44316000  1.0
  C  C2  1  0.28705000  0.39950000  0.45730000  1.0
  C  C3  1  0.03237000  0.08445000  0.05756000  1.0
  C  C4  1  0.14277000  0.10162000  0.04389000  1.0
  C  C5  1  0.08986000  0.44276000  0.08431000  1.0
  C  C6  1  0.18675000  0.45666000  0.10109000  1.0
  C  C7  1  0.61679000  0.05723000  0.41567000  1.0
  C  C8  1  0.74422000  0.04328000  0.39890000  1.0
  C  C9  1  0.82627000  0.05683000  0.08409000  1.0
  C  C10  1  0.71296000  0.04269000  0.10050000  1.0
  C  C11  1  0.96764000  0.44244000  0.41554000  1.0
  C  C12  1  0.85724000  0.45611000  0.39838000  1.0
  C  C13  1  0.91014000  0.41569000  0.05724000  1.0
  C  C14  1  0.81325000  0.39891000  0.04334000  1.0
  C  C15  1  0.38322000  0.08433000  0.44277000  1.0
  C  C16  1  0.25578000  0.10110000  0.45672000  1.0
  C  C17  1  0.82627000  0.58409000  0.55683000  1.0
  C  C18  1  0.71296000  0.60050000  0.54269000  1.0
  C  C19  1  0.96763000  0.91555000  0.94244000  1.0
  C  C20  1  0.85724000  0.89838000  0.95611000  1.0
  C  C21  1  0.91014000  0.55724000  0.91569000  1.0
  C  C22  1  0.81325000  0.54334000  0.89891000  1.0
  C  C23  1  0.38322000  0.94277000  0.58433000  1.0
  C  C24  1  0.25578000  0.95672000  0.60110000  1.0
  C  C25  1  0.17374000  0.94316000  0.91591000  1.0
  C  C26  1  0.28705000  0.95730000  0.89950000  1.0
  C  C27  1  0.03237000  0.55756000  0.58445000  1.0
  C  C28  1  0.14277000  0.54389000  0.60162000  1.0
  C  C29  1  0.08986000  0.58431000  0.94276000  1.0
  C  C30  1  0.18675000  0.60109000  0.95666000  1.0
  C  C31  1  0.61679000  0.91567000  0.55723000  1.0
  C  C32  1  0.74422000  0.89890000  0.54328000  1.0
  C  C33  1  0.05253000  0.49307000  0.50720000  1.0
  C  C34  1  0.26696000  0.50071000  0.50071000  1.0
  C  C35  1  0.05253000  0.00720000  0.99307000  1.0
  C  C36  1  0.26696000  0.00071000  0.00071000  1.0
  C  C37  1  0.04561000  0.50708000  0.00708000  1.0
  C  C38  1  0.26765000  0.50000000  0.00000000  1.0
  C  C39  1  0.55964000  0.99298000  0.49298000  1.0
  C  C40  1  0.76766000  0.99999000  0.49999000  1.0
  C  C41  1  0.94747000  0.99280000  0.00693000  1.0
  C  C42  1  0.73304000  0.99929000  0.99929000  1.0
  C  C43  1  0.94747000  0.50693000  0.49280000  1.0
  C  C44  1  0.73304000  0.49929000  0.49929000  1.0
  C  C45  1  0.95439000  0.49292000  0.99292000  1.0
  C  C46  1  0.73235000  0.50000000  1.00000000  1.0
  C  C47  1  0.44036000  0.00702000  0.50702000  1.0
  C  C48  1  0.23234000  0.00001000  0.50001000  1.0
  I  I1  1  0.35459000  0.14497000  0.14548000  1.0
  I  I2  1  0.64541000  0.35452000  0.35503000  1.0
  I  I3  1  0.00001000  0.14459000  0.35540000  1.0
  I  I4  1  0.50001000  0.35458000  0.14541000  1.0
  I  I5  1  0.64541000  0.85503000  0.85452000  1.0
  I  I6  1  0.35459000  0.64548000  0.64497000  1.0
  I  I7  1  0.00000000  0.85541000  0.64459000  1.0
  I  I8  1  0.50001000  0.64541000  0.85458000  1.0
  N  N1  1  0.18796000  0.35790000  0.37036000  1.0
  N  N2  1  0.91611000  0.14197000  0.13026000  1.0
  N  N3  1  0.04619000  0.36994000  0.14207000  1.0
  N  N4  1  0.55826000  0.12992000  0.35777000  1.0
  N  N5  1  0.81205000  0.12964000  0.14209000  1.0
  N  N6  1  0.08389000  0.36974000  0.35803000  1.0
  N  N7  1  0.95381000  0.35793000  0.13006000  1.0
  N  N8  1  0.44175000  0.14223000  0.37007000  1.0
  N  N9  1  0.81204000  0.64210000  0.62964000  1.0
  N  N10  1  0.08389000  0.85803000  0.86974000  1.0
  N  N11  1  0.95381000  0.63006000  0.85793000  1.0
  N  N12  1  0.44175000  0.87007000  0.64223000  1.0
  N  N13  1  0.18796000  0.87036000  0.85790000  1.0
  N  N14  1  0.91611000  0.63026000  0.64197000  1.0
  N  N15  1  0.04619000  0.64207000  0.86994000  1.0
  N  N16  1  0.55826000  0.85777000  0.62992000  1.0
