# generated using pymatgen
data_CaCdH8(C2O)8
_symmetry_space_group_name_H-M   'P 1'
_cell_length_a   14.10404000
_cell_length_b   20.30044000
_cell_length_c   20.54853000
_cell_angle_alpha   108.71749000
_cell_angle_beta   89.95137000
_cell_angle_gamma   89.88574000
_symmetry_Int_Tables_number   1
_chemical_formula_structural   CaCdH8(C2O)8
_chemical_formula_sum   'Ca8 Cd8 H64 C128 O64'
_cell_volume   5572.24042791
_cell_formula_units_Z   8
loop_
 _symmetry_equiv_pos_site_id
 _symmetry_equiv_pos_as_xyz
  1  'x, y, z'
loop_
 _atom_site_type_symbol
 _atom_site_label
 _atom_site_symmetry_multiplicity
 _atom_site_fract_x
 _atom_site_fract_y
 _atom_site_fract_z
 _atom_site_occupancy
  Ca  Ca0  1  0.45584000  0.21804000  0.45598000  1
  Ca  Ca1  1  0.80550000  0.29603000  0.04718000  1
  Ca  Ca2  1  0.19450000  0.70398000  0.95282000  1
  Ca  Ca3  1  0.30525000  0.20534000  0.95345000  1
  Ca  Ca4  1  0.69474000  0.79467000  0.04655000  1
  Ca  Ca5  1  0.95615000  0.28176000  0.54355000  1
  Ca  Ca6  1  0.54415000  0.78197000  0.54402000  1
  Ca  Ca7  1  0.04385000  0.71824000  0.45645000  1
  Cd  Cd8  1  0.94166000  0.75870000  0.97884000  1
  Cd  Cd9  1  0.69668000  0.25706000  0.52705000  1
  Cd  Cd10  1  0.05834000  0.24130000  0.02116000  1
  Cd  Cd11  1  0.80363000  0.75837000  0.52752000  1
  Cd  Cd12  1  0.55907000  0.25892000  0.97837000  1
  Cd  Cd13  1  0.30332000  0.74294000  0.47295000  1
  Cd  Cd14  1  0.44093000  0.74108000  0.02162000  1
  Cd  Cd15  1  0.19637000  0.24163000  0.47248000  1
  H  H16  1  0.92789000  0.38235000  0.46767000  1
  H  H17  1  0.47320000  0.70514000  0.77718000  1
  H  H18  1  0.64463000  0.63092000  0.03044000  1
  H  H19  1  0.66486000  0.49799000  0.54265000  1
  H  H20  1  0.35537000  0.36909000  0.96956000  1
  H  H21  1  0.19380000  0.21345000  0.22052000  1
  H  H22  1  0.30649000  0.71392000  0.22124000  1
  H  H23  1  0.21756000  0.27592000  0.71736000  1
  H  H24  1  0.70912000  0.72827000  0.17339000  1
  H  H25  1  0.17350000  0.51463000  0.52215000  1
  H  H26  1  0.00920000  0.73408000  0.61819000  1
  H  H27  1  0.68149000  0.90622000  0.95837000  1
  H  H28  1  0.43618000  0.76727000  0.27363000  1
  H  H29  1  0.76716000  0.28058000  0.88598000  1
  H  H30  1  0.26772000  0.21996000  0.11372000  1
  H  H31  1  0.93779000  0.02264000  0.03007000  1
  H  H32  1  0.49037000  0.23458000  0.61825000  1
  H  H33  1  0.81911000  0.40598000  0.95806000  1
  H  H34  1  0.95441000  0.21362000  0.66931000  1
  H  H35  1  0.50963000  0.76542000  0.38175000  1
  H  H36  1  0.31851000  0.09379000  0.04163000  1
  H  H37  1  0.60112000  0.01508000  0.95528000  1
  H  H38  1  0.83510000  0.99897000  0.54307000  1
  H  H39  1  0.42742000  0.11765000  0.53220000  1
  H  H40  1  0.33513000  0.50202000  0.45735000  1
  H  H41  1  0.54640000  0.71406000  0.66948000  1
  H  H42  1  0.20885000  0.77158000  0.82626000  1
  H  H43  1  0.06441000  0.26662000  0.27312000  1
  H  H44  1  0.29087000  0.27174000  0.82660000  1
  H  H45  1  0.43717000  0.47642000  0.97038000  1
  H  H46  1  0.56382000  0.23273000  0.72637000  1
  H  H47  1  0.71822000  0.22443000  0.28344000  1
  H  H48  1  0.59638000  0.60803000  0.53507000  1
  H  H49  1  0.56283000  0.52359000  0.02962000  1
  H  H50  1  0.79115000  0.22842000  0.17374000  1
  H  H51  1  0.32638000  0.01492000  0.52197000  1
  H  H52  1  0.99080000  0.26592000  0.38181000  1
  H  H53  1  0.69351000  0.28608000  0.77876000  1
  H  H54  1  0.52679000  0.29487000  0.22282000  1
  H  H55  1  0.06221000  0.97736000  0.96993000  1
  H  H56  1  0.45360000  0.28594000  0.33052000  1
  H  H57  1  0.28177000  0.77558000  0.71656000  1
  H  H58  1  0.73228000  0.78004000  0.88628000  1
  H  H59  1  0.89997000  0.51432000  0.95520000  1
  H  H60  1  0.09617000  0.89141000  0.46489000  1
  H  H61  1  0.14369000  0.86966000  0.96995000  1
  H  H62  1  0.57258000  0.88235000  0.46780000  1
  H  H63  1  0.02734000  0.20577000  0.77750000  1
  H  H64  1  0.78244000  0.72408000  0.28264000  1
  H  H65  1  0.82650000  0.48538000  0.47785000  1
  H  H66  1  0.67361000  0.98508000  0.47803000  1
  H  H67  1  0.23284000  0.71942000  0.11402000  1
  H  H68  1  0.16490000  0.00104000  0.45692000  1
  H  H69  1  0.80620000  0.78656000  0.77948000  1
  H  H70  1  0.10003000  0.48568000  0.04480000  1
  H  H71  1  0.97266000  0.79423000  0.22250000  1
  H  H72  1  0.07211000  0.61765000  0.53233000  1
  H  H73  1  0.90383000  0.10860000  0.53511000  1
  H  H74  1  0.93559000  0.73338000  0.72688000  1
  H  H75  1  0.39887000  0.98492000  0.04472000  1
  H  H76  1  0.85631000  0.13034000  0.03005000  1
  H  H77  1  0.18089000  0.59402000  0.04194000  1
  H  H78  1  0.04558000  0.78638000  0.33069000  1
  H  H79  1  0.40362000  0.39198000  0.46493000  1
  C  C80  1  0.05304000  0.74248000  0.66362000  1
  C  C81  1  0.97550000  0.25440000  0.15198000  1
  C  C82  1  0.30856000  0.23437000  0.16105000  1
  C  C83  1  0.09766000  0.50852000  0.51231000  1
  C  C84  1  0.83444000  0.23713000  0.21954000  1
  C  C85  1  0.34861000  0.25439000  0.66070000  1
  C  C86  1  0.88051000  0.61955000  0.50885000  1
  C  C87  1  0.01149000  0.74171000  0.72490000  1
  C  C88  1  0.41368000  0.27077000  0.28270000  1
  C  C89  1  0.36319000  0.47877000  0.98588000  1
  C  C90  1  0.42028000  0.62918000  0.49235000  1
  C  C91  1  0.58631000  0.72924000  0.71729000  1
  C  C92  1  0.27753000  0.23811000  0.34509000  1
  C  C93  1  0.69144000  0.76563000  0.83895000  1
  C  C94  1  0.53909000  0.43769000  0.50390000  1
  C  C95  1  0.15083000  0.75388000  0.66049000  1
  C  C96  1  0.44644000  0.24273000  0.66367000  1
  C  C97  1  0.19160000  0.73389000  0.16128000  1
  C  C98  1  0.57972000  0.37082000  0.50765000  1
  C  C99  1  0.16556000  0.76288000  0.78045000  1
  C  C100  1  0.61907000  0.11938000  0.50886000  1
  C  C101  1  0.55048000  0.74326000  0.90383000  1
  C  C102  1  0.73308000  0.76958000  0.77885000  1
  C  C103  1  0.30246000  0.25316000  0.59502000  1
  C  C104  1  0.02449000  0.74560000  0.84802000  1
  C  C105  1  0.94605000  0.06120000  0.52009000  1
  C  C106  1  0.11948000  0.38045000  0.49115000  1
  C  C107  1  0.86395000  0.02067000  0.01450000  1
  C  C108  1  0.55356000  0.75727000  0.33632000  1
  C  C109  1  0.32340000  0.85464000  0.00773000  1
  C  C110  1  0.76690000  0.26949000  0.77838000  1
  C  C111  1  0.19699000  0.75238000  0.59474000  1
  C  C112  1  0.44256000  0.94204000  0.49546000  1
  C  C113  1  0.70705000  0.73423000  0.27997000  1
  C  C114  1  0.05755000  0.44194000  0.49553000  1
  C  C115  1  0.69754000  0.74685000  0.40498000  1
  C  C116  1  0.23310000  0.73051000  0.22162000  1
  C  C117  1  0.54072000  0.93398000  0.48311000  1
  C  C118  1  0.31409000  0.54228000  0.00546000  1
  C  C119  1  0.46090000  0.56231000  0.49610000  1
  C  C120  1  0.80301000  0.24762000  0.40525000  1
  C  C121  1  0.68591000  0.45772000  0.99454000  1
  C  C122  1  0.86364000  0.89280000  0.99631000  1
  C  C123  1  0.79350000  0.23449000  0.28028000  1
  C  C124  1  0.52458000  0.75445000  0.15208000  1
  C  C125  1  0.44595000  0.43916000  0.47987000  1
  C  C126  1  0.36357000  0.60711000  0.00504000  1
  C  C127  1  0.66601000  0.73708000  0.21937000  1
  C  C128  1  0.67660000  0.14536000  0.99227000  1
  C  C129  1  0.20650000  0.76551000  0.71972000  1
  C  C130  1  0.72334000  0.07955000  0.99305000  1
  C  C131  1  0.59699000  0.74375000  0.83870000  1
  C  C132  1  0.96078000  0.93814000  0.50426000  1
  C  C133  1  0.06781000  0.75027000  0.78327000  1
  C  C134  1  0.17356000  0.35482000  0.00712000  1
  C  C135  1  0.51207000  0.75862000  0.27527000  1
  C  C136  1  0.54544000  0.72376000  0.77701000  1
  C  C137  1  0.04500000  0.77571000  0.22293000  1
  C  C138  1  0.81449000  0.95751000  0.99516000  1
  C  C139  1  0.26692000  0.23042000  0.22115000  1
  C  C140  1  0.93219000  0.24974000  0.21672000  1
  C  C141  1  0.03922000  0.06187000  0.49574000  1
  C  C142  1  0.17972000  0.74740000  0.28244000  1
  C  C143  1  0.98851000  0.25829000  0.27510000  1
  C  C144  1  0.72247000  0.76189000  0.65490000  1
  C  C145  1  0.77771000  0.26025000  0.65399000  1
  C  C146  1  0.44952000  0.25674000  0.09617000  1
  C  C147  1  0.13605000  0.97933000  0.98549000  1
  C  C148  1  0.68312000  0.58186000  0.01445000  1
  C  C149  1  0.48793000  0.24139000  0.72473000  1
  C  C150  1  0.21854000  0.54451000  0.02588000  1
  C  C151  1  0.91940000  0.87201000  0.50878000  1
  C  C152  1  0.13636000  0.10721000  0.00369000  1
  C  C153  1  0.31688000  0.41814000  0.98555000  1
  C  C154  1  0.31998000  0.24690000  0.28193000  1
  C  C155  1  0.94245000  0.55806000  0.50447000  1
  C  C156  1  0.78146000  0.45549000  0.97412000  1
  C  C157  1  0.94696000  0.25752000  0.33637000  1
  C  C158  1  0.45928000  0.06603000  0.51689000  1
  C  C159  1  0.55405000  0.56084000  0.52013000  1
  C  C160  1  0.82681000  0.51586000  0.97243000  1
  C  C161  1  0.77820000  0.57971000  0.99326000  1
  C  C162  1  0.81810000  0.08135000  0.01438000  1
  C  C163  1  0.67418000  0.01611000  0.97249000  1
  C  C164  1  0.18551000  0.04249000  0.00484000  1
  C  C165  1  0.47542000  0.24555000  0.84792000  1
  C  C166  1  0.90233000  0.49149000  0.48769000  1
  C  C167  1  0.18190000  0.91866000  0.98562000  1
  C  C168  1  0.40226000  0.00866000  0.51220000  1
  C  C169  1  0.59774000  0.99134000  0.48780000  1
  C  C170  1  0.95946000  0.43399000  0.48304000  1
  C  C171  1  0.71915000  0.95559000  0.97445000  1
  C  C172  1  0.05081000  0.75666000  0.09632000  1
  C  C173  1  0.95500000  0.22430000  0.77707000  1
  C  C174  1  0.65138000  0.74561000  0.33930000  1
  C  C175  1  0.09287000  0.00026000  0.47563000  1
  C  C176  1  0.08574000  0.77087000  0.28289000  1
  C  C177  1  0.09703000  0.75571000  0.16133000  1
  C  C178  1  0.82028000  0.25261000  0.71756000  1
  C  C179  1  0.38093000  0.88063000  0.49114000  1
  C  C180  1  0.40300000  0.25625000  0.16130000  1
  C  C181  1  0.63643000  0.39290000  0.99496000  1
  C  C182  1  0.28085000  0.04441000  0.02555000  1
  C  C183  1  0.45455000  0.27624000  0.22299000  1
  C  C184  1  0.94919000  0.24334000  0.90368000  1
  C  C185  1  0.43174000  0.25009000  0.78327000  1
  C  C186  1  0.08060000  0.12799000  0.49122000  1
  C  C187  1  0.90297000  0.24429000  0.83866000  1
  C  C188  1  0.56825000  0.74992000  0.21672000  1
  C  C189  1  0.04054000  0.56601000  0.51696000  1
  C  C190  1  0.27666000  0.92046000  0.00694000  1
  C  C191  1  0.22180000  0.42029000  0.00673000  1
  C  C192  1  0.90713000  0.99974000  0.52437000  1
  C  C193  1  0.59284000  0.49908000  0.52411000  1
  C  C194  1  0.05395000  0.93880000  0.47991000  1
  C  C195  1  0.33399000  0.26293000  0.78063000  1
  C  C196  1  0.68002000  0.75310000  0.71807000  1
  C  C197  1  0.80840000  0.26611000  0.83871000  1
  C  C198  1  0.40716000  0.50093000  0.47589000  1
  C  C199  1  0.55744000  0.05797000  0.50454000  1
  C  C200  1  0.82644000  0.64519000  0.99287000  1
  C  C201  1  0.63681000  0.52123000  0.01412000  1
  C  C202  1  0.84917000  0.24613000  0.33951000  1
  C  C203  1  0.32582000  0.98389000  0.02751000  1
  C  C204  1  0.29295000  0.26577000  0.72003000  1
  C  C205  1  0.91426000  0.22914000  0.71711000  1
  C  C206  1  0.22228000  0.73976000  0.34600000  1
  C  C207  1  0.17319000  0.48414000  0.02757000  1
  O  O208  1  0.85142000  0.27202000  0.46137000  1
  O  O209  1  0.45167000  0.61384000  0.01230000  1
  O  O210  1  0.68925000  0.26032000  0.64595000  1
  O  O211  1  0.03322000  0.18420000  0.51863000  1
  O  O212  1  0.04803000  0.11374000  0.00971000  1
  O  O213  1  0.07575000  0.32619000  0.49896000  1
  O  O214  1  0.90473000  0.27236000  0.96072000  1
  O  O215  1  0.54833000  0.38616000  0.98770000  1
  O  O216  1  0.21757000  0.27284000  0.59434000  1
  O  O217  1  0.40538000  0.22728000  0.03925000  1
  O  O218  1  0.71854000  0.22716000  0.40585000  1
  O  O219  1  0.66480000  0.77068000  0.60916000  1
  O  O220  1  0.59462000  0.77273000  0.96074000  1
  O  O221  1  0.65776000  0.37055000  0.53856000  1
  O  O222  1  0.29421000  0.88025000  0.48033000  1
  O  O223  1  0.16482000  0.73341000  0.39310000  1
  O  O224  1  0.31045000  0.65715000  0.99784000  1
  O  O225  1  0.43681000  0.74625000  0.14146000  1
  O  O226  1  0.91954000  0.26940000  0.10863000  1
  O  O227  1  0.96971000  0.78368000  0.09750000  1
  O  O228  1  0.78569000  0.70310000  0.02553000  1
  O  O229  1  0.03029000  0.21633000  0.90250000  1
  O  O230  1  0.58070000  0.76643000  0.10705000  1
  O  O231  1  0.46714000  0.68499000  0.52156000  1
  O  O232  1  0.18913000  0.23968000  0.35414000  1
  O  O233  1  0.42469000  0.82649000  0.49933000  1
  O  O234  1  0.70579000  0.11976000  0.51967000  1
  O  O235  1  0.57531000  0.17352000  0.50067000  1
  O  O236  1  0.95197000  0.88626000  0.99028000  1
  O  O237  1  0.53285000  0.31501000  0.47844000  1
  O  O238  1  0.28111000  0.79730000  0.97615000  1
  O  O239  1  0.96677000  0.81580000  0.48137000  1
  O  O240  1  0.21431000  0.29690000  0.97447000  1
  O  O241  1  0.68954000  0.34286000  0.00216000  1
  O  O242  1  0.93732000  0.75654000  0.86030000  1
  O  O243  1  0.83518000  0.26659000  0.60690000  1
  O  O244  1  0.90446000  0.64271000  0.96124000  1
  O  O245  1  0.14857000  0.72799000  0.53863000  1
  O  O246  1  0.09527000  0.72765000  0.03928000  1
  O  O247  1  0.08046000  0.73060000  0.89137000  1
  O  O248  1  0.56318000  0.25375000  0.85854000  1
  O  O249  1  0.79374000  0.61985000  0.51943000  1
  O  O250  1  0.28146000  0.77284000  0.59414000  1
  O  O251  1  0.46963000  0.71606000  0.90273000  1
  O  O252  1  0.53037000  0.28395000  0.09727000  1
  O  O253  1  0.40158000  0.85661000  0.03885000  1
  O  O254  1  0.41930000  0.23358000  0.89295000  1
  O  O255  1  0.81087000  0.76033000  0.64585000  1
  O  O256  1  0.15990000  0.12725000  0.46141000  1
  O  O257  1  0.78243000  0.72716000  0.40566000  1
  O  O258  1  0.33520000  0.22933000  0.39084000  1
  O  O259  1  0.09554000  0.35729000  0.03875000  1
  O  O260  1  0.64870000  0.77027000  0.46115000  1
  O  O261  1  0.20626000  0.38015000  0.48057000  1
  O  O262  1  0.81018000  0.84282000  0.00287000  1
  O  O263  1  0.35130000  0.22973000  0.53885000  1
  O  O264  1  0.84009000  0.87276000  0.53859000  1
  O  O265  1  0.92425000  0.67381000  0.50104000  1
  O  O266  1  0.31074000  0.73969000  0.35405000  1
  O  O267  1  0.59841000  0.14339000  0.96115000  1
  O  O268  1  0.71889000  0.20270000  0.02385000  1
  O  O269  1  0.34224000  0.62945000  0.46144000  1
  O  O270  1  0.18982000  0.15719000  0.99713000  1
  O  O271  1  0.06268000  0.24347000  0.13970000  1
