# generated using pymatgen
data_Cd3H14(C5O2)6
_symmetry_space_group_name_H-M   'P 1'
_cell_length_a   10.16925000
_cell_length_b   11.20454350
_cell_length_c   16.80615000
_cell_angle_alpha   96.32906316
_cell_angle_beta   90.08820000
_cell_angle_gamma   116.89140802
_symmetry_Int_Tables_number   1
_chemical_formula_structural   Cd3H14(C5O2)6
_chemical_formula_sum   'Cd6 H28 C60 O24'
_cell_volume   1694.58835100
_cell_formula_units_Z   2
loop_
 _symmetry_equiv_pos_site_id
 _symmetry_equiv_pos_as_xyz
  1  'x, y, z'
loop_
 _atom_site_type_symbol
 _atom_site_label
 _atom_site_symmetry_multiplicity
 _atom_site_fract_x
 _atom_site_fract_y
 _atom_site_fract_z
 _atom_site_occupancy
  Cd  Cd0  1  0.95801000  0.81177000  0.97223000  1
  Cd  Cd1  1  0.14729000  0.18813000  0.52711000  1
  Cd  Cd2  1  0.04199000  0.18823000  0.02777000  1
  Cd  Cd3  1  0.85271000  0.81187000  0.47289000  1
  Cd  Cd4  1  0.00000000  0.50000000  0.00000000  1
  Cd  Cd5  1  0.50000000  0.50000000  0.50000000  1
  H  H6  1  0.63078000  0.53443000  0.74506000  1
  H  H7  1  0.90555000  0.37231000  0.83315000  1
  H  H8  1  0.49178000  0.32288000  0.65403000  1
  H  H9  1  0.76563000  0.16054000  0.74596000  1
  H  H10  1  0.32380000  0.11976000  0.65236000  1
  H  H11  1  0.69462000  0.03170000  0.62527000  1
  H  H12  1  0.26655000  0.74917000  0.51811000  1
  H  H13  1  0.09515000  0.46673000  0.75381000  1
  H  H14  1  0.53159000  0.62624000  0.66639000  1
  H  H15  1  0.16938000  0.67759000  0.84578000  1
  H  H16  1  0.60465000  0.83797000  0.75397000  1
  H  H17  1  0.20486000  0.88095000  0.84746000  1
  H  H18  1  0.66352000  0.96825000  0.87401000  1
  H  H19  1  0.51785000  0.25010000  0.98271000  1
  H  H20  1  0.36922000  0.46557000  0.25494000  1
  H  H21  1  0.09445000  0.62769000  0.16685000  1
  H  H22  1  0.50822000  0.67712000  0.34597000  1
  H  H23  1  0.23437000  0.83946000  0.25404000  1
  H  H24  1  0.67621000  0.88024000  0.34764000  1
  H  H25  1  0.30538000  0.96830000  0.37473000  1
  H  H26  1  0.73345000  0.25083000  0.48189000  1
  H  H27  1  0.90485000  0.53327000  0.24619000  1
  H  H28  1  0.46842000  0.37376000  0.33361000  1
  H  H29  1  0.83063000  0.32241000  0.15422000  1
  H  H30  1  0.39535000  0.16203000  0.24603000  1
  H  H31  1  0.79515000  0.11905000  0.15253000  1
  H  H32  1  0.33649000  0.03175000  0.12599000  1
  H  H33  1  0.48215000  0.74990000  0.01729000  1
  C  C34  1  0.85017000  0.59503000  0.85136000  1
  C  C35  1  0.77638000  0.46814000  0.79580000  1
  C  C36  1  0.65942000  0.45193000  0.74403000  1
  C  C37  1  0.81463000  0.36229000  0.79433000  1
  C  C38  1  0.58059000  0.33204000  0.69414000  1
  C  C39  1  0.73560000  0.24188000  0.74426000  1
  C  C40  1  0.61498000  0.22362000  0.69440000  1
  C  C41  1  0.52204000  0.09355000  0.64515000  1
  C  C42  1  0.37191000  0.05533000  0.62794000  1
  C  C43  1  0.57836000  0.00487000  0.61495000  1
  C  C44  1  0.28070000  0.93352000  0.58113000  1
  C  C45  1  0.48635000  0.88042000  0.57061000  1
  C  C46  1  0.33760000  0.84489000  0.55329000  1
  C  C47  1  0.12530000  0.89926000  0.55740000  1
  C  C48  1  0.54346000  0.78181000  0.54354000  1
  C  C49  1  0.25407000  0.40570000  0.64707000  1
  C  C50  1  0.30681000  0.53206000  0.70313000  1
  C  C51  1  0.20649000  0.54862000  0.75495000  1
  C  C52  1  0.45115000  0.63707000  0.70513000  1
  C  C53  1  0.24836000  0.66820000  0.80537000  1
  C  C54  1  0.49310000  0.75729000  0.75547000  1
  C  C55  1  0.39131000  0.77618000  0.80532000  1
  C  C56  1  0.42902000  0.90644000  0.85465000  1
  C  C57  1  0.31734000  0.94488000  0.87202000  1
  C  C58  1  0.57414000  0.99511000  0.88466000  1
  C  C59  1  0.34797000  0.06640000  0.91918000  1
  C  C60  1  0.60657000  0.11946000  0.92933000  1
  C  C61  1  0.49332000  0.15475000  0.94710000  1
  C  C62  1  0.22686000  0.10036000  0.94307000  1
  C  C63  1  0.76214000  0.21812000  0.95655000  1
  C  C64  1  0.14984000  0.40497000  0.14864000  1
  C  C65  1  0.22363000  0.53186000  0.20420000  1
  C  C66  1  0.34058000  0.54807000  0.25597000  1
  C  C67  1  0.18538000  0.63771000  0.20567000  1
  C  C68  1  0.41942000  0.66796000  0.30586000  1
  C  C69  1  0.26440000  0.75812000  0.25574000  1
  C  C70  1  0.38502000  0.77638000  0.30560000  1
  C  C71  1  0.47796000  0.90645000  0.35485000  1
  C  C72  1  0.62809000  0.94467000  0.37206000  1
  C  C73  1  0.42164000  0.99513000  0.38505000  1
  C  C74  1  0.71930000  0.06648000  0.41887000  1
  C  C75  1  0.51366000  0.11958000  0.42939000  1
  C  C76  1  0.66240000  0.15511000  0.44671000  1
  C  C77  1  0.87470000  0.10074000  0.44260000  1
  C  C78  1  0.45655000  0.21819000  0.45646000  1
  C  C79  1  0.74593000  0.59430000  0.35293000  1
  C  C80  1  0.69320000  0.46794000  0.29687000  1
  C  C81  1  0.79352000  0.45138000  0.24505000  1
  C  C82  1  0.54885000  0.36293000  0.29487000  1
  C  C83  1  0.75164000  0.33180000  0.19462000  1
  C  C84  1  0.50690000  0.24271000  0.24453000  1
  C  C85  1  0.60870000  0.22382000  0.19468000  1
  C  C86  1  0.57098000  0.09356000  0.14535000  1
  C  C87  1  0.68266000  0.05512000  0.12798000  1
  C  C88  1  0.42586000  0.00489000  0.11534000  1
  C  C89  1  0.65203000  0.93360000  0.08082000  1
  C  C90  1  0.39344000  0.88054000  0.07067000  1
  C  C91  1  0.50669000  0.84525000  0.05290000  1
  C  C92  1  0.77315000  0.89964000  0.05693000  1
  C  C93  1  0.23786000  0.78188000  0.04345000  1
  O  O94  1  0.94544000  0.60677000  0.90842000  1
  O  O95  1  0.82275000  0.69258000  0.84534000  1
  O  O96  1  0.09089000  0.01184000  0.92841000  1
  O  O97  1  0.73961000  0.78290000  0.02031000  1
  O  O98  1  0.13352000  0.81267000  0.05938000  1
  O  O99  1  0.77947000  0.33250000  0.99185000  1
  O  O100  1  0.33964000  0.39313000  0.59163000  1
  O  O101  1  0.12789000  0.30921000  0.65131000  1
  O  O102  1  0.07723000  0.98769000  0.57176000  1
  O  O103  1  0.95745000  0.21762000  0.47900000  1
  O  O104  1  0.32151000  0.18762000  0.44047000  1
  O  O105  1  0.44661000  0.66744000  0.50828000  1
  O  O106  1  0.05456000  0.39323000  0.09158000  1
  O  O107  1  0.17725000  0.30742000  0.15466000  1
  O  O108  1  0.90911000  0.98816000  0.07159000  1
  O  O109  1  0.26040000  0.21710000  0.97969000  1
  O  O110  1  0.86648000  0.18733000  0.94061000  1
  O  O111  1  0.22053000  0.66750000  0.00815000  1
  O  O112  1  0.66036000  0.60687000  0.40837000  1
  O  O113  1  0.87212000  0.69079000  0.34869000  1
  O  O114  1  0.92278000  0.01231000  0.42824000  1
  O  O115  1  0.04255000  0.78238000  0.52100000  1
  O  O116  1  0.67849000  0.81238000  0.55953000  1
  O  O117  1  0.55339000  0.33256000  0.49172000  1
