# generated using pymatgen
data_H32C45N4
_symmetry_space_group_name_H-M   'P 1'
_cell_length_a   31.03440000
_cell_length_b   45.87630000
_cell_length_c   45.87630000
_cell_angle_alpha   90.00000000
_cell_angle_beta   90.00000000
_cell_angle_gamma   90.00000000
_symmetry_Int_Tables_number   1
_chemical_formula_structural   H32C45N4
_chemical_formula_sum   'H256 C360 N32'
_cell_volume   65316.08139301
_cell_formula_units_Z   8
loop_
 _symmetry_equiv_pos_site_id
 _symmetry_equiv_pos_as_xyz
  1  'x, y, z'
loop_
 _atom_site_type_symbol
 _atom_site_label
 _atom_site_symmetry_multiplicity
 _atom_site_fract_x
 _atom_site_fract_y
 _atom_site_fract_z
 _atom_site_occupancy
  H  25  1  0.00208800  0.18360800  0.18734800  1
  H  26  1  0.99113500  0.14719000  0.15177400  1
  H  27  1  0.99105100  0.10995000  0.11670600  1
  H  28  1  0.00152000  0.07335400  0.08128900  1
  H  29  1  0.13704300  0.08581900  0.08596700  1
  H  30  1  0.13762500  0.17671900  0.17584200  1
  H  31  1  0.12453700  0.17588100  0.08600500  1
  H  32  1  0.26002600  0.18854600  0.08138800  1
  H  33  1  0.27059500  0.15189600  0.11672800  1
  H  34  1  0.12418800  0.08506900  0.17596700  1
  H  35  1  0.27060700  0.11463000  0.15173500  1
  H  36  1  0.25975600  0.07831400  0.18741600  1
  H  42  1  0.10530000  0.21155100  0.21332300  1
  H  43  1  0.10137600  0.04301900  0.05629200  1
  H  44  1  0.15661800  0.05029900  0.21346300  1
  H  45  1  0.16006600  0.21871800  0.05635700  1
  H  70  1  0.50245500  0.57334400  0.08093000  1
  H  71  1  0.49205100  0.61082900  0.11538100  1
  H  72  1  0.49216300  0.65093500  0.14695600  1
  H  73  1  0.50281300  0.68854000  0.18124100  1
  H  74  1  0.63839800  0.67688900  0.17555300  1
  H  75  1  0.63809200  0.58485900  0.08634600  1
  H  76  1  0.62532500  0.58605600  0.17650800  1
  H  77  1  0.76099100  0.57815400  0.18662200  1
  H  78  1  0.77178200  0.61353600  0.14997600  1
  H  79  1  0.62529000  0.67570600  0.08571700  1
  H  80  1  0.77176600  0.64801200  0.11198600  1
  H  81  1  0.76095200  0.68353500  0.07548100  1
  H  87  1  0.60213800  0.54216800  0.05661300  1
  H  88  1  0.60270800  0.71974100  0.20515200  1
  H  89  1  0.65785000  0.71042900  0.04820700  1
  H  90  1  0.65793400  0.55154600  0.21421400  1
  H  115  1  0.76054000  0.07344700  0.68163000  1
  H  116  1  0.77079600  0.11079200  0.64698900  1
  H  117  1  0.77045800  0.15075900  0.61523000  1
  H  118  1  0.75964100  0.18820100  0.58080700  1
  H  119  1  0.62408100  0.17645500  0.58671200  1
  H  120  1  0.62488700  0.08490900  0.67639400  1
  H  121  1  0.63673500  0.08588500  0.58577500  1
  H  122  1  0.50119200  0.07348800  0.58130200  1
  H  123  1  0.49090300  0.10990700  0.61694100  1
  H  124  1  0.63790800  0.17635000  0.67603500  1
  H  125  1  0.49125800  0.14698400  0.65219000  1
  H  126  1  0.50241600  0.18329800  0.68782500  1
  H  132  1  0.66087300  0.04230600  0.70611800  1
  H  133  1  0.65961300  0.21919800  0.55684900  1
  H  134  1  0.60573700  0.21131000  0.71350300  1
  H  135  1  0.60113900  0.04334600  0.55595100  1
  H  160  1  0.26027300  0.68320000  0.57462100  1
  H  161  1  0.27143400  0.64694800  0.61032100  1
  H  162  1  0.27178600  0.60985700  0.64555700  1
  H  163  1  0.26150600  0.57342600  0.68118600  1
  H  164  1  0.12597000  0.58586200  0.67676900  1
  H  165  1  0.12478400  0.67626800  0.58642400  1
  H  166  1  0.13862300  0.67652100  0.67574500  1
  H  167  1  0.00306700  0.68830500  0.68161300  1
  H  168  1  0.99223700  0.65079100  0.64726800  1
  H  169  1  0.13781600  0.58492200  0.58614700  1
  H  170  1  0.99189600  0.61078500  0.61555900  1
  H  171  1  0.00216200  0.57345200  0.58090300  1
  H  177  1  0.15694400  0.71117100  0.54890400  1
  H  178  1  0.16159000  0.54329100  0.70656900  1
  H  179  1  0.10183600  0.54233000  0.55642800  1
  H  180  1  0.10305500  0.71939700  0.70541200  1
  H  205  1  0.51078500  0.93360800  0.43676300  1
  H  206  1  0.52172100  0.89808400  0.40027400  1
  H  207  1  0.52184600  0.86362600  0.36227200  1
  H  208  1  0.51118100  0.82827200  0.32558600  1
  H  209  1  0.37547700  0.83612600  0.33554300  1
  H  210  1  0.37515800  0.92574500  0.42635900  1
  H  211  1  0.38825900  0.83484700  0.42570100  1
  H  212  1  0.25265100  0.82327400  0.43128600  1
  H  213  1  0.24211800  0.86078600  0.39687600  1
  H  214  1  0.38825900  0.92686100  0.33648300  1
  H  215  1  0.24212000  0.90091800  0.36532600  1
  H  216  1  0.25265100  0.93849000  0.33098300  1
  H  222  1  0.40760900  0.96045200  0.46393600  1
  H  223  1  0.40819500  0.80161200  0.29789200  1
  H  224  1  0.35231900  0.96977200  0.30697100  1
  H  225  1  0.35236700  0.79201600  0.45532400  1
  H  250  1  0.01154400  0.82803300  0.82602100  1
  H  251  1  0.02200700  0.86348400  0.86265600  1
  H  252  1  0.02159700  0.89814300  0.90047700  1
  H  253  1  0.01047200  0.93384500  0.93674900  1
  H  254  1  0.87488700  0.92578700  0.92619200  1
  H  255  1  0.87580500  0.83578800  0.83572500  1
  H  256  1  0.88903900  0.92678700  0.83700200  1
  H  257  1  0.75355700  0.93366000  0.82509400  1
  H  258  1  0.74240200  0.89705100  0.86042000  1
  H  259  1  0.88781100  0.83546800  0.92644100  1
  H  260  1  0.74202800  0.85965200  0.89529400  1
  H  261  1  0.75227100  0.82294700  0.93064100  1
  H  267  1  0.90867800  0.80142600  0.79805200  1
  H  268  1  0.90717400  0.96070400  0.96367500  1
  H  269  1  0.85207700  0.79275900  0.95607200  1
  H  270  1  0.85691300  0.96188200  0.79967200  1
  H  295  1  0.75168200  0.43850900  0.33128600  1
  H  296  1  0.74107400  0.40184300  0.36660700  1
  H  297  1  0.74102900  0.36459800  0.40165800  1
  H  298  1  0.75185600  0.32828900  0.43735800  1
  H  299  1  0.88742500  0.33505100  0.42595400  1
  H  300  1  0.88716700  0.42588600  0.33601600  1
  H  301  1  0.87464200  0.33589000  0.33583100  1
  H  302  1  0.01014800  0.32323600  0.33138000  1
  H  303  1  0.02059400  0.35975800  0.36687300  1
  H  304  1  0.87400700  0.42673600  0.42574700  1
  H  305  1  0.02049500  0.39696900  0.40195200  1
  H  306  1  0.00952800  0.43343300  0.43747200  1
  H  312  1  0.85165500  0.46878200  0.30641300  1
  H  313  1  0.85497300  0.30035500  0.46351300  1
  H  314  1  0.90629700  0.46166500  0.46313000  1
  H  315  1  0.91034400  0.29309000  0.30612100  1
  H  340  1  0.25118500  0.32788800  0.93638000  1
  H  341  1  0.24073200  0.36339200  0.89979700  1
  H  342  1  0.24115400  0.39804400  0.86196900  1
  H  343  1  0.25229900  0.43376800  0.82572200  1
  H  344  1  0.38787600  0.42581900  0.83641800  1
  H  345  1  0.38693200  0.33570500  0.92675000  1
  H  346  1  0.37372100  0.42674700  0.92559000  1
  H  347  1  0.50921200  0.43372000  0.93736800  1
  H  348  1  0.52035500  0.39712400  0.90202700  1
  H  349  1  0.37493500  0.33548200  0.83606700  1
  H  350  1  0.52072200  0.35973400  0.86713800  1
  H  351  1  0.51048500  0.32306900  0.83174700  1
  H  357  1  0.35403600  0.30125600  0.96434200  1
  H  358  1  0.35561800  0.46075000  0.79894800  1
  H  359  1  0.41072500  0.29279600  0.80638100  1
  H  360  1  0.40587200  0.46189600  0.96286700  1
  H  366  1  0.06849700  0.99602300  0.02942100  1
  H  367  1  0.03420100  0.96211000  0.99760400  1
  H  370  1  0.98698500  0.08296400  0.02488900  1
  H  371  1  0.93615100  0.06789000  0.01775300  1
  H  372  1  0.96918500  0.08073500  0.98883700  1
  H  374  1  0.91809400  0.01206100  0.95314300  1
  H  375  1  0.93828100  0.04736000  0.95532900  1
  H  376  1  0.90232100  0.03418600  0.98245900  1
  H  384  1  0.56974200  0.76662000  0.23252100  1
  H  385  1  0.53519000  0.80040600  0.26435200  1
  H  388  1  0.48895400  0.67937000  0.23710300  1
  H  389  1  0.43793000  0.69429900  0.24396500  1
  H  390  1  0.47079300  0.68164600  0.27305800  1
  H  392  1  0.41902800  0.75017800  0.30846800  1
  H  393  1  0.43954100  0.71495000  0.30645900  1
  H  394  1  0.40367400  0.72791100  0.27916800  1
  H  402  1  0.69293400  0.26619400  0.52940400  1
  H  403  1  0.72775300  0.29984500  0.49756200  1
  H  406  1  0.77330000  0.17876500  0.52509200  1
  H  407  1  0.82440700  0.19355700  0.51821700  1
  H  408  1  0.79151200  0.18089800  0.48914100  1
  H  410  1  0.84361500  0.24919800  0.45354300  1
  H  411  1  0.82305100  0.21401000  0.45574700  1
  H  412  1  0.85892700  0.22708000  0.48297700  1
  H  420  1  0.19439900  0.49618600  0.73320400  1
  H  421  1  0.22851500  0.46225400  0.76509600  1
  H  424  1  0.27630000  0.58296900  0.73761800  1
  H  425  1  0.32705000  0.56780500  0.74483700  1
  H  426  1  0.29401700  0.58079000  0.77369300  1
  H  428  1  0.34473700  0.51207900  0.80957900  1
  H  429  1  0.32482000  0.54743500  0.80723800  1
  H  430  1  0.36071200  0.53403600  0.78018000  1
  H  438  1  0.44396200  0.24583900  0.77956100  1
  H  439  1  0.47853300  0.21206300  0.74773800  1
  H  442  1  0.52485000  0.33304800  0.77514000  1
  H  443  1  0.57579300  0.31815100  0.76798000  1
  H  444  1  0.54266500  0.33093100  0.73908300  1
  H  446  1  0.59423100  0.26246600  0.70329300  1
  H  447  1  0.57390200  0.29771300  0.70559000  1
  H  448  1  0.60991300  0.28453200  0.73268500  1
  H  456  1  0.31911200  0.74530100  0.48286100  1
  H  457  1  0.28421900  0.71164800  0.51466000  1
  H  460  1  0.23885500  0.83278200  0.48720100  1
  H  461  1  0.18773700  0.81801200  0.49407200  1
  H  462  1  0.22064600  0.83063700  0.52315400  1
  H  464  1  0.16841000  0.76233000  0.55867600  1
  H  465  1  0.18902000  0.79750900  0.55651600  1
  H  466  1  0.15314900  0.78448500  0.52926000  1
  H  474  1  0.81893900  0.51583700  0.27959900  1
  H  475  1  0.78481900  0.54982200  0.24777300  1
  H  478  1  0.73714900  0.42902300  0.27494300  1
  H  479  1  0.68636700  0.44417700  0.26780500  1
  H  480  1  0.71937900  0.43131000  0.23888600  1
  H  482  1  0.66855100  0.50009700  0.20323200  1
  H  483  1  0.68864500  0.46476700  0.20537000  1
  H  484  1  0.65270100  0.47794600  0.23250800  1
  H  492  1  0.56852700  0.99627400  0.52940600  1
  H  493  1  0.53459400  0.96226100  0.49751800  1
  H  496  1  0.48637600  0.08294200  0.52480700  1
  H  497  1  0.43568400  0.06769700  0.51757200  1
  H  498  1  0.46871500  0.08068900  0.48872000  1
  H  500  1  0.41826500  0.01184600  0.45289800  1
  H  501  1  0.43808100  0.04723600  0.45518000  1
  H  502  1  0.40218900  0.03384100  0.48224400  1
  H  510  1  0.07017100  0.76631000  0.73286400  1
  H  511  1  0.03566600  0.80010500  0.76471000  1
  H  514  1  0.98910800  0.67916500  0.73728200  1
  H  515  1  0.93811700  0.69415500  0.74410500  1
  H  516  1  0.97087700  0.68143200  0.77322000  1
  H  518  1  0.91925700  0.74998100  0.80866500  1
  H  519  1  0.93967000  0.71473000  0.80662500  1
  H  520  1  0.90389000  0.72777400  0.77932100  1
  H  528  1  0.19289700  0.26576000  0.02952300  1
  H  529  1  0.22711600  0.29968000  0.99767300  1
  H  532  1  0.27457600  0.17888400  0.02504700  1
  H  533  1  0.32539000  0.19400700  0.01794600  1
  H  534  1  0.29243600  0.18111100  0.98900900  1
  H  536  1  0.34340900  0.24981700  0.95330200  1
  H  537  1  0.32327700  0.21449900  0.95547700  1
  H  538  1  0.35917200  0.22770600  0.98263100  1
  H  546  1  0.94350400  0.24617700  0.27916400  1
  H  547  1  0.97806600  0.21240100  0.24733900  1
  H  550  1  0.02467800  0.33327400  0.27498500  1
  H  551  1  0.07559400  0.31831700  0.26786800  1
  H  552  1  0.04259300  0.33119700  0.23894900  1
  H  554  1  0.09404000  0.26272100  0.20310400  1
  H  555  1  0.07382200  0.29799200  0.20544600  1
  H  556  1  0.10971100  0.28470200  0.23256200  1
  H  564  1  0.81922300  0.74580300  0.98283300  1
  H  565  1  0.78500000  0.71192300  0.01471900  1
  H  568  1  0.73742700  0.83264100  0.98708600  1
  H  569  1  0.68663100  0.81750900  0.99422500  1
  H  570  1  0.71956900  0.83048700  0.02313200  1
  H  572  1  0.66863800  0.76181500  0.05896200  1
  H  573  1  0.68861300  0.79716300  0.05666000  1
  H  574  1  0.65281100  0.78378100  0.02953600  1
  H  582  1  0.56844300  0.49537100  0.02910200  1
  H  583  1  0.53325600  0.46187600  0.99728100  1
  H  586  1  0.48873200  0.58308700  0.02502200  1
  H  587  1  0.43749800  0.56848300  0.01818000  1
  H  588  1  0.47042300  0.58106200  0.98908700  1
  H  590  1  0.41766500  0.51298300  0.95348900  1
  H  591  1  0.43849100  0.54810000  0.95571100  1
  H  592  1  0.40260500  0.53511000  0.98297500  1
  H  600  1  0.69447700  0.99551500  0.73346700  1
  H  601  1  0.72956100  0.96196900  0.76528300  1
  H  604  1  0.77437600  0.08315300  0.73763100  1
  H  605  1  0.82556100  0.06849500  0.74451500  1
  H  606  1  0.79261700  0.08110700  0.77358200  1
  H  608  1  0.84516500  0.01296100  0.80920400  1
  H  609  1  0.82443600  0.04810000  0.80696500  1
  H  610  1  0.86033200  0.03507000  0.77972700  1
  H  618  1  0.31890700  0.01644500  0.27936600  1
  H  619  1  0.28387900  0.05003300  0.24756600  1
  H  622  1  0.23893200  0.92884500  0.27509400  1
  H  623  1  0.18775400  0.94352600  0.26823200  1
  H  624  1  0.22068900  0.93094400  0.23914500  1
  H  626  1  0.16818400  0.99915300  0.20361500  1
  H  627  1  0.18891900  0.96400900  0.20578300  1
  H  628  1  0.15302600  0.97698700  0.23304800  1
  H  636  1  0.06852400  0.49564800  0.52906400  1
  H  637  1  0.03366500  0.46203600  0.49720400  1
  H  640  1  0.98816800  0.58310000  0.52490200  1
  H  641  1  0.93707300  0.56832600  0.51796600  1
  H  642  1  0.96999700  0.58104000  0.48893400  1
  H  644  1  0.91785500  0.51277600  0.45323600  1
  H  645  1  0.93831000  0.54798400  0.45554600  1
  H  646  1  0.90249200  0.53478300  0.48274800  1
  C  1  1  0.16162900  0.11313100  0.14961100  1
  C  2  1  0.20401700  0.12109500  0.14306200  1
  C  3  1  0.20401500  0.14240300  0.12196900  1
  C  4  1  0.16165700  0.14901100  0.11385800  1
  C  5  1  0.15529000  0.17078800  0.09219900  1
  C  6  1  0.19117000  0.18540600  0.07918400  1
  C  7  1  0.23319700  0.17814000  0.08916100  1
  C  8  1  0.23992800  0.15661000  0.11013000  1
  C  9  1  0.23983300  0.10851400  0.15676600  1
  C  10  1  0.23293000  0.08703700  0.17779800  1
  C  11  1  0.19073200  0.07765500  0.18539000  1
  C  12  1  0.15503800  0.09118700  0.17103700  1
  C  13  1  0.10010500  0.14859400  0.14960400  1
  C  14  1  0.05770200  0.14064500  0.14308600  1
  C  15  1  0.05765900  0.11931300  0.12201200  1
  C  16  1  0.10000000  0.11269400  0.11386300  1
  C  17  1  0.02171100  0.10517900  0.11013100  1
  C  18  1  0.02838000  0.08369200  0.08910500  1
  C  19  1  0.07038700  0.07636800  0.07913500  1
  C  20  1  0.10630400  0.09092900  0.09217900  1
  C  21  1  0.10676000  0.17059700  0.17096100  1
  C  22  1  0.07110700  0.18421100  0.18527900  1
  C  23  1  0.02888600  0.17483100  0.17774400  1
  C  24  1  0.02192400  0.15329100  0.15678000  1
  C  37  1  0.13084700  0.13084500  0.13151100  1
  C  38  1  0.07450600  0.05466300  0.05782300  1
  C  39  1  0.07615500  0.20634900  0.20605100  1
  C  40  1  0.18575600  0.05558700  0.20624400  1
  C  41  1  0.18699600  0.20714000  0.05792000  1
  C  46  1  0.66272200  0.64835400  0.11280800  1
  C  47  1  0.70514000  0.64110600  0.12012600  1
  C  48  1  0.70514600  0.62044200  0.14186000  1
  C  49  1  0.66273200  0.61324400  0.14923900  1
  C  50  1  0.65618100  0.59177800  0.17114300  1
  C  51  1  0.69192500  0.57810600  0.18530600  1
  C  52  1  0.73413700  0.58695000  0.17711100  1
  C  53  1  0.74100600  0.60784700  0.15549300  1
  C  54  1  0.74098700  0.65371800  0.10649800  1
  C  55  1  0.73410100  0.67470300  0.08496700  1
  C  56  1  0.69188400  0.68361800  0.07686000  1
  C  57  1  0.65614900  0.66991800  0.09100400  1
  C  58  1  0.60108100  0.61249400  0.11352800  1
  C  59  1  0.55873100  0.61982900  0.12094600  1
  C  60  1  0.55879600  0.64183900  0.14129100  1
  C  61  1  0.60119100  0.64916700  0.14858900  1
  C  62  1  0.52288400  0.65606400  0.15311200  1
  C  63  1  0.52966700  0.67818600  0.17344100  1
  C  64  1  0.57175200  0.68595900  0.18290000  1
  C  65  1  0.60761600  0.67142900  0.16975400  1
  C  66  1  0.60734800  0.59030700  0.09225800  1
  C  67  1  0.57138800  0.57586600  0.07912500  1
  C  68  1  0.52937000  0.58362800  0.08872500  1
  C  69  1  0.52273300  0.60566500  0.10916800  1
  C  82  1  0.63191500  0.63081100  0.13103700  1
  C  83  1  0.57591900  0.70798400  0.20387300  1
  C  84  1  0.57538100  0.55394100  0.05802300  1
  C  85  1  0.68691800  0.70549000  0.05579900  1
  C  86  1  0.68697900  0.55635900  0.20649800  1
  C  91  1  0.60025000  0.14824600  0.64987100  1
  C  92  1  0.55778100  0.14038500  0.64339500  1
  C  93  1  0.55753900  0.11922100  0.62215700  1
  C  94  1  0.59981500  0.11263400  0.61386300  1
  C  95  1  0.60602400  0.09099000  0.59205500  1
  C  96  1  0.57005100  0.07648500  0.57904400  1
  C  97  1  0.52808500  0.08378900  0.58911000  1
  C  98  1  0.52152400  0.10517200  0.61026500  1
  C  99  1  0.52208200  0.15301600  0.65718600  1
  C  100  1  0.52916700  0.17450100  0.67818000  1
  C  101  1  0.57143300  0.18385300  0.68563500  1
  C  102  1  0.60702000  0.17021800  0.67124400  1
  C  103  1  0.66179800  0.11245800  0.64906400  1
  C  104  1  0.70409300  0.11976600  0.64151600  1
  C  105  1  0.70386100  0.14161400  0.62100200  1
  C  106  1  0.66141100  0.14884700  0.61371700  1
  C  107  1  0.73971100  0.15582300  0.60908100  1
  C  108  1  0.73282500  0.17784100  0.58866100  1
  C  109  1  0.69069800  0.18554100  0.57922200  1
  C  110  1  0.65489200  0.17101600  0.59246200  1
  C  111  1  0.65560800  0.09035900  0.67043100  1
  C  112  1  0.69161300  0.07595400  0.68352400  1
  C  113  1  0.73359500  0.08370800  0.67384800  1
  C  114  1  0.74014300  0.10566400  0.65329800  1
  C  127  1  0.63082600  0.13062100  0.63152200  1
  C  128  1  0.68647000  0.20752100  0.55820100  1
  C  129  1  0.68764600  0.05405800  0.70464600  1
  C  130  1  0.57655700  0.20603600  0.70635300  1
  C  131  1  0.57413400  0.05481800  0.55771000  1
  C  136  1  0.10089700  0.61244900  0.61349500  1
  C  137  1  0.05860200  0.61974700  0.62104800  1
  C  138  1  0.05883500  0.64161400  0.64153800  1
  C  139  1  0.10128700  0.64885700  0.64880500  1
  C  140  1  0.10781100  0.67106900  0.67001000  1
  C  141  1  0.07200700  0.68562100  0.68321700  1
  C  142  1  0.02987700  0.67791400  0.67379400  1
  C  143  1  0.02298400  0.65583900  0.65343700  1
  C  144  1  0.02254800  0.60566100  0.60924900  1
  C  145  1  0.02910100  0.58371100  0.58869800  1
  C  146  1  0.07109200  0.57596400  0.57902400  1
  C  147  1  0.10709500  0.59036100  0.59212000  1
  C  148  1  0.16244500  0.64821700  0.61264700  1
  C  149  1  0.20491200  0.64036300  0.61913200  1
  C  150  1  0.20515500  0.61921000  0.64038500  1
  C  151  1  0.16288200  0.61263800  0.64870000  1
  C  152  1  0.24116800  0.60513800  0.65225300  1
  C  153  1  0.23461200  0.58374300  0.67339700  1
  C  154  1  0.19265300  0.57644300  0.68347900  1
  C  155  1  0.15668000  0.59096900  0.67048700  1
  C  156  1  0.15567500  0.67014900  0.59123300  1
  C  157  1  0.19125600  0.68375100  0.57680300  1
  C  158  1  0.23352200  0.67441500  0.58427700  1
  C  159  1  0.24061000  0.65296800  0.60531200  1
  C  172  1  0.13187400  0.63061500  0.63102000  1
  C  173  1  0.18859300  0.55476700  0.70481400  1
  C  174  1  0.18613200  0.70588900  0.55603000  1
  C  175  1  0.07507500  0.55409800  0.55788000  1
  C  176  1  0.07625200  0.70765000  0.70418200  1
  C  181  1  0.35114600  0.89916500  0.36353600  1
  C  182  1  0.30877400  0.89182100  0.37088600  1
  C  183  1  0.30877600  0.86982300  0.39124100  1
  C  184  1  0.35114900  0.86249000  0.39859500  1
  C  185  1  0.35749700  0.84028900  0.41983700  1
  C  186  1  0.32158800  0.82581800  0.43299700  1
  C  187  1  0.27953300  0.83358000  0.42346700  1
  C  188  1  0.27282200  0.85563500  0.40305300  1
  C  189  1  0.27282100  0.90606200  0.35913700  1
  C  190  1  0.27953100  0.92815400  0.33876300  1
  C  191  1  0.32158300  0.93590300  0.32921800  1
  C  192  1  0.35749700  0.92140700  0.34234000  1
  C  193  1  0.41267700  0.89840700  0.39931500  1
  C  194  1  0.45511700  0.89116700  0.39205000  1
  C  195  1  0.45518800  0.87051000  0.37030900  1
  C  196  1  0.41279700  0.86330800  0.36287300  1
  C  197  1  0.49109400  0.85793500  0.35671100  1
  C  198  1  0.48429100  0.83706100  0.33506400  1
  C  199  1  0.44210600  0.82822000  0.32680000  1
  C  200  1  0.40631700  0.84185900  0.34094300  1
  C  201  1  0.40603600  0.91996700  0.42110800  1
  C  202  1  0.44172300  0.93368600  0.43528500  1
  C  203  1  0.48396600  0.92477500  0.42723800  1
  C  204  1  0.49092300  0.90378800  0.40571900  1
  C  217  1  0.38192400  0.88083500  0.38107000  1
  C  218  1  0.43723400  0.80649900  0.30557100  1
  C  219  1  0.43668600  0.95556700  0.45632500  1
  C  220  1  0.32567100  0.95786400  0.30817200  1
  C  221  1  0.32568000  0.80388300  0.45407300  1
  C  226  1  0.85094200  0.86233600  0.89843300  1
  C  227  1  0.80867300  0.86901200  0.89019500  1
  C  228  1  0.80891500  0.89049800  0.86928500  1
  C  229  1  0.85137400  0.89852200  0.86298700  1
  C  230  1  0.85814700  0.92063800  0.84176500  1
  C  231  1  0.82257100  0.93427700  0.82737000  1
  C  232  1  0.78030500  0.92485400  0.83473800  1
  C  233  1  0.77321900  0.90320600  0.85556100  1
  C  234  1  0.77264500  0.85483900  0.90192000  1
  C  235  1  0.77918000  0.83329200  0.92290900  1
  C  236  1  0.82112100  0.82597500  0.93301000  1
  C  237  1  0.85711600  0.84054700  0.92010200  1
  C  238  1  0.91298300  0.86298500  0.86313300  1
  C  239  1  0.95530700  0.87029000  0.87060400  1
  C  240  1  0.95504000  0.89110900  0.89219200  1
  C  241  1  0.91253900  0.89837200  0.89930700  1
  C  242  1  0.99077100  0.90385600  0.90583300  1
  C  243  1  0.98369800  0.92494700  0.92722700  1
  C  244  1  0.94141300  0.93382600  0.93520100  1
  C  245  1  0.90579100  0.92003000  0.92100000  1
  C  246  1  0.90661600  0.84151000  0.84121600  1
  C  247  1  0.94247600  0.82790400  0.82713700  1
  C  248  1  0.98461000  0.83678200  0.83547200  1
  C  249  1  0.99128700  0.85771200  0.85709300  1
  C  262  1  0.88195000  0.88063300  0.88108200  1
  C  263  1  0.93630600  0.95573000  0.95622700  1
  C  264  1  0.93767800  0.80624100  0.80584700  1
  C  265  1  0.82512300  0.80429300  0.95433900  1
  C  266  1  0.82770700  0.95648000  0.80667500  1
  C  271  1  0.91153300  0.39852800  0.39960500  1
  C  272  1  0.95393800  0.39051700  0.39316300  1
  C  273  1  0.95399300  0.36919300  0.37208700  1
  C  274  1  0.91166200  0.36263600  0.36386700  1
  C  275  1  0.90537200  0.34093600  0.34211800  1
  C  276  1  0.94129700  0.32636700  0.32910200  1
  C  277  1  0.98328900  0.33359500  0.33917000  1
  C  278  1  0.98994600  0.35503100  0.36025100  1
  C  279  1  0.98970800  0.40311600  0.40690500  1
  C  280  1  0.98273500  0.42467900  0.42784100  1
  C  281  1  0.94051400  0.43413200  0.43528800  1
  C  282  1  0.90486600  0.42055700  0.42092900  1
  C  283  1  0.85001800  0.39897700  0.36381100  1
  C  284  1  0.80764900  0.39238100  0.37191700  1
  C  285  1  0.80762000  0.37105400  0.39299600  1
  C  286  1  0.85000200  0.36308900  0.39956300  1
  C  287  1  0.77179800  0.35847500  0.40669600  1
  C  288  1  0.77868400  0.33700600  0.42773900  1
  C  289  1  0.82087600  0.32762900  0.43535100  1
  C  290  1  0.85657800  0.34115800  0.42100600  1
  C  291  1  0.85640700  0.42078100  0.34218300  1
  C  292  1  0.82054400  0.43541000  0.32915400  1
  C  293  1  0.77850400  0.42811000  0.33907900  1
  C  294  1  0.77175000  0.40656900  0.36003700  1
  C  307  1  0.88080300  0.38080600  0.38148200  1
  C  308  1  0.82584400  0.30558500  0.45623300  1
  C  309  1  0.82474900  0.45717000  0.30791500  1
  C  310  1  0.93545800  0.45632500  0.45599500  1
  C  311  1  0.93720500  0.30473700  0.30771900  1
  C  316  1  0.41180400  0.36234800  0.86407900  1
  C  317  1  0.45407300  0.36905300  0.87228800  1
  C  318  1  0.45383200  0.39051500  0.89323000  1
  C  319  1  0.41137200  0.39851300  0.89956000  1
  C  320  1  0.40461200  0.42061600  0.92079900  1
  C  321  1  0.44019500  0.43428100  0.93517100  1
  C  322  1  0.48245800  0.42489000  0.92775700  1
  C  323  1  0.48953400  0.40324900  0.90692300  1
  C  324  1  0.49010100  0.35490600  0.86052600  1
  C  325  1  0.48357300  0.33338300  0.83951300  1
  C  326  1  0.44162900  0.32604600  0.82943200  1
  C  327  1  0.40563000  0.34057400  0.84238900  1
  C  328  1  0.34976300  0.36294500  0.89938100  1
  C  329  1  0.30743700  0.37024100  0.89190200  1
  C  330  1  0.30770800  0.39106400  0.87032200  1
  C  331  1  0.35021100  0.39835600  0.86324200  1
  C  332  1  0.27198200  0.40378300  0.85664900  1
  C  333  1  0.27906800  0.42488600  0.83526700  1
  C  334  1  0.32135700  0.43381000  0.82735200  1
  C  335  1  0.35697100  0.42002700  0.84157100  1
  C  336  1  0.35612400  0.34142900  0.92125900  1
  C  337  1  0.32025800  0.32778300  0.93529000  1
  C  338  1  0.27812400  0.33666600  0.92695900  1
  C  339  1  0.27145200  0.35762900  0.90537100  1
  C  352  1  0.38080000  0.38061700  0.88146300  1
  C  353  1  0.32648300  0.45575600  0.80638100  1
  C  354  1  0.32504900  0.30607100  0.95652800  1
  C  355  1  0.43763400  0.30437900  0.80808100  1
  C  356  1  0.43508200  0.45647900  0.95588100  1
  C  361  1  0.98334700  0.99005700  0.98432000  1
  C  362  1  0.02129100  0.98258300  0.99952600  1
  C  363  1  0.04192600  0.00256700  0.01795000  1
  C  364  1  0.02533900  0.03087200  0.02143300  1
  C  365  1  0.98736800  0.03926100  0.00597200  1
  C  368  1  0.96686200  0.01896600  0.98658300  1
  C  369  1  0.96916300  0.06930200  0.00967900  1
  C  373  1  0.92938800  0.02842200  0.96840300  1
  C  379  1  0.48444600  0.77231300  0.27752900  1
  C  380  1  0.52240400  0.77990100  0.26239000  1
  C  381  1  0.54320700  0.75999100  0.24397500  1
  C  382  1  0.52678000  0.73165200  0.24044900  1
  C  383  1  0.48883500  0.72313100  0.25587500  1
  C  386  1  0.46811900  0.74336800  0.27522000  1
  C  387  1  0.47088400  0.69302000  0.25218200  1
  C  391  1  0.43059000  0.73381800  0.29330200  1
  C  397  1  0.77833900  0.27159500  0.48444100  1
  C  398  1  0.74040100  0.27930300  0.49954300  1
  C  399  1  0.71945600  0.25948000  0.51798200  1
  C  400  1  0.73573200  0.23111000  0.52157600  1
  C  401  1  0.77365700  0.22247000  0.50619800  1
  C  404  1  0.79451500  0.24261700  0.48682600  1
  C  405  1  0.79145700  0.19233100  0.50998400  1
  C  409  1  0.83203100  0.23293700  0.46880600  1
  C  415  1  0.27938700  0.49016600  0.77842300  1
  C  416  1  0.24148200  0.48270900  0.76316900  1
  C  417  1  0.22096100  0.50270100  0.74470000  1
  C  418  1  0.23767900  0.53096900  0.74118600  1
  C  419  1  0.27567600  0.53931300  0.75664500  1
  C  422  1  0.29607100  0.51901300  0.77608000  1
  C  423  1  0.29402600  0.56930700  0.75287800  1
  C  427  1  0.33358800  0.52841600  0.79424200  1
  C  433  1  0.52917100  0.24020400  0.73446800  1
  C  434  1  0.49126100  0.23259000  0.74964800  1
  C  435  1  0.47046500  0.25249000  0.76807800  1
  C  436  1  0.48686900  0.28083800  0.77160300  1
  C  437  1  0.52477900  0.28937400  0.75615500  1
  C  440  1  0.54544600  0.26916500  0.73675500  1
  C  441  1  0.54276800  0.31946800  0.75990800  1
  C  445  1  0.58287600  0.27875400  0.71860800  1
  C  451  1  0.23366600  0.73992000  0.52778800  1
  C  452  1  0.27161300  0.73220300  0.51270200  1
  C  453  1  0.29260900  0.75203300  0.49429400  1
  C  454  1  0.27637500  0.78041300  0.49070000  1
  C  455  1  0.23845000  0.78906500  0.50607600  1
  C  458  1  0.21754500  0.76891300  0.52542300  1
  C  459  1  0.22068600  0.81921800  0.50230500  1
  C  463  1  0.18002600  0.77860000  0.54343500  1
  C  469  1  0.73388500  0.52196000  0.23444500  1
  C  470  1  0.77183700  0.52936900  0.24967600  1
  C  471  1  0.79237500  0.50934100  0.26809900  1
  C  472  1  0.77566100  0.48106500  0.27155000  1
  C  473  1  0.73768800  0.47273800  0.25606200  1
  C  476  1  0.71728100  0.49307800  0.23667500  1
  C  477  1  0.71938200  0.44272300  0.25974000  1
  C  481  1  0.67979700  0.48369600  0.21846800  1
  C  487  1  0.48366000  0.99008800  0.48411900  1
  C  488  1  0.52155600  0.98269800  0.49941400  1
  C  489  1  0.54196900  0.00274100  0.51787700  1
  C  490  1  0.52515600  0.03098700  0.52133400  1
  C  491  1  0.48716200  0.03926200  0.50583800  1
  C  494  1  0.46686900  0.01891100  0.48641200  1
  C  495  1  0.46871200  0.06923400  0.50955200  1
  C  499  1  0.42934900  0.02823100  0.46820700  1
  C  505  1  0.98482000  0.77206500  0.77781300  1
  C  506  1  0.02279600  0.77963100  0.76269200  1
  C  507  1  0.04355300  0.75972100  0.74425500  1
  C  508  1  0.02708300  0.73139400  0.74071500  1
  C  509  1  0.98907900  0.72290900  0.75609600  1
  C  512  1  0.96838900  0.74315000  0.77545000  1
  C  513  1  0.97104800  0.69282600  0.75235500  1
  C  517  1  0.93079900  0.73362700  0.79348500  1
  C  523  1  0.27802600  0.27175900  0.98442500  1
  C  524  1  0.24006300  0.27921800  0.99961100  1
  C  525  1  0.21945600  0.25922700  0.01803500  1
  C  526  1  0.23612100  0.23094700  0.02153800  1
  C  527  1  0.27412600  0.22257400  0.00610500  1
  C  530  1  0.29459600  0.24287200  0.98670700  1
  C  531  1  0.29239300  0.19255600  0.00984500  1
  C  535  1  0.33211500  0.23344500  0.96855400  1
  C  541  1  0.02880700  0.24049700  0.23416000  1
  C  542  1  0.99084200  0.23291100  0.24928800  1
  C  543  1  0.97004900  0.25281200  0.26771800  1
  C  544  1  0.98653700  0.28113200  0.27129900  1
  C  545  1  0.02452300  0.28963500  0.25592300  1
  C  548  1  0.04517800  0.26942900  0.23651600  1
  C  549  1  0.04259800  0.31969400  0.25975500  1
  C  553  1  0.08269200  0.27899600  0.21843700  1
  C  559  1  0.73411400  0.73986900  0.02794900  1
  C  560  1  0.77205300  0.73238000  0.01275200  1
  C  561  1  0.79263600  0.75234200  0.99428800  1
  C  562  1  0.77595800  0.78061400  0.99073300  1
  C  563  1  0.73792600  0.78899500  0.00613400  1
  C  566  1  0.71744900  0.76872100  0.02555500  1
  C  567  1  0.71962400  0.81899500  0.00232100  1
  C  571  1  0.67987400  0.77814800  0.04364900  1
  C  577  1  0.48284100  0.49031600  0.98426600  1
  C  578  1  0.52077000  0.48246000  0.99930400  1
  C  579  1  0.54192700  0.50218900  0.01773500  1
  C  580  1  0.52590000  0.53061800  0.02138800  1
  C  581  1  0.48799400  0.53940400  0.00607000  1
  C  584  1  0.46691100  0.51935300  0.98670900  1
  C  585  1  0.47043600  0.56960300  0.00991500  1
  C  589  1  0.42941000  0.52918300  0.96875900  1
  C  595  1  0.77999500  0.99036700  0.77835300  1
  C  596  1  0.74206300  0.98255200  0.76330400  1
  C  597  1  0.72095100  0.00231600  0.74488900  1
  C  598  1  0.73707200  0.03072000  0.74124700  1
  C  599  1  0.77497800  0.03946900  0.75658400  1
  C  602  1  0.79599100  0.01938900  0.77594700  1
  C  603  1  0.79261000  0.06964900  0.75275200  1
  C  607  1  0.83348400  0.02917600  0.79392600  1
  C  613  1  0.23340500  0.02167500  0.23447400  1
  C  614  1  0.27133200  0.02946200  0.24954700  1
  C  615  1  0.29239700  0.00967800  0.26796400  1
  C  616  1  0.27625600  0.98127300  0.27156000  1
  C  617  1  0.23835400  0.97255400  0.25620400  1
  C  620  1  0.21737100  0.99266200  0.23685600  1
  C  621  1  0.22070200  0.94237300  0.25999000  1
  C  625  1  0.17987100  0.98291000  0.21886000  1
  C  631  1  0.98317000  0.49035500  0.48406900  1
  C  632  1  0.02105600  0.48258900  0.49919200  1
  C  633  1  0.04201000  0.50238500  0.51764600  1
  C  634  1  0.02576400  0.53076200  0.52125800  1
  C  635  1  0.98782900  0.53943100  0.50591000  1
  C  638  1  0.96694600  0.51931300  0.48652800  1
  C  639  1  0.97003000  0.56956600  0.50975300  1
  C  643  1  0.92939400  0.52900500  0.46855100  1
  N  377  1  0.96942100  0.96940000  0.96628900  1
  N  378  1  0.04181700  0.04829500  0.04170700  1
  N  395  1  0.47045800  0.79286400  0.29564000  1
  N  396  1  0.54342900  0.71429200  0.22019600  1
  N  413  1  0.79261000  0.29216600  0.46644100  1
  N  414  1  0.71894400  0.21385500  0.54187000  1
  N  431  1  0.29337200  0.46946200  0.79636900  1
  N  432  1  0.22133500  0.54838100  0.72086600  1
  N  449  1  0.54339700  0.21952700  0.71657600  1
  N  450  1  0.47036500  0.29813800  0.79195900  1
  N  467  1  0.21929200  0.71931600  0.54571900  1
  N  468  1  0.29315900  0.79768600  0.47041500  1
  N  485  1  0.72014900  0.54260200  0.21634700  1
  N  486  1  0.79209800  0.46360300  0.29179300  1
  N  503  1  0.46982400  0.96936000  0.46616200  1
  N  504  1  0.54139600  0.04843400  0.54165600  1
  N  521  1  0.97092900  0.79259200  0.79598600  1
  N  522  1  0.04377700  0.71402000  0.72049600  1
  N  539  1  0.29179900  0.29235800  0.96630200  1
  N  540  1  0.21967000  0.21353100  0.04180800  1
  N  557  1  0.04296200  0.21984500  0.21621600  1
  N  558  1  0.96992600  0.29844100  0.29161000  1
  N  575  1  0.72010100  0.71920100  0.04591600  1
  N  576  1  0.79236900  0.79798700  0.97040700  1
  N  593  1  0.46826100  0.46977400  0.96633700  1
  N  594  1  0.54281000  0.54778300  0.04171500  1
  N  611  1  0.79452800  0.96980300  0.79626000  1
  N  612  1  0.72025200  0.04790900  0.72091800  1
  N  629  1  0.21900200  0.04222100  0.21650100  1
  N  630  1  0.29315100  0.96403500  0.29182400  1
  N  647  1  0.96867600  0.46973500  0.46622700  1
  N  648  1  0.04247500  0.54797700  0.54159700  1
