# generated using pymatgen
data_CoH26C25S2(NO)4
_symmetry_space_group_name_H-M   'P 1'
_cell_length_a   12.07900000
_cell_length_b   12.07900000
_cell_length_c   24.53900000
_cell_angle_alpha   90.00000000
_cell_angle_beta   90.00000000
_cell_angle_gamma   90.00000000
_symmetry_Int_Tables_number   1
_chemical_formula_structural   CoH26C25S2(NO)4
_chemical_formula_sum   'Co4 H104 C100 S8 N16 O16'
_cell_volume   3580.29509190
_cell_formula_units_Z   4
loop_
 _symmetry_equiv_pos_site_id
 _symmetry_equiv_pos_as_xyz
  1  'x, y, z'
loop_
 _atom_site_type_symbol
 _atom_site_label
 _atom_site_symmetry_multiplicity
 _atom_site_fract_x
 _atom_site_fract_y
 _atom_site_fract_z
 _atom_site_occupancy
  Co  Co1  1  0.75000000  0.75000000  0.92260000  1.0
  Co  Co2  1  0.25000000  0.25000000  0.42260000  1.0
  Co  Co3  1  0.25000000  0.25000000  0.07740000  1.0
  Co  Co4  1  0.75000000  0.75000000  0.57740000  1.0
  H  H1  1  0.58200000  0.57450000  0.87740000  1.0
  H  H2  1  0.56450000  0.43600000  0.81550000  1.0
  H  H3  1  0.86450000  0.51670000  0.75770000  1.0
  H  H4  1  0.87210000  0.65040000  0.82350000  1.0
  H  H5  1  0.80460000  0.41100000  0.68460000  1.0
  H  H6  1  0.85460000  0.32890000  0.72810000  1.0
  H  H7  1  0.81880000  0.15620000  0.61080000  1.0
  H  H8  1  0.90190000  0.17310000  0.65960000  1.0
  H  H9  1  0.09770000  0.11240000  0.49770000  1.0
  H  H10  1  0.96630000  0.12250000  0.56580000  1.0
  H  H11  1  0.01410000  0.44360000  0.56620000  1.0
  H  H12  1  0.12240000  0.42470000  0.49090000  1.0
  H  H13  1  0.52880000  0.86590000  0.90000000  1.0
  H  H14  1  0.91800000  0.92550000  0.87740000  1.0
  H  H15  1  0.93550000  0.06400000  0.81550000  1.0
  H  H16  1  0.63550000  0.98330000  0.75770000  1.0
  H  H17  1  0.62790000  0.84960000  0.82350000  1.0
  H  H18  1  0.69540000  0.08900000  0.68460000  1.0
  H  H19  1  0.64540000  0.17110000  0.72810000  1.0
  H  H20  1  0.68120000  0.34380000  0.61080000  1.0
  H  H21  1  0.59810000  0.32690000  0.65960000  1.0
  H  H22  1  0.40230000  0.38760000  0.49770000  1.0
  H  H23  1  0.53370000  0.37750000  0.56580000  1.0
  H  H24  1  0.48590000  0.05640000  0.56620000  1.0
  H  H25  1  0.37760000  0.07530000  0.49090000  1.0
  H  H26  1  0.97120000  0.63410000  0.90000000  1.0
  H  H27  1  0.42550000  0.08200000  0.37740000  1.0
  H  H28  1  0.56400000  0.06450000  0.31550000  1.0
  H  H29  1  0.48330000  0.36450000  0.25770000  1.0
  H  H30  1  0.34960000  0.37210000  0.32350000  1.0
  H  H31  1  0.58900000  0.30460000  0.18460000  1.0
  H  H32  1  0.67110000  0.35460000  0.22810000  1.0
  H  H33  1  0.84380000  0.31880000  0.11080000  1.0
  H  H34  1  0.82690000  0.40190000  0.15960000  1.0
  H  H35  1  0.88760000  0.59770000  0.99770000  1.0
  H  H36  1  0.87750000  0.46630000  0.06580000  1.0
  H  H37  1  0.55640000  0.51410000  0.06620000  1.0
  H  H38  1  0.57530000  0.62240000  0.99090000  1.0
  H  H39  1  0.13410000  0.02880000  0.40000000  1.0
  H  H40  1  0.07450000  0.41800000  0.37740000  1.0
  H  H41  1  0.93600000  0.43550000  0.31550000  1.0
  H  H42  1  0.01670000  0.13550000  0.25770000  1.0
  H  H43  1  0.15040000  0.12790000  0.32350000  1.0
  H  H44  1  0.91100000  0.19540000  0.18460000  1.0
  H  H45  1  0.82890000  0.14540000  0.22810000  1.0
  H  H46  1  0.65620000  0.18120000  0.11080000  1.0
  H  H47  1  0.67310000  0.09810000  0.15960000  1.0
  H  H48  1  0.61240000  0.90230000  0.99770000  1.0
  H  H49  1  0.62250000  0.03370000  0.06580000  1.0
  H  H50  1  0.94360000  0.98590000  0.06620000  1.0
  H  H51  1  0.92470000  0.87760000  0.99090000  1.0
  H  H52  1  0.36590000  0.47120000  0.40000000  1.0
  H  H53  1  0.41800000  0.42550000  0.12260000  1.0
  H  H54  1  0.43550000  0.56400000  0.18450000  1.0
  H  H55  1  0.13550000  0.48330000  0.24230000  1.0
  H  H56  1  0.12790000  0.34960000  0.17650000  1.0
  H  H57  1  0.19540000  0.58900000  0.31540000  1.0
  H  H58  1  0.14540000  0.67110000  0.27190000  1.0
  H  H59  1  0.18120000  0.84380000  0.38920000  1.0
  H  H60  1  0.09810000  0.82690000  0.34040000  1.0
  H  H61  1  0.90230000  0.88760000  0.50230000  1.0
  H  H62  1  0.03370000  0.87750000  0.43420000  1.0
  H  H63  1  0.98590000  0.55640000  0.43380000  1.0
  H  H64  1  0.87760000  0.57530000  0.50910000  1.0
  H  H65  1  0.47120000  0.13410000  0.10000000  1.0
  H  H66  1  0.08200000  0.07450000  0.12260000  1.0
  H  H67  1  0.06450000  0.93600000  0.18450000  1.0
  H  H68  1  0.36450000  0.01670000  0.24230000  1.0
  H  H69  1  0.37210000  0.15040000  0.17650000  1.0
  H  H70  1  0.30460000  0.91100000  0.31540000  1.0
  H  H71  1  0.35460000  0.82890000  0.27190000  1.0
  H  H72  1  0.31880000  0.65620000  0.38920000  1.0
  H  H73  1  0.40190000  0.67310000  0.34040000  1.0
  H  H74  1  0.59770000  0.61240000  0.50230000  1.0
  H  H75  1  0.46630000  0.62250000  0.43420000  1.0
  H  H76  1  0.51410000  0.94360000  0.43380000  1.0
  H  H77  1  0.62240000  0.92470000  0.50910000  1.0
  H  H78  1  0.02880000  0.36590000  0.10000000  1.0
  H  H79  1  0.57450000  0.91800000  0.62260000  1.0
  H  H80  1  0.43600000  0.93550000  0.68450000  1.0
  H  H81  1  0.51670000  0.63550000  0.74230000  1.0
  H  H82  1  0.65040000  0.62790000  0.67650000  1.0
  H  H83  1  0.41100000  0.69540000  0.81540000  1.0
  H  H84  1  0.32890000  0.64540000  0.77190000  1.0
  H  H85  1  0.15620000  0.68120000  0.88920000  1.0
  H  H86  1  0.17310000  0.59810000  0.84040000  1.0
  H  H87  1  0.11240000  0.40230000  0.00230000  1.0
  H  H88  1  0.12250000  0.53370000  0.93420000  1.0
  H  H89  1  0.44360000  0.48590000  0.93380000  1.0
  H  H90  1  0.42470000  0.37760000  0.00910000  1.0
  H  H91  1  0.86590000  0.97120000  0.60000000  1.0
  H  H92  1  0.92550000  0.58200000  0.62260000  1.0
  H  H93  1  0.06400000  0.56450000  0.68450000  1.0
  H  H94  1  0.98330000  0.86450000  0.74230000  1.0
  H  H95  1  0.84960000  0.87210000  0.67650000  1.0
  H  H96  1  0.08900000  0.80460000  0.81540000  1.0
  H  H97  1  0.17110000  0.85460000  0.77190000  1.0
  H  H98  1  0.34380000  0.81880000  0.88920000  1.0
  H  H99  1  0.32690000  0.90190000  0.84040000  1.0
  H  H100  1  0.38760000  0.09770000  0.00230000  1.0
  H  H101  1  0.37750000  0.96630000  0.93420000  1.0
  H  H102  1  0.05640000  0.01410000  0.93380000  1.0
  H  H103  1  0.07530000  0.12240000  0.00910000  1.0
  H  H104  1  0.63410000  0.52880000  0.60000000  1.0
  C  C1  1  0.64040000  0.56140000  0.85354000  1.0
  C  C2  1  0.62860000  0.47860000  0.81630000  1.0
  C  C3  1  0.71400000  0.45870000  0.77942000  1.0
  C  C4  1  0.80620000  0.52550000  0.78203000  1.0
  C  C5  1  0.80920000  0.60600000  0.82197000  1.0
  C  C6  1  0.78830000  0.34800000  0.70782000  1.0
  C  C7  1  0.84590000  0.20900000  0.63745000  1.0
  C  C8  1  0.07680000  0.18200000  0.51018000  1.0
  C  C9  1  0.99780000  0.18680000  0.55184000  1.0
  C  C10  1  0.96880000  0.28650000  0.57099000  1.0
  C  C11  1  0.02380000  0.37400000  0.55068000  1.0
  C  C12  1  0.09410000  0.36110000  0.50719000  1.0
  C  C13  1  0.85960000  0.93860000  0.85354000  1.0
  C  C14  1  0.87140000  0.02140000  0.81630000  1.0
  C  C15  1  0.78600000  0.04130000  0.77942000  1.0
  C  C16  1  0.69380000  0.97450000  0.78203000  1.0
  C  C17  1  0.69080000  0.89400000  0.82197000  1.0
  C  C18  1  0.71170000  0.15200000  0.70782000  1.0
  C  C19  1  0.65410000  0.29100000  0.63745000  1.0
  C  C20  1  0.42320000  0.31800000  0.51018000  1.0
  C  C21  1  0.50220000  0.31320000  0.55184000  1.0
  C  C22  1  0.53120000  0.21350000  0.57099000  1.0
  C  C23  1  0.47620000  0.12600000  0.55068000  1.0
  C  C24  1  0.40590000  0.13890000  0.50719000  1.0
  C  C25  1  0.43860000  0.14040000  0.35354000  1.0
  C  C26  1  0.52140000  0.12860000  0.31630000  1.0
  C  C27  1  0.54130000  0.21400000  0.27942000  1.0
  C  C28  1  0.47450000  0.30620000  0.28203000  1.0
  C  C29  1  0.39400000  0.30920000  0.32197000  1.0
  C  C30  1  0.65200000  0.28830000  0.20782000  1.0
  C  C31  1  0.79100000  0.34590000  0.13745000  1.0
  C  C32  1  0.81800000  0.57680000  0.01018000  1.0
  C  C33  1  0.81320000  0.49780000  0.05184000  1.0
  C  C34  1  0.71350000  0.46880000  0.07099000  1.0
  C  C35  1  0.62600000  0.52380000  0.05068000  1.0
  C  C36  1  0.63890000  0.59410000  0.00719000  1.0
  C  C37  1  0.06140000  0.35960000  0.35354000  1.0
  C  C38  1  0.97860000  0.37140000  0.31630000  1.0
  C  C39  1  0.95870000  0.28600000  0.27942000  1.0
  C  C40  1  0.02550000  0.19380000  0.28203000  1.0
  C  C41  1  0.10600000  0.19080000  0.32197000  1.0
  C  C42  1  0.84800000  0.21170000  0.20782000  1.0
  C  C43  1  0.70900000  0.15410000  0.13745000  1.0
  C  C44  1  0.68200000  0.92320000  0.01018000  1.0
  C  C45  1  0.68680000  0.00220000  0.05184000  1.0
  C  C46  1  0.78650000  0.03120000  0.07099000  1.0
  C  C47  1  0.87400000  0.97620000  0.05068000  1.0
  C  C48  1  0.86110000  0.90590000  0.00719000  1.0
  C  C49  1  0.75000000  0.25000000  0.67362000  1.0
  C  C50  1  0.75000000  0.25000000  0.17362000  1.0
  C  C51  1  0.35960000  0.43860000  0.14646000  1.0
  C  C52  1  0.37140000  0.52140000  0.18370000  1.0
  C  C53  1  0.28600000  0.54130000  0.22058000  1.0
  C  C54  1  0.19380000  0.47450000  0.21797000  1.0
  C  C55  1  0.19080000  0.39400000  0.17803000  1.0
  C  C56  1  0.21170000  0.65200000  0.29218000  1.0
  C  C57  1  0.15410000  0.79100000  0.36255000  1.0
  C  C58  1  0.92320000  0.81800000  0.48982000  1.0
  C  C59  1  0.00220000  0.81320000  0.44816000  1.0
  C  C60  1  0.03120000  0.71350000  0.42901000  1.0
  C  C61  1  0.97620000  0.62600000  0.44932000  1.0
  C  C62  1  0.90590000  0.63890000  0.49281000  1.0
  C  C63  1  0.14040000  0.06140000  0.14646000  1.0
  C  C64  1  0.12860000  0.97860000  0.18370000  1.0
  C  C65  1  0.21400000  0.95870000  0.22058000  1.0
  C  C66  1  0.30620000  0.02550000  0.21797000  1.0
  C  C67  1  0.30920000  0.10600000  0.17803000  1.0
  C  C68  1  0.28830000  0.84800000  0.29218000  1.0
  C  C69  1  0.34590000  0.70900000  0.36255000  1.0
  C  C70  1  0.57680000  0.68200000  0.48982000  1.0
  C  C71  1  0.49780000  0.68680000  0.44816000  1.0
  C  C72  1  0.46880000  0.78650000  0.42901000  1.0
  C  C73  1  0.52380000  0.87400000  0.44932000  1.0
  C  C74  1  0.59410000  0.86110000  0.49281000  1.0
  C  C75  1  0.56140000  0.85960000  0.64646000  1.0
  C  C76  1  0.47860000  0.87140000  0.68370000  1.0
  C  C77  1  0.45870000  0.78600000  0.72058000  1.0
  C  C78  1  0.52550000  0.69380000  0.71797000  1.0
  C  C79  1  0.60600000  0.69080000  0.67803000  1.0
  C  C80  1  0.34800000  0.71170000  0.79218000  1.0
  C  C81  1  0.20900000  0.65410000  0.86255000  1.0
  C  C82  1  0.18200000  0.42320000  0.98982000  1.0
  C  C83  1  0.18680000  0.50220000  0.94816000  1.0
  C  C84  1  0.28650000  0.53120000  0.92901000  1.0
  C  C85  1  0.37400000  0.47620000  0.94932000  1.0
  C  C86  1  0.36110000  0.40590000  0.99281000  1.0
  C  C87  1  0.93860000  0.64040000  0.64646000  1.0
  C  C88  1  0.02140000  0.62860000  0.68370000  1.0
  C  C89  1  0.04130000  0.71400000  0.72058000  1.0
  C  C90  1  0.97450000  0.80620000  0.71797000  1.0
  C  C91  1  0.89400000  0.80920000  0.67803000  1.0
  C  C92  1  0.15200000  0.78830000  0.79218000  1.0
  C  C93  1  0.29100000  0.84590000  0.86255000  1.0
  C  C94  1  0.31800000  0.07680000  0.98982000  1.0
  C  C95  1  0.31320000  0.99780000  0.94816000  1.0
  C  C96  1  0.21350000  0.96880000  0.92901000  1.0
  C  C97  1  0.12600000  0.02380000  0.94932000  1.0
  C  C98  1  0.13890000  0.09410000  0.99281000  1.0
  C  C99  1  0.25000000  0.75000000  0.32638000  1.0
  C  C100  1  0.25000000  0.75000000  0.82638000  1.0
  S  S1  1  0.54920000  0.77878000  0.92121000  1.0
  S  S2  1  0.95080000  0.72122000  0.92121000  1.0
  S  S3  1  0.22122000  0.04920000  0.42121000  1.0
  S  S4  1  0.27878000  0.45080000  0.42121000  1.0
  S  S5  1  0.45080000  0.22122000  0.07879000  1.0
  S  S6  1  0.04920000  0.27878000  0.07879000  1.0
  S  S7  1  0.77878000  0.95080000  0.57879000  1.0
  S  S8  1  0.72122000  0.54920000  0.57879000  1.0
  N  N1  1  0.73110000  0.62560000  0.85815000  1.0
  N  N2  1  0.12310000  0.26770000  0.48759000  1.0
  N  N3  1  0.76890000  0.87440000  0.85815000  1.0
  N  N4  1  0.37690000  0.23230000  0.48759000  1.0
  N  N5  1  0.37440000  0.23110000  0.35815000  1.0
  N  N6  1  0.73230000  0.62310000  0.98759000  1.0
  N  N7  1  0.12560000  0.26890000  0.35815000  1.0
  N  N8  1  0.76770000  0.87690000  0.98759000  1.0
  N  N9  1  0.26890000  0.37440000  0.14185000  1.0
  N  N10  1  0.87690000  0.73230000  0.51241000  1.0
  N  N11  1  0.23110000  0.12560000  0.14185000  1.0
  N  N12  1  0.62310000  0.76770000  0.51241000  1.0
  N  N13  1  0.62560000  0.76890000  0.64185000  1.0
  N  N14  1  0.26770000  0.37690000  0.01241000  1.0
  N  N15  1  0.87440000  0.73110000  0.64185000  1.0
  N  N16  1  0.23230000  0.12310000  0.01241000  1.0
  O  O1  1  0.69948000  0.37395000  0.74451000  1.0
  O  O2  1  0.89187000  0.30430000  0.61047000  1.0
  O  O3  1  0.80052000  0.12605000  0.74451000  1.0
  O  O4  1  0.60813000  0.19570000  0.61047000  1.0
  O  O5  1  0.62605000  0.19948000  0.24451000  1.0
  O  O6  1  0.69570000  0.39187000  0.11047000  1.0
  O  O7  1  0.87395000  0.30052000  0.24451000  1.0
  O  O8  1  0.80430000  0.10813000  0.11047000  1.0
  O  O9  1  0.30052000  0.62605000  0.25549000  1.0
  O  O10  1  0.10813000  0.69570000  0.38953000  1.0
  O  O11  1  0.19948000  0.87395000  0.25549000  1.0
  O  O12  1  0.39187000  0.80430000  0.38953000  1.0
  O  O13  1  0.37395000  0.80052000  0.75549000  1.0
  O  O14  1  0.30430000  0.60813000  0.88953000  1.0
  O  O15  1  0.12605000  0.69948000  0.75549000  1.0
  O  O16  1  0.19570000  0.89187000  0.88953000  1.0
