# generated using pymatgen
data_H5C8N
_symmetry_space_group_name_H-M   'P 1'
_cell_length_a   50.74360000
_cell_length_b   50.74510000
_cell_length_c   61.27050000
_cell_angle_alpha   90.00000000
_cell_angle_beta   90.00140000
_cell_angle_gamma   90.00000000
_symmetry_Int_Tables_number   1
_chemical_formula_structural   H5C8N
_chemical_formula_sum   'H240 C384 N48'
_cell_volume   157770.86693061
_cell_formula_units_Z   48
loop_
 _symmetry_equiv_pos_site_id
 _symmetry_equiv_pos_as_xyz
  1  'x, y, z'
loop_
 _atom_site_type_symbol
 _atom_site_label
 _atom_site_symmetry_multiplicity
 _atom_site_fract_x
 _atom_site_fract_y
 _atom_site_fract_z
 _atom_site_occupancy
  H  19  1  0.41788000  0.26450700  0.14997600  1
  H  20  1  0.38913300  0.29242300  0.12975300  1
  H  21  1  0.35596200  0.24589800  0.19325100  1
  H  22  1  0.28340000  0.32713100  0.07216300  1
  H  23  1  0.36546500  0.31319700  0.07544800  1
  H  24  1  0.36722400  0.31060200  0.03663400  1
  H  25  1  0.28565300  0.32581300  0.03323200  1
  H  26  1  0.25516900  0.35164200  0.12740300  1
  H  27  1  0.28884400  0.39953100  0.18998500  1
  H  28  1  0.31727500  0.37008700  0.17072200  1
  H  29  1  0.22711700  0.38151300  0.14630000  1
  H  36  1  0.34911200  0.28871000  0.10606700  1
  H  37  1  0.29645300  0.35253500  0.10418800  1
  H  38  1  0.32123200  0.32170000  0.16439400  1
  H  39  1  0.32669500  0.27329000  0.17258200  1
  H  61  1  0.60378000  0.75672200  0.14996000  1
  H  62  1  0.63253300  0.72880800  0.12974500  1
  H  63  1  0.66568400  0.77534700  0.19324500  1
  H  64  1  0.73827700  0.69412500  0.07217500  1
  H  65  1  0.65620800  0.70804100  0.07544600  1
  H  66  1  0.65445700  0.71064300  0.03663200  1
  H  67  1  0.73603100  0.69544900  0.03324400  1
  H  68  1  0.76650300  0.66960200  0.12740400  1
  H  69  1  0.73284000  0.62171400  0.18999200  1
  H  70  1  0.70440600  0.65115700  0.17073000  1
  H  71  1  0.79456000  0.63972900  0.14629900  1
  H  78  1  0.67255400  0.73252500  0.10607000  1
  H  79  1  0.72522600  0.66871300  0.10419500  1
  H  80  1  0.70043900  0.69954400  0.16439900  1
  H  81  1  0.69496000  0.74795700  0.17258400  1
  H  103  1  0.75694500  0.41766400  0.64997200  1
  H  104  1  0.72902700  0.38891100  0.62975400  1
  H  105  1  0.77557300  0.35575500  0.69324900  1
  H  106  1  0.69434500  0.28316800  0.57217100  1
  H  107  1  0.70824900  0.36523800  0.57545200  1
  H  108  1  0.71083500  0.36699700  0.53663700  1
  H  109  1  0.69565500  0.28542300  0.53323700  1
  H  110  1  0.66982600  0.25493900  0.62741000  1
  H  111  1  0.62193400  0.28861500  0.68999000  1
  H  112  1  0.65137500  0.31704600  0.67072300  1
  H  113  1  0.63995800  0.22688700  0.64631000  1
  H  120  1  0.73274900  0.34888900  0.60607000  1
  H  121  1  0.66893600  0.29621800  0.60419500  1
  H  122  1  0.69976800  0.32100900  0.66439800  1
  H  123  1  0.74817800  0.32648100  0.67258500  1
  H  145  1  0.26472300  0.60359400  0.64997400  1
  H  146  1  0.29263100  0.63234300  0.62975000  1
  H  147  1  0.24612500  0.66549900  0.69326200  1
  H  148  1  0.32733500  0.73807400  0.57216600  1
  H  149  1  0.31340900  0.65601100  0.57544800  1
  H  150  1  0.31081600  0.65425100  0.53663400  1
  H  151  1  0.32602000  0.73582200  0.53323400  1
  H  152  1  0.35185600  0.76630300  0.62740200  1
  H  153  1  0.39974800  0.73263100  0.68998300  1
  H  154  1  0.37030300  0.70420100  0.67072100  1
  H  155  1  0.38172900  0.79435500  0.64629700  1
  H  162  1  0.28891800  0.67236300  0.60606800  1
  H  163  1  0.35274200  0.72502000  0.60418700  1
  H  164  1  0.32191500  0.70024200  0.66439300  1
  H  165  1  0.27350900  0.69477300  0.67259100  1
  H  187  1  0.60627300  0.26072100  0.35643800  1
  H  188  1  0.63463000  0.28854400  0.37724500  1
  H  189  1  0.66696700  0.24831000  0.31061100  1
  H  190  1  0.73924600  0.32640200  0.43434600  1
  H  191  1  0.65728000  0.31215700  0.43037200  1
  H  192  1  0.65498000  0.30990200  0.46918400  1
  H  193  1  0.73645600  0.32538300  0.47327500  1
  H  194  1  0.76773200  0.35191400  0.37791600  1
  H  195  1  0.73104000  0.39946900  0.31637900  1
  H  196  1  0.70385100  0.36960100  0.33616500  1
  H  197  1  0.79472200  0.38260500  0.35834400  1
  H  204  1  0.67438700  0.28737600  0.40004700  1
  H  205  1  0.72627600  0.35184100  0.40213700  1
  H  206  1  0.70141100  0.32144200  0.34187800  1
  H  207  1  0.69592300  0.27534700  0.33178300  1
  H  229  1  0.41541500  0.76052300  0.35645700  1
  H  230  1  0.38705100  0.73270000  0.37725800  1
  H  231  1  0.35473200  0.77293300  0.31061600  1
  H  232  1  0.28242700  0.69485000  0.43433300  1
  H  233  1  0.36439600  0.70908400  0.43038000  1
  H  234  1  0.36668300  0.71134600  0.46919200  1
  H  235  1  0.28520500  0.69587300  0.47326400  1
  H  236  1  0.25395500  0.66932200  0.37792100  1
  H  237  1  0.29062400  0.62179500  0.31636000  1
  H  238  1  0.31782000  0.65165200  0.33615400  1
  H  239  1  0.22695600  0.63864400  0.35834100  1
  H  246  1  0.34729500  0.73386300  0.40004900  1
  H  247  1  0.29539900  0.66940300  0.40213000  1
  H  248  1  0.32027100  0.69980600  0.34187400  1
  H  249  1  0.32577100  0.74589900  0.33178300  1
  H  271  1  0.26098100  0.41522500  0.85644000  1
  H  272  1  0.28878800  0.38684800  0.87724800  1
  H  273  1  0.24854200  0.35454100  0.81060400  1
  H  274  1  0.32660100  0.28221500  0.93433600  1
  H  275  1  0.31239400  0.36418300  0.93037100  1
  H  276  1  0.31015300  0.36648300  0.96918300  1
  H  277  1  0.32559300  0.28500300  0.97326800  1
  H  278  1  0.35212400  0.25373100  0.87791400  1
  H  279  1  0.39967100  0.29041100  0.81636700  1
  H  280  1  0.36981500  0.31760500  0.83616100  1
  H  281  1  0.38280100  0.22673300  0.85833300  1
  H  288  1  0.28760200  0.34709000  0.90004500  1
  H  289  1  0.35205000  0.29517800  0.90212900  1
  H  290  1  0.32165600  0.32006300  0.84187200  1
  H  291  1  0.27556100  0.32556900  0.83177900  1
  H  313  1  0.76072100  0.60603900  0.85645000  1
  H  314  1  0.73290700  0.63440900  0.87725400  1
  H  315  1  0.77314300  0.66666667  0.81061400  1
  H  316  1  0.69505600  0.73902800  0.93434200  1
  H  317  1  0.70929000  0.65706100  0.93037800  1
  H  318  1  0.71154000  0.65476300  0.96919100  1
  H  319  1  0.69607000  0.73624100  0.97327300  1
  H  320  1  0.66954500  0.76750900  0.87791700  1
  H  321  1  0.62201200  0.73082800  0.81636200  1
  H  322  1  0.65186900  0.70363500  0.83615800  1
  H  323  1  0.63886700  0.79450300  0.85833500  1
  H  330  1  0.73408000  0.67416200  0.90005500  1
  H  331  1  0.66961700  0.72605500  0.90213400  1
  H  332  1  0.70002500  0.70118600  0.84187900  1
  H  333  1  0.74611900  0.69568600  0.83178400  1
  H  355  1  0.05519900  0.54669800  0.28255400  1
  H  356  1  0.10194300  0.54311900  0.28100300  1
  H  357  1  0.22782200  0.52437000  0.26722000  1
  H  358  1  0.16275100  0.56426200  0.29491900  1
  H  359  1  0.19225500  0.59087900  0.31572500  1
  H  360  1  0.25694000  0.55076100  0.28776800  1
  H  361  1  0.22145600  0.48143800  0.23244300  1
  H  362  1  0.16516300  0.42417300  0.18965900  1
  H  363  1  0.14567100  0.45533700  0.21357600  1
  H  364  1  0.24089600  0.45034700  0.20849700  1
  H  371  1  0.09480400  0.48360000  0.23306500  1
  H  373  1  0.04826400  0.48746000  0.23451100  1
  H  376  1  0.26412000  0.58156400  0.31697000  1
  H  377  1  0.01313200  0.53896100  0.25970900  1
  H  378  1  0.20384800  0.40588400  0.17224600  1
  H  397  1  0.96647800  0.47454300  0.28256300  1
  H  398  1  0.91973300  0.47812300  0.28101100  1
  H  399  1  0.79385500  0.49686600  0.26721200  1
  H  400  1  0.85892400  0.45698200  0.29492500  1
  H  401  1  0.82941700  0.43037300  0.31573400  1
  H  402  1  0.76473400  0.47048100  0.28776300  1
  H  403  1  0.80022300  0.53979800  0.23243700  1
  H  404  1  0.85651800  0.59706900  0.18966100  1
  H  405  1  0.87600900  0.56590100  0.21357800  1
  H  406  1  0.78078500  0.57089100  0.20849200  1
  H  413  1  0.92687500  0.53762900  0.23306200  1
  H  415  1  0.97341300  0.53376600  0.23450900  1
  H  418  1  0.75755600  0.43970200  0.31698100  1
  H  419  1  0.00854700  0.48227200  0.25971100  1
  H  420  1  0.81783500  0.61537200  0.17225600  1
  H  439  1  0.47474900  0.05498400  0.78255500  1
  H  440  1  0.47832800  0.10172700  0.78100100  1
  H  441  1  0.49707900  0.22760200  0.76721400  1
  H  442  1  0.45719500  0.16253300  0.79492300  1
  H  443  1  0.43057900  0.19203700  0.81573100  1
  H  444  1  0.47069000  0.25672100  0.78776400  1
  H  445  1  0.54001700  0.22123500  0.73244200  1
  H  446  1  0.59728200  0.16493800  0.68966200  1
  H  447  1  0.56611300  0.14544900  0.71357500  1
  H  448  1  0.57111400  0.24067000  0.70849900  1
  H  455  1  0.53785700  0.09458600  0.73307400  1
  H  457  1  0.53399900  0.04804700  0.73452000  1
  H  460  1  0.43989700  0.26389800  0.81697400  1
  H  461  1  0.48249200  0.01291700  0.75971200  1
  H  462  1  0.61557800  0.20362200  0.67225000  1
  H  481  1  0.54691800  0.96626400  0.78256100  1
  H  482  1  0.54333900  0.91952200  0.78100900  1
  H  483  1  0.52458800  0.79364600  0.76721600  1
  H  484  1  0.56449100  0.85870800  0.79491600  1
  H  485  1  0.59111000  0.82920000  0.81571700  1
  H  486  1  0.55098200  0.76452400  0.78775800  1
  H  487  1  0.48166300  0.80001300  0.73243600  1
  H  488  1  0.42439000  0.85630800  0.68966000  1
  H  489  1  0.45555300  0.87579800  0.71357900  1
  H  490  1  0.45057300  0.78057700  0.70848800  1
  H  497  1  0.48381900  0.92666200  0.73306900  1
  H  499  1  0.48767800  0.97320000  0.73451700  1
  H  502  1  0.58178500  0.75733900  0.81695800  1
  H  503  1  0.53918100  0.00833100  0.75971700  1
  H  504  1  0.40609700  0.81762500  0.67224700  1
  H  523  1  0.96695400  0.47400700  0.72577200  1
  H  524  1  0.92021100  0.47733300  0.72712800  1
  H  525  1  0.79446000  0.49445200  0.73953200  1
  H  526  1  0.86097400  0.45389300  0.71494600  1
  H  527  1  0.83261100  0.42644400  0.69380900  1
  H  528  1  0.76641600  0.46714700  0.71856800  1
  H  529  1  0.80016400  0.54246900  0.77036000  1
  H  530  1  0.85433800  0.59330700  0.82016200  1
  H  531  1  0.87486600  0.56284300  0.79597900  1
  H  532  1  0.77980500  0.57290100  0.79450800  1
  H  539  1  0.92670000  0.53732100  0.77476500  1
  H  541  1  0.97327700  0.53368800  0.77353600  1
  H  544  1  0.76322300  0.43839000  0.68602700  1
  H  545  1  0.00882100  0.48223800  0.74853200  1
  H  546  1  0.80974900  0.60242100  0.83995900  1
  H  565  1  0.05471700  0.54722600  0.72576400  1
  H  566  1  0.10146100  0.54390300  0.72712200  1
  H  567  1  0.22721300  0.52683000  0.73955500  1
  H  568  1  0.16068900  0.56733200  0.71491700  1
  H  569  1  0.18904900  0.59477900  0.69377800  1
  H  570  1  0.25525200  0.55413500  0.71858600  1
  H  571  1  0.22151500  0.47879000  0.77035500  1
  H  572  1  0.16735700  0.42793100  0.82015500  1
  H  573  1  0.14682100  0.45839700  0.79597400  1
  H  574  1  0.24188300  0.44835900  0.79450300  1
  H  581  1  0.09497700  0.48392300  0.77476300  1
  H  583  1  0.04839900  0.48755300  0.77353200  1
  H  586  1  0.25841200  0.58283700  0.68599400  1
  H  587  1  0.01285300  0.53899600  0.74853200  1
  H  588  1  0.21194100  0.41880700  0.83994900  1
  H  607  1  0.54745400  0.96674100  0.22577100  1
  H  608  1  0.54412900  0.91999900  0.22713100  1
  H  609  1  0.52702000  0.79425300  0.23954800  1
  H  610  1  0.56754100  0.86076600  0.21491800  1
  H  611  1  0.59497600  0.83240200  0.19377000  1
  H  612  1  0.55431100  0.76620900  0.21857200  1
  H  613  1  0.47896700  0.79996000  0.27033600  1
  H  614  1  0.42816800  0.85411700  0.32017500  1
  H  615  1  0.45863100  0.87464900  0.29599100  1
  H  616  1  0.44853700  0.77959700  0.29448800  1
  H  623  1  0.48412500  0.92649000  0.27475200  1
  H  625  1  0.48775900  0.97306600  0.27352000  1
  H  628  1  0.58303100  0.76302800  0.18599800  1
  H  629  1  0.53921700  0.00860700  0.24852800  1
  H  630  1  0.41906400  0.80951900  0.33996000  1
  H  649  1  0.47422700  0.05450600  0.22576300  1
  H  650  1  0.47755300  0.10124800  0.22712100  1
  H  651  1  0.49467500  0.22699600  0.23953500  1
  H  652  1  0.45411100  0.16048900  0.21493900  1
  H  653  1  0.42665500  0.18885600  0.19381300  1
  H  654  1  0.46736400  0.25504400  0.21858000  1
  H  655  1  0.54271300  0.22128700  0.27033700  1
  H  656  1  0.59352700  0.16712100  0.32016200  1
  H  657  1  0.56305800  0.14659400  0.29598100  1
  H  658  1  0.57315300  0.24164500  0.29448400  1
  H  665  1  0.53754400  0.09475800  0.27475500  1
  H  667  1  0.53390800  0.04818200  0.27352500  1
  H  670  1  0.43859900  0.25824000  0.18603700  1
  H  671  1  0.48245700  0.01264300  0.24852300  1
  H  672  1  0.60264200  0.21171300  0.33994800  1
  C  1  1  0.32420100  0.32034800  0.07798000  1
  C  2  1  0.35492600  0.28569500  0.14908200  1
  C  3  1  0.28912100  0.35776900  0.14711000  1
  C  4  1  0.34592500  0.27181400  0.16770900  1
  C  5  1  0.36303500  0.25549500  0.17977300  1
  C  6  1  0.38975500  0.25292900  0.17380500  1
  C  7  1  0.39872500  0.26628000  0.15495900  1
  C  8  1  0.38162500  0.28247500  0.14288700  1
  C  9  1  0.34830800  0.31563300  0.06691700  1
  C  10  1  0.34949400  0.31429500  0.04400400  1
  C  11  1  0.32671600  0.31833600  0.03131000  1
  C  12  1  0.30260300  0.32341300  0.04205200  1
  C  13  1  0.30139200  0.32428600  0.06500900  1
  C  14  1  0.26273900  0.36185200  0.14037200  1
  C  15  1  0.24603400  0.37927800  0.15169200  1
  C  16  1  0.25518000  0.39326600  0.17017800  1
  C  17  1  0.28156400  0.38958100  0.17675400  1
  C  18  1  0.29823400  0.37207600  0.16547300  1
  C  30  1  0.30576500  0.33942200  0.13593400  1
  C  31  1  0.30690500  0.33880200  0.11283800  1
  C  32  1  0.32296600  0.32061500  0.10139900  1
  C  33  1  0.33806800  0.30267200  0.11392600  1
  C  34  1  0.33801200  0.30290000  0.13700800  1
  C  35  1  0.32156400  0.32133400  0.14768800  1
  C  43  1  0.69747200  0.70089000  0.07798500  1
  C  44  1  0.66666667  0.73553600  0.14908500  1
  C  45  1  0.73255800  0.66347900  0.14711900  1
  C  46  1  0.67572600  0.74941700  0.16771400  1
  C  47  1  0.65861100  0.76573600  0.17977500  1
  C  48  1  0.63189400  0.76830200  0.17379700  1
  C  49  1  0.62292900  0.75494300  0.15495300  1
  C  50  1  0.64003200  0.73874200  0.14289000  1
  C  51  1  0.67336800  0.70560800  0.06691800  1
  C  52  1  0.67218500  0.70694800  0.04400500  1
  C  53  1  0.69496600  0.70291400  0.03131400  1
  C  54  1  0.71907800  0.69783800  0.04206000  1
  C  55  1  0.72028300  0.69694100  0.06501800  1
  C  56  1  0.75894200  0.65940600  0.14038500  1
  C  57  1  0.77564600  0.64197200  0.15169800  1
  C  58  1  0.76650200  0.62798200  0.17018100  1
  C  59  1  0.74011900  0.63166800  0.17676000  1
  C  60  1  0.72344700  0.64917300  0.16548300  1
  C  72  1  0.71591000  0.68182200  0.13594100  1
  C  73  1  0.71476000  0.68243500  0.11284600  1
  C  74  1  0.69870300  0.70062400  0.10140400  1
  C  75  1  0.68360000  0.71856500  0.11393000  1
  C  76  1  0.68365500  0.71833600  0.13701200  1
  C  77  1  0.70010500  0.69990900  0.14769300  1
  C  85  1  0.70111500  0.32397100  0.57798500  1
  C  86  1  0.73576600  0.35470800  0.64908400  1
  C  87  1  0.66370300  0.28888900  0.64711900  1
  C  88  1  0.74964800  0.34571300  0.66771100  1
  C  89  1  0.76597000  0.36282600  0.67977300  1
  C  90  1  0.76853100  0.38954300  0.67380100  1
  C  91  1  0.75517100  0.39851000  0.65495800  1
  C  92  1  0.73898400  0.38140500  0.64288500  1
  C  93  1  0.70582300  0.34807900  0.56692100  1
  C  94  1  0.70715200  0.34926600  0.54400700  1
  C  95  1  0.70311600  0.32648900  0.53131500  1
  C  96  1  0.69806700  0.30237000  0.54205700  1
  C  97  1  0.69717900  0.30116000  0.56501400  1
  C  98  1  0.65963000  0.26250200  0.64038800  1
  C  99  1  0.64219300  0.24580100  0.65170200  1
  C  100  1  0.62820600  0.25494900  0.67018600  1
  C  101  1  0.63188700  0.28133200  0.67676000  1
  C  102  1  0.64939900  0.29800100  0.66548400  1
  C  114  1  0.68204800  0.30553300  0.63594100  1
  C  115  1  0.68267200  0.30666600  0.61284500  1
  C  116  1  0.70085000  0.32273900  0.60140400  1
  C  117  1  0.71878100  0.33785200  0.61393000  1
  C  118  1  0.71856100  0.33779100  0.63701100  1
  C  119  1  0.70013200  0.32134000  0.64769400  1
  C  127  1  0.32054800  0.69727600  0.57798100  1
  C  128  1  0.28590600  0.66654800  0.64908300  1
  C  129  1  0.35798200  0.73235300  0.64710900  1
  C  130  1  0.27203300  0.67554400  0.66771500  1
  C  131  1  0.25571800  0.65843100  0.67978100  1
  C  132  1  0.25314800  0.63171300  0.67380700  1
  C  133  1  0.26649300  0.62274800  0.65495700  1
  C  134  1  0.28268500  0.63985000  0.64288500  1
  C  135  1  0.31583600  0.67316900  0.56691700  1
  C  136  1  0.31450300  0.67198100  0.54400400  1
  C  137  1  0.31852500  0.69476100  0.53131100  1
  C  138  1  0.32359000  0.71887600  0.54205400  1
  C  139  1  0.32448900  0.72008400  0.56501100  1
  C  140  1  0.36206500  0.75873400  0.64037200  1
  C  141  1  0.37949400  0.77543900  0.65168900  1
  C  142  1  0.39348100  0.76629300  0.67017400  1
  C  143  1  0.38979800  0.73991100  0.67675000  1
  C  144  1  0.37228600  0.72324300  0.66547500  1
  C  156  1  0.33963000  0.71571100  0.63593400  1
  C  157  1  0.33900300  0.71457600  0.61283800  1
  C  158  1  0.32082100  0.69850800  0.60140100  1
  C  159  1  0.30288200  0.68340500  0.61392700  1
  C  160  1  0.30311000  0.68346600  0.63701000  1
  C  161  1  0.32154600  0.69990900  0.64768900  1
  C  169  1  0.69856000  0.31939500  0.42819800  1
  C  170  1  0.66841500  0.28454400  0.35688100  1
  C  171  1  0.73295900  0.35777500  0.35916600  1
  C  172  1  0.67709100  0.27252100  0.33726500  1
  C  173  1  0.66018400  0.25641900  0.32484000  1
  C  174  1  0.63426000  0.25134700  0.33192800  1
  C  175  1  0.62532100  0.26328300  0.35138300  1
  C  176  1  0.64214900  0.27959600  0.36363700  1
  C  177  1  0.67431300  0.31469700  0.43905500  1
  C  178  1  0.67280600  0.31356200  0.46196100  1
  C  179  1  0.69539100  0.31779700  0.47484500  1
  C  180  1  0.71964400  0.32283100  0.46430500  1
  C  181  1  0.72117700  0.32351900  0.44135400  1
  C  182  1  0.75951600  0.36224400  0.36528800  1
  C  183  1  0.77551800  0.38010400  0.35366800  1
  C  184  1  0.76533300  0.39444600  0.33584500  1
  C  185  1  0.73887800  0.38994900  0.32958100  1
  C  186  1  0.72296100  0.37203800  0.34110900  1
  C  198  1  0.71694700  0.33888800  0.37036600  1
  C  199  1  0.71597100  0.33803100  0.39344900  1
  C  200  1  0.70005900  0.31961500  0.40479400  1
  C  201  1  0.68518200  0.30153900  0.39220200  1
  C  202  1  0.68508300  0.30193900  0.36911300  1
  C  203  1  0.70124100  0.32075600  0.35857100  1
  C  211  1  0.32311600  0.70184200  0.42819500  1
  C  212  1  0.35327500  0.73669400  0.35688300  1
  C  213  1  0.28871700  0.66347800  0.35915700  1
  C  214  1  0.34460200  0.74871900  0.33726700  1
  C  215  1  0.36151200  0.76482300  0.32484500  1
  C  216  1  0.38743400  0.76989600  0.33194000  1
  C  217  1  0.39637400  0.75795200  0.35139100  1
  C  218  1  0.37954500  0.74162900  0.36363700  1
  C  219  1  0.34736000  0.70654600  0.43905800  1
  C  220  1  0.34886000  0.70768300  0.46196500  1
  C  221  1  0.32627000  0.70345200  0.47484400  1
  C  222  1  0.30202100  0.69841500  0.46429700  1
  C  223  1  0.30049800  0.69770500  0.44134600  1
  C  224  1  0.26215800  0.65901400  0.36527500  1
  C  225  1  0.24615600  0.64115200  0.35366000  1
  C  226  1  0.25633200  0.62682600  0.33582200  1
  C  227  1  0.28278900  0.63131500  0.32956200  1
  C  228  1  0.29870800  0.64921800  0.34109400  1
  C  240  1  0.30473500  0.68235600  0.37035900  1
  C  241  1  0.30571900  0.68320200  0.39344200  1
  C  242  1  0.32162300  0.70162100  0.40479000  1
  C  243  1  0.33650400  0.71970000  0.39220000  1
  C  244  1  0.33660300  0.71930200  0.36911300  1
  C  245  1  0.32044300  0.70048800  0.35856700  1
  C  253  1  0.31961300  0.32290000  0.92819300  1
  C  254  1  0.28477500  0.35307100  0.85687800  1
  C  255  1  0.35797600  0.28849900  0.85915800  1
  C  256  1  0.27274700  0.34440200  0.83726000  1
  C  257  1  0.25665800  0.36132000  0.82483300  1
  C  258  1  0.25161700  0.38725000  0.83191600  1
  C  259  1  0.26354400  0.39617900  0.85137700  1
  C  260  1  0.27983400  0.37933600  0.86363800  1
  C  261  1  0.31492500  0.34714900  0.93905300  1
  C  262  1  0.31379800  0.34865700  0.96195900  1
  C  263  1  0.31802800  0.32606900  0.97484100  1
  C  264  1  0.32303300  0.30181300  0.96429800  1
  C  265  1  0.32373200  0.30028300  0.94134700  1
  C  266  1  0.36243400  0.26193700  0.86527000  1
  C  267  1  0.38029600  0.24593500  0.85365400  1
  C  268  1  0.39462800  0.25611400  0.83582300  1
  C  269  1  0.39014700  0.28257100  0.82956600  1
  C  270  1  0.37224200  0.29849200  0.84109700  1
  C  282  1  0.33909900  0.30451600  0.87035900  1
  C  283  1  0.33823500  0.30548000  0.89344200  1
  C  284  1  0.31983300  0.32140500  0.90478800  1
  C  285  1  0.30176700  0.33629900  0.89219800  1
  C  286  1  0.30216100  0.33639300  0.86910900  1
  C  287  1  0.32097300  0.32023000  0.85856700  1
  C  295  1  0.70206100  0.69834200  0.92819900  1
  C  296  1  0.73692300  0.66818900  0.85688900  1
  C  297  1  0.66369400  0.73273900  0.85916100  1
  C  298  1  0.74894300  0.67685800  0.83727100  1
  C  299  1  0.76503800  0.65994400  0.82484600  1
  C  300  1  0.77010700  0.63402200  0.83193900  1
  C  301  1  0.75818100  0.62509100  0.85140000  1
  C  302  1  0.74186200  0.64192300  0.86364600  1
  C  303  1  0.70675600  0.67409500  0.93905900  1
  C  304  1  0.70788600  0.67259000  0.96196600  1
  C  305  1  0.70366900  0.69517900  0.97484600  1
  C  306  1  0.69864700  0.71943400  0.96430500  1
  C  307  1  0.69793700  0.72096100  0.94135400  1
  C  308  1  0.65922300  0.75929600  0.86528300  1
  C  309  1  0.64137000  0.77530100  0.85365700  1
  C  310  1  0.62704400  0.76512300  0.83582300  1
  C  311  1  0.63152900  0.73866300  0.82956800  1
  C  312  1  0.64943500  0.72274600  0.84109800  1
  C  324  1  0.68257700  0.71672800  0.87036400  1
  C  325  1  0.68343500  0.71575800  0.89344700  1
  C  326  1  0.70184000  0.69983800  0.90479500  1
  C  327  1  0.71991700  0.68495500  0.89220600  1
  C  328  1  0.71952600  0.68486100  0.86911700  1
  C  329  1  0.70070700  0.70101600  0.85857300  1
  C  337  1  0.19203200  0.54141400  0.27882300  1
  C  338  1  0.10348500  0.51284800  0.25698500  1
  C  339  1  0.18143400  0.47175400  0.22562400  1
  C  340  1  0.08694200  0.49685000  0.24383400  1
  C  341  1  0.05930600  0.49896100  0.24475100  1
  C  342  1  0.04699200  0.51700400  0.25908400  1
  C  343  1  0.06333200  0.53310800  0.27219100  1
  C  344  1  0.09100300  0.53097600  0.27123000  1
  C  345  1  0.18256200  0.56116400  0.29318200  1
  C  346  1  0.19999900  0.57697800  0.30546400  1
  C  347  1  0.22763800  0.57357700  0.30390300  1
  C  348  1  0.23711100  0.55393600  0.28953400  1
  C  349  1  0.21973500  0.53827700  0.27728200  1
  C  350  1  0.20918200  0.46953000  0.22359900  1
  C  351  1  0.22076500  0.45104500  0.20940600  1
  C  352  1  0.20506800  0.43392200  0.19660400  1
  C  353  1  0.17735500  0.43612100  0.19858000  1
  C  354  1  0.16579700  0.45460800  0.21278300  1
  C  365  1  0.16970400  0.49055000  0.24000600  1
  C  367  1  0.17469700  0.52509000  0.26632900  1
  C  369  1  0.13158000  0.51095800  0.25564800  1
  C  372  1  0.21586900  0.41547500  0.18229200  1
  C  374  1  0.01972000  0.52048800  0.25933400  1
  C  375  1  0.24575300  0.58837100  0.31581400  1
  C  379  1  0.82964300  0.47982400  0.27881900  1
  C  380  1  0.91819100  0.50838500  0.25698500  1
  C  381  1  0.84024500  0.54948200  0.22562100  1
  C  382  1  0.93473700  0.52437800  0.24383200  1
  C  383  1  0.96237200  0.52226400  0.24474800  1
  C  384  1  0.97468700  0.50422800  0.25908900  1
  C  385  1  0.95834500  0.48812600  0.27219500  1
  C  386  1  0.93067400  0.49025700  0.27123000  1
  C  387  1  0.83911200  0.46007600  0.29318400  1
  C  388  1  0.82167400  0.44426400  0.30546200  1
  C  389  1  0.79403500  0.44766700  0.30390200  1
  C  390  1  0.78456300  0.46730700  0.28952900  1
  C  391  1  0.80194100  0.48296100  0.27727500  1
  C  392  1  0.81249800  0.55170700  0.22359400  1
  C  393  1  0.80091400  0.57019200  0.20940100  1
  C  394  1  0.81661400  0.58731600  0.19660200  1
  C  395  1  0.84432600  0.58511700  0.19857900  1
  C  396  1  0.85588200  0.56662900  0.21278100  1
  C  407  1  0.85197500  0.53068800  0.24000500  1
  C  409  1  0.84698000  0.49614900  0.26632700  1
  C  411  1  0.89009900  0.51027800  0.25564800  1
  C  414  1  0.80581000  0.60576700  0.18229000  1
  C  416  1  0.00195900  0.50074600  0.25933500  1
  C  417  1  0.77592100  0.43288400  0.31582100  1
  C  421  1  0.48003700  0.19181300  0.77882000  1
  C  422  1  0.50859900  0.10326800  0.75698400  1
  C  423  1  0.54969900  0.18121200  0.72562400  1
  C  424  1  0.52459700  0.08672500  0.74383300  1
  C  425  1  0.52249200  0.05908900  0.74475700  1
  C  426  1  0.50444700  0.04677600  0.75908800  1
  C  427  1  0.48833900  0.06311600  0.77219100  1
  C  428  1  0.49047300  0.09078600  0.77122900  1
  C  429  1  0.46028700  0.18234400  0.79318300  1
  C  430  1  0.44447200  0.19978100  0.80546100  1
  C  431  1  0.44787600  0.22741900  0.80390300  1
  C  432  1  0.46751500  0.23689200  0.78953000  1
  C  433  1  0.48317200  0.21951500  0.77727800  1
  C  434  1  0.55192600  0.20895800  0.72359800  1
  C  435  1  0.57041500  0.22054200  0.70940900  1
  C  436  1  0.58753800  0.20484400  0.69660800  1
  C  437  1  0.58533400  0.17713100  0.69858100  1
  C  438  1  0.56684400  0.16557500  0.71278200  1
  C  449  1  0.53090300  0.16948400  0.74000600  1
  C  451  1  0.49636300  0.17447800  0.76632800  1
  C  453  1  0.51049300  0.13136100  0.75564800  1
  C  456  1  0.60599100  0.21564300  0.68229800  1
  C  458  1  0.50096500  0.01950500  0.75934000  1
  C  459  1  0.43308600  0.24553300  0.81581700  1
  C  463  1  0.54163700  0.82943300  0.77881900  1
  C  464  1  0.51307100  0.91797900  0.75698900  1
  C  465  1  0.47197500  0.84003500  0.72562400  1
  C  466  1  0.49707000  0.93452300  0.74383800  1
  C  467  1  0.49917900  0.96215900  0.74475700  1
  C  468  1  0.51722300  0.97447100  0.75909100  1
  C  469  1  0.53332600  0.95813300  0.77219900  1
  C  470  1  0.53119600  0.93046100  0.77123400  1
  C  471  1  0.56139300  0.83890000  0.79317800  1
  C  472  1  0.57721000  0.82145900  0.80545300  1
  C  473  1  0.57380300  0.79382100  0.80389300  1
  C  474  1  0.55415700  0.78435200  0.78952400  1
  C  475  1  0.53849700  0.80173100  0.77727600  1
  C  476  1  0.46975400  0.81229000  0.72359300  1
  C  477  1  0.45126800  0.80070500  0.70940000  1
  C  478  1  0.43414100  0.81640300  0.69660100  1
  C  479  1  0.43633800  0.84411400  0.69857800  1
  C  480  1  0.45482600  0.85567200  0.71278400  1
  C  491  1  0.49077000  0.85176400  0.74000700  1
  C  493  1  0.52531100  0.84677000  0.76632800  1
  C  495  1  0.51117900  0.88988600  0.75565100  1
  C  498  1  0.41569700  0.80560200  0.68228500  1
  C  500  1  0.52070700  0.00174400  0.75934100  1
  C  501  1  0.58859900  0.77570500  0.81579900  1
  C  505  1  0.83080500  0.47713600  0.72951300  1
  C  506  1  0.91838700  0.50780700  0.75098300  1
  C  507  1  0.83973000  0.54943700  0.78053700  1
  C  508  1  0.93471700  0.52403100  0.76410900  1
  C  509  1  0.96235400  0.52203700  0.76332500  1
  C  510  1  0.97481400  0.50392900  0.74913400  1
  C  511  1  0.95868300  0.48761600  0.73604500  1
  C  512  1  0.93101900  0.48959800  0.73690000  1
  C  513  1  0.84107600  0.45681700  0.71609900  1
  C  514  1  0.82434200  0.44045300  0.70369000  1
  C  515  1  0.79668200  0.44387600  0.70425800  1
  C  516  1  0.78632400  0.46389700  0.71779300  1
  C  517  1  0.80303400  0.48008600  0.73021600  1
  C  518  1  0.81203600  0.55318300  0.78052900  1
  C  519  1  0.79992600  0.57133100  0.79469300  1
  C  520  1  0.81512600  0.58639400  0.80945500  1
  C  521  1  0.84275000  0.58292600  0.80951100  1
  C  522  1  0.85483700  0.56493600  0.79516100  1
  C  533  1  0.85181900  0.53030400  0.76671000  1
  C  535  1  0.84755000  0.49436300  0.74166200  1
  C  537  1  0.89032200  0.50956500  0.75215300  1
  C  540  1  0.80326900  0.60277400  0.82461400  1
  C  542  1  0.00207000  0.50065600  0.74892300  1
  C  543  1  0.77964500  0.42954500  0.69112100  1
  C  547  1  0.19086400  0.54412800  0.72951900  1
  C  548  1  0.10328600  0.51343500  0.75098000  1
  C  549  1  0.18195400  0.47182500  0.78054200  1
  C  550  1  0.08695900  0.49721100  0.76410500  1
  C  551  1  0.05932200  0.49920700  0.76332400  1
  C  552  1  0.04685900  0.51730800  0.74912700  1
  C  553  1  0.06299000  0.53362100  0.73603800  1
  C  554  1  0.09065400  0.53164400  0.73689600  1
  C  555  1  0.18059100  0.56443700  0.71609700  1
  C  556  1  0.19732300  0.58080500  0.70369300  1
  C  557  1  0.22498100  0.57739400  0.70426700  1
  C  558  1  0.23534400  0.55738000  0.71780900  1
  C  559  1  0.21863700  0.54119000  0.73023400  1
  C  560  1  0.20965000  0.46808700  0.78053400  1
  C  561  1  0.22176400  0.44994500  0.79470100  1
  C  562  1  0.20656800  0.43486600  0.80945300  1
  C  563  1  0.17894200  0.43832100  0.80950600  1
  C  564  1  0.16685300  0.45632800  0.79517200  1
  C  575  1  0.16985800  0.49095200  0.76671300  1
  C  577  1  0.17412100  0.52688900  0.74166400  1
  C  579  1  0.13135200  0.51167900  0.75215000  1
  C  582  1  0.21842400  0.41847200  0.82460400  1
  C  584  1  0.01960400  0.52058100  0.74892000  1
  C  585  1  0.24201200  0.59170500  0.69111100  1
  C  589  1  0.54432200  0.83059700  0.22951200  1
  C  590  1  0.51365100  0.91817800  0.25098200  1
  C  591  1  0.47201300  0.83952000  0.28053000  1
  C  592  1  0.49742700  0.93450500  0.26410600  1
  C  593  1  0.49941500  0.96214300  0.26331600  1
  C  594  1  0.51752500  0.97460100  0.24912600  1
  C  595  1  0.53384400  0.95847000  0.23604200  1
  C  596  1  0.53186200  0.93080800  0.23689900  1
  C  597  1  0.56463600  0.84086600  0.21609100  1
  C  598  1  0.58099800  0.82413200  0.20368200  1
  C  599  1  0.57756500  0.79647400  0.20424400  1
  C  600  1  0.55755500  0.78611800  0.21779000  1
  C  601  1  0.54137800  0.80282500  0.23022500  1
  C  602  1  0.46826300  0.81182900  0.28051500  1
  C  603  1  0.45010700  0.79971700  0.29467000  1
  C  604  1  0.43505200  0.81491300  0.30944300  1
  C  605  1  0.43853400  0.84253300  0.30951100  1
  C  606  1  0.45652600  0.85462300  0.29516300  1
  C  617  1  0.49115200  0.85161000  0.26670800  1
  C  619  1  0.52709100  0.84734200  0.24166000  1
  C  621  1  0.51189100  0.89011200  0.25215100  1
  C  624  1  0.41868700  0.80305200  0.32461100  1
  C  626  1  0.52079900  0.00185700  0.24891400  1
  C  627  1  0.59188600  0.77944200  0.19109500  1
  C  631  1  0.47735400  0.19065400  0.22951000  1
  C  632  1  0.50802700  0.10307100  0.25097600  1
  C  633  1  0.54966800  0.18172400  0.28052500  1
  C  634  1  0.52425400  0.08674200  0.26409900  1
  C  635  1  0.52225900  0.05910600  0.26331400  1
  C  636  1  0.50415000  0.04664700  0.24912300  1
  C  637  1  0.48783800  0.06277700  0.23603400  1
  C  638  1  0.48981900  0.09044000  0.23689200  1
  C  639  1  0.45703200  0.18038800  0.21609900  1
  C  640  1  0.44065700  0.19712500  0.20370200  1
  C  641  1  0.44409000  0.22478300  0.20426600  1
  C  642  1  0.46412100  0.23513600  0.21779500  1
  C  643  1  0.48030600  0.21842500  0.23022000  1
  C  644  1  0.55341800  0.20941700  0.28051500  1
  C  645  1  0.57157900  0.22152500  0.29466700  1
  C  646  1  0.58663900  0.20632800  0.30943400  1
  C  647  1  0.58315500  0.17870600  0.30950300  1
  C  648  1  0.56516400  0.16661900  0.29515400  1
  C  659  1  0.53053000  0.16963600  0.26670300  1
  C  661  1  0.49458800  0.17390700  0.24165600  1
  C  663  1  0.50978800  0.13113600  0.25214400  1
  C  666  1  0.60301400  0.21818300  0.32460000  1
  C  668  1  0.50087500  0.01939200  0.24891300  1
  C  669  1  0.42974900  0.24182500  0.19114100  1
  N  40  1  0.24061500  0.40990800  0.18192000  1
  N  41  1  0.32885800  0.31613500  0.00984500  1
  N  42  1  0.40544400  0.23791700  0.18606000  1
  N  82  1  0.78106400  0.61133300  0.18191800  1
  N  83  1  0.69283500  0.70512700  0.00985100  1
  N  84  1  0.61620400  0.78332200  0.18604400  1
  N  124  1  0.61156000  0.24038800  0.68192500  1
  N  125  1  0.70531600  0.32863100  0.50985100  1
  N  126  1  0.78354600  0.40523600  0.68605100  1
  N  166  1  0.41012900  0.78085600  0.68191400  1
  N  167  1  0.31634500  0.69261500  0.50984600  1
  N  168  1  0.23813900  0.61602500  0.68606400  1
  N  208  1  0.78132900  0.41066100  0.32493300  1
  N  209  1  0.69295400  0.31583000  0.49630100  1
  N  210  1  0.61831300  0.23733200  0.31926300  1
  N  250  1  0.24033800  0.61059600  0.32492200  1
  N  251  1  0.32869700  0.70543200  0.49629900  1
  N  252  1  0.40337900  0.78391100  0.31927400  1
  N  292  1  0.41085900  0.24012200  0.82492100  1
  N  293  1  0.31606200  0.32850700  0.99629700  1
  N  294  1  0.23759500  0.40320200  0.81926100  1
  N  334  1  0.61081900  0.78111700  0.82491600  1
  N  335  1  0.70561700  0.69273900  0.99630500  1
  N  336  1  0.78411400  0.61806600  0.81927500  1
  N  366  1  0.18474500  0.50682800  0.25238900  1
  N  368  1  0.14792500  0.52670200  0.26760800  1
  N  370  1  0.14316200  0.49316500  0.24204800  1
  N  408  1  0.83693300  0.51441100  0.25238700  1
  N  410  1  0.87375000  0.49453500  0.26760700  1
  N  412  1  0.87851700  0.52807100  0.24204600  1
  N  450  1  0.51462500  0.18452600  0.75238800  1
  N  452  1  0.49475000  0.14770700  0.76760800  1
  N  454  1  0.52828600  0.14294300  0.74204700  1
  N  492  1  0.50704800  0.83672200  0.75238800  1
  N  494  1  0.52692300  0.87353900  0.76760900  1
  N  496  1  0.49338500  0.87830400  0.74204900  1
  N  534  1  0.83707400  0.51321900  0.75481700  1
  N  536  1  0.87432200  0.49304900  0.74065200  1
  N  538  1  0.87841800  0.52789000  0.76504700  1
  N  576  1  0.18460000  0.50804000  0.75482000  1
  N  578  1  0.14734900  0.52819900  0.74065000  1
  N  580  1  0.14326000  0.49336000  0.76504700  1
  N  618  1  0.50823800  0.83686600  0.25481300  1
  N  620  1  0.52840900  0.87411300  0.24064900  1
  N  622  1  0.49356600  0.87820800  0.26504400  1
  N  660  1  0.51344200  0.18438100  0.25480900  1
  N  662  1  0.49327000  0.14713600  0.24064400  1
  N  664  1  0.52811400  0.14303900  0.26503800  1
