# generated using pymatgen
data_Cd5H60(C9O2)12
_symmetry_space_group_name_H-M   'P 1'
_cell_length_a   17.04207000
_cell_length_b   20.15004000
_cell_length_c   25.04250000
_cell_angle_alpha   88.22862000
_cell_angle_beta   70.13727000
_cell_angle_gamma   64.99923000
_symmetry_Int_Tables_number   1
_chemical_formula_structural   Cd5H60(C9O2)12
_chemical_formula_sum   'Cd10 H120 C216 O48'
_cell_volume   7265.80074838
_cell_formula_units_Z   2
loop_
 _symmetry_equiv_pos_site_id
 _symmetry_equiv_pos_as_xyz
  1  'x, y, z'
loop_
 _atom_site_type_symbol
 _atom_site_label
 _atom_site_symmetry_multiplicity
 _atom_site_fract_x
 _atom_site_fract_y
 _atom_site_fract_z
 _atom_site_occupancy
  Cd  Cd0  1  0.01475000  0.82314000  0.55360000  1
  Cd  Cd1  1  0.03228000  0.64906000  0.61568000  1
  Cd  Cd2  1  0.89220000  0.67650000  0.94635000  1
  Cd  Cd3  1  0.79841000  0.85037000  0.88397000  1
  Cd  Cd4  1  0.98525000  0.17686000  0.44640000  1
  Cd  Cd5  1  0.96772000  0.35095000  0.38432000  1
  Cd  Cd6  1  0.10780000  0.32350000  0.05365000  1
  Cd  Cd7  1  0.20159000  0.14963000  0.11603000  1
  Cd  Cd8  1  0.00000000  0.00000000  0.50000000  1
  Cd  Cd9  1  0.00000000  0.50000000  0.00000000  1
  H  H10  1  0.56772000  0.88289000  0.47366000  1
  H  H11  1  0.57142000  0.86579000  0.30230000  1
  H  H12  1  0.82185000  0.74372000  0.33723000  1
  H  H13  1  0.63553000  0.78727000  0.52040000  1
  H  H14  1  0.72183000  0.75025000  0.58777000  1
  H  H15  1  0.95996000  0.75749000  0.45930000  1
  H  H16  1  0.87412000  0.79463000  0.39181000  1
  H  H17  1  0.47286000  0.00449000  0.34778000  1
  H  H18  1  0.30152000  0.08231000  0.37661000  1
  H  H19  1  0.25063000  0.94200000  0.50273000  1
  H  H20  1  0.42214000  0.86462000  0.47541000  1
  H  H21  1  0.68050000  0.86540000  0.21814000  1
  H  H22  1  0.75627000  0.80456000  0.11694000  1
  H  H23  1  0.90594000  0.60016000  0.17080000  1
  H  H24  1  0.83247000  0.65971000  0.27165000  1
  H  H25  1  0.98302000  0.32227000  0.85168000  1
  H  H26  1  0.95131000  0.24368000  0.70559000  1
  H  H27  1  0.01538000  0.10035000  0.83042000  1
  H  H28  1  0.12030000  0.08517000  0.87054000  1
  H  H29  1  0.16069000  0.06582000  0.95844000  1
  H  H30  1  0.96390000  0.28941000  0.03130000  1
  H  H31  1  0.92273000  0.30951000  0.94440000  1
  H  H32  1  0.92215000  0.42673000  0.83024000  1
  H  H33  1  0.94506000  0.53120000  0.78460000  1
  H  H34  1  0.02693000  0.41683000  0.61847000  1
  H  H35  1  0.00660000  0.31115000  0.66313000  1
  H  H36  1  0.92052000  0.06184000  0.80024000  1
  H  H37  1  0.93453000  0.95886000  0.73895000  1
  H  H38  1  0.07944000  0.02866000  0.58866000  1
  H  H39  1  0.06556000  0.13089000  0.64897000  1
  H  H40  1  0.42460000  0.61703000  0.02615000  1
  H  H41  1  0.23943000  0.63469000  0.19748000  1
  H  H42  1  0.40362000  0.75618000  0.16257000  1
  H  H43  1  0.44325000  0.71233000  0.97927000  1
  H  H44  1  0.56034000  0.74831000  0.91145000  1
  H  H45  1  0.67761000  0.74196000  0.03970000  1
  H  H46  1  0.56099000  0.70587000  0.10767000  1
  H  H47  1  0.32551000  0.49562000  0.15221000  1
  H  H48  1  0.25943000  0.41818000  0.12433000  1
  H  H49  1  0.19404000  0.55768000  0.99788000  1
  H  H50  1  0.26195000  0.63493000  0.02435000  1
  H  H51  1  0.26393000  0.63502000  0.28181000  1
  H  H52  1  0.17720000  0.69614000  0.38283000  1
  H  H53  1  0.17715000  0.90032000  0.32879000  1
  H  H54  1  0.26455000  0.84053000  0.22817000  1
  H  H55  1  0.65707000  0.17701000  0.64813000  1
  H  H56  1  0.40116000  0.25562000  0.79430000  1
  H  H57  1  0.44668000  0.39899000  0.66959000  1
  H  H58  1  0.57705000  0.41400000  0.62896000  1
  H  H59  1  0.68597000  0.43303000  0.54104000  1
  H  H60  1  0.78464000  0.20918000  0.46854000  1
  H  H61  1  0.67653000  0.18985000  0.55552000  1
  H  H62  1  0.67926000  0.07239000  0.66960000  1
  H  H63  1  0.76137000  0.96825000  0.71528000  1
  H  H64  1  0.56299000  0.08276000  0.88138000  1
  H  H65  1  0.48157000  0.18820000  0.83674000  1
  H  H66  1  0.28310000  0.43761000  0.70014000  1
  H  H67  1  0.13355000  0.54048000  0.76129000  1
  H  H68  1  0.19852000  0.46985000  0.91161000  1
  H  H69  1  0.34668000  0.36804000  0.85105000  1
  H  H70  1  0.43227000  0.11711000  0.52634000  1
  H  H71  1  0.42858000  0.13421000  0.69770000  1
  H  H72  1  0.17814000  0.25628000  0.66277000  1
  H  H73  1  0.36447000  0.21273000  0.47960000  1
  H  H74  1  0.27817000  0.24975000  0.41223000  1
  H  H75  1  0.04004000  0.24252000  0.54070000  1
  H  H76  1  0.12587000  0.20538000  0.60819000  1
  H  H77  1  0.52714000  0.99551000  0.65222000  1
  H  H78  1  0.69847000  0.91770000  0.62339000  1
  H  H79  1  0.74937000  0.05801000  0.49727000  1
  H  H80  1  0.57786000  0.13539000  0.52459000  1
  H  H81  1  0.31950000  0.13460000  0.78186000  1
  H  H82  1  0.24373000  0.19544000  0.88306000  1
  H  H83  1  0.09406000  0.39984000  0.82920000  1
  H  H84  1  0.16753000  0.34029000  0.72835000  1
  H  H85  1  0.01698000  0.67773000  0.14832000  1
  H  H86  1  0.04868000  0.75633000  0.29441000  1
  H  H87  1  0.98462000  0.89965000  0.16958000  1
  H  H88  1  0.87970000  0.91483000  0.12946000  1
  H  H89  1  0.83931000  0.93418000  0.04156000  1
  H  H90  1  0.03610000  0.71059000  0.96870000  1
  H  H91  1  0.07726000  0.69050000  0.05560000  1
  H  H92  1  0.07784000  0.57327000  0.16976000  1
  H  H93  1  0.05494000  0.46881000  0.21540000  1
  H  H94  1  0.97306000  0.58318000  0.38153000  1
  H  H95  1  0.99339000  0.68886000  0.33687000  1
  H  H96  1  0.07947000  0.93817000  0.19976000  1
  H  H97  1  0.06546000  0.04115000  0.26105000  1
  H  H98  1  0.92056000  0.97134000  0.41134000  1
  H  H99  1  0.93444000  0.86912000  0.35103000  1
  H  H100  1  0.57540000  0.38298000  0.97385000  1
  H  H101  1  0.76057000  0.36531000  0.80252000  1
  H  H102  1  0.59637000  0.24382000  0.83743000  1
  H  H103  1  0.55675000  0.28767000  0.02073000  1
  H  H104  1  0.43965000  0.25169000  0.08855000  1
  H  H105  1  0.32239000  0.25805000  0.96030000  1
  H  H106  1  0.43900000  0.29413000  0.89233000  1
  H  H107  1  0.67449000  0.50439000  0.84779000  1
  H  H108  1  0.74056000  0.58182000  0.87567000  1
  H  H109  1  0.80596000  0.44233000  0.00212000  1
  H  H110  1  0.73805000  0.36507000  0.97566000  1
  H  H111  1  0.73607000  0.36498000  0.71819000  1
  H  H112  1  0.82280000  0.30387000  0.61717000  1
  H  H113  1  0.82284000  0.09969000  0.67121000  1
  H  H114  1  0.73544000  0.15947000  0.77183000  1
  H  H115  1  0.34293000  0.82300000  0.35187000  1
  H  H116  1  0.59884000  0.74438000  0.20570000  1
  H  H117  1  0.55332000  0.60101000  0.33041000  1
  H  H118  1  0.42294000  0.58600000  0.37104000  1
  H  H119  1  0.31403000  0.56698000  0.45896000  1
  H  H120  1  0.21536000  0.79082000  0.53146000  1
  H  H121  1  0.32346000  0.81015000  0.44448000  1
  H  H122  1  0.32074000  0.92761000  0.33040000  1
  H  H123  1  0.23863000  0.03175000  0.28472000  1
  H  H124  1  0.43701000  0.91724000  0.11862000  1
  H  H125  1  0.51842000  0.81180000  0.16326000  1
  H  H126  1  0.71690000  0.56239000  0.29986000  1
  H  H127  1  0.86644000  0.45952000  0.23871000  1
  H  H128  1  0.80148000  0.53015000  0.08839000  1
  H  H129  1  0.65332000  0.63196000  0.14895000  1
  C  C130  1  0.70090000  0.81145000  0.41006000  1
  C  C131  1  0.60540000  0.85935000  0.42881000  1
  C  C132  1  0.55897000  0.88013000  0.38999000  1
  C  C133  1  0.60845000  0.85182000  0.33192000  1
  C  C134  1  0.70306000  0.80140000  0.31240000  1
  C  C135  1  0.74861000  0.78236000  0.35188000  1
  C  C136  1  0.74967000  0.79238000  0.45098000  1
  C  C137  1  0.70607000  0.78156000  0.50715000  1
  C  C138  1  0.75373000  0.76072000  0.54481000  1
  C  C139  1  0.84571000  0.75113000  0.52753000  1
  C  C140  1  0.88922000  0.76356000  0.47210000  1
  C  C141  1  0.84143000  0.78387000  0.43450000  1
  C  C142  1  0.45850000  0.92927000  0.40948000  1
  C  C143  1  0.42416000  0.99104000  0.38184000  1
  C  C144  1  0.32898000  0.03455000  0.39781000  1
  C  C145  1  0.26656000  0.01601000  0.44094000  1
  C  C146  1  0.30041000  0.95549000  0.46960000  1
  C  C147  1  0.39565000  0.91286000  0.45438000  1
  C  C148  1  0.75076000  0.76691000  0.25223000  1
  C  C149  1  0.72945000  0.80718000  0.20790000  1
  C  C150  1  0.77152000  0.77366000  0.15142000  1
  C  C151  1  0.83534000  0.69857000  0.13783000  1
  C  C152  1  0.85744000  0.65837000  0.18158000  1
  C  C153  1  0.81617000  0.69203000  0.23800000  1
  C  C154  1  0.89747000  0.72494000  0.56731000  1
  C  C155  1  0.16425000  0.05789000  0.45429000  1
  C  C156  1  0.87879000  0.66152000  0.07715000  1
  C  C157  1  0.99716000  0.21130000  0.84849000  1
  C  C158  1  0.97983000  0.27978000  0.82803000  1
  C  C159  1  0.96703000  0.29191000  0.77535000  1
  C  C160  1  0.96672000  0.23455000  0.74467000  1
  C  C161  1  0.98438000  0.16535000  0.76392000  1
  C  C162  1  0.99978000  0.15433000  0.81585000  1
  C  C163  1  0.01797000  0.19854000  0.90141000  1
  C  C164  1  0.08431000  0.12931000  0.90628000  1
  C  C165  1  0.10760000  0.11825000  0.95495000  1
  C  C166  1  0.06474000  0.17607000  0.00017000  1
  C  C167  1  0.99719000  0.24470000  0.99620000  1
  C  C168  1  0.97448000  0.25590000  0.94730000  1
  C  C169  1  0.96516000  0.35953000  0.75028000  1
  C  C170  1  0.94625000  0.42343000  0.78382000  1
  C  C171  1  0.95835000  0.48263000  0.75848000  1
  C  C172  1  0.98915000  0.47952000  0.69856000  1
  C  C173  1  0.00416000  0.41782000  0.66477000  1
  C  C174  1  0.99190000  0.35910000  0.69030000  1
  C  C175  1  0.99129000  0.10418000  0.72888000  1
  C  C176  1  0.95601000  0.05423000  0.75406000  1
  C  C177  1  0.96328000  0.99692000  0.72019000  1
  C  C178  1  0.00707000  0.98798000  0.66037000  1
  C  C179  1  0.04438000  0.03630000  0.63492000  1
  C  C180  1  0.03570000  0.09407000  0.66895000  1
  C  C181  1  0.09735000  0.16547000  0.04930000  1
  C  C182  1  0.00651000  0.53997000  0.66907000  1
  C  C183  1  0.01208000  0.92760000  0.62467000  1
  C  C184  1  0.42265000  0.68860000  0.08972000  1
  C  C185  1  0.39367000  0.64069000  0.07100000  1
  C  C186  1  0.32918000  0.61995000  0.10983000  1
  C  C187  1  0.29238000  0.64843000  0.16789000  1
  C  C188  1  0.31727000  0.69878000  0.18741000  1
  C  C189  1  0.38337000  0.71770000  0.14791000  1
  C  C190  1  0.49328000  0.70752000  0.04864000  1
  C  C191  1  0.49507000  0.71787000  0.99239000  1
  C  C192  1  0.55981000  0.73818000  0.95446000  1
  C  C193  1  0.62515000  0.74781000  0.97152000  1
  C  C194  1  0.62566000  0.73583000  0.02700000  1
  C  C195  1  0.56025000  0.71608000  0.06490000  1
  C  C196  1  0.29705000  0.57077000  0.09053000  1
  C  C197  1  0.29680000  0.50914000  0.11841000  1
  C  C198  1  0.26048000  0.46577000  0.10291000  1
  C  C199  1  0.22232000  0.48415000  0.05989000  1
  C  C200  1  0.22441000  0.54444000  0.03093000  1
  C  C201  1  0.26231000  0.58699000  0.04574000  1
  C  C202  1  0.27035000  0.73336000  0.24758000  1
  C  C203  1  0.24461000  0.69325000  0.29195000  1
  C  C204  1  0.19627000  0.72696000  0.34838000  1
  C  C205  1  0.17129000  0.80210000  0.36194000  1
  C  C206  1  0.19749000  0.84209000  0.31817000  1
  C  C207  1  0.24673000  0.80825000  0.26180000  1
  C  C208  1  0.68989000  0.77429000  0.93150000  1
  C  C209  1  0.17524000  0.44209000  0.04678000  1
  C  C210  1  0.11633000  0.83937000  0.42257000  1
  C  C211  1  0.55730000  0.28803000  0.65134000  1
  C  C212  1  0.58789000  0.21954000  0.67181000  1
  C  C213  1  0.53469000  0.20737000  0.72452000  1
  C  C214  1  0.44652000  0.26472000  0.75525000  1
  C  C215  1  0.41435000  0.33396000  0.73607000  1
  C  C216  1  0.47047000  0.34499000  0.68409000  1
  C  C217  1  0.61832000  0.30072000  0.59834000  1
  C  C218  1  0.62075000  0.36977000  0.59330000  1
  C  C219  1  0.68189000  0.38055000  0.54459000  1
  C  C220  1  0.74202000  0.32260000  0.49943000  1
  C  C221  1  0.73857000  0.25415000  0.50354000  1
  C  C222  1  0.67789000  0.24333000  0.55250000  1
  C  C223  1  0.57534000  0.13971000  0.74957000  1
  C  C224  1  0.65379000  0.07579000  0.71604000  1
  C  C225  1  0.69992000  0.01673000  0.74142000  1
  C  C226  1  0.66782000  0.01986000  0.80134000  1
  C  C227  1  0.58747000  0.08158000  0.83509000  1
  C  C228  1  0.54191000  0.14022000  0.80955000  1
  C  C229  1  0.32525000  0.39504000  0.77129000  1
  C  C230  1  0.26502000  0.44511000  0.74630000  1
  C  C231  1  0.18127000  0.50241000  0.78025000  1
  C  C232  1  0.15643000  0.51125000  0.84008000  1
  C  C233  1  0.21676000  0.46263000  0.86538000  1
  C  C234  1  0.29981000  0.40497000  0.83121000  1
  C  C235  1  0.81343000  0.33303000  0.45033000  1
  C  C236  1  0.71601000  0.95941000  0.83085000  1
  C  C237  1  0.06582000  0.57204000  0.87586000  1
  C  C238  1  0.29909000  0.18855000  0.58994000  1
  C  C239  1  0.39459000  0.14066000  0.57119000  1
  C  C240  1  0.44102000  0.11987000  0.61001000  1
  C  C241  1  0.39154000  0.14818000  0.66808000  1
  C  C242  1  0.29694000  0.19860000  0.68760000  1
  C  C243  1  0.25139000  0.21765000  0.64812000  1
  C  C244  1  0.25033000  0.20763000  0.54902000  1
  C  C245  1  0.29392000  0.21844000  0.49285000  1
  C  C246  1  0.24627000  0.23928000  0.45519000  1
  C  C247  1  0.15429000  0.24887000  0.47247000  1
  C  C248  1  0.11077000  0.23645000  0.52790000  1
  C  C249  1  0.15857000  0.21614000  0.56550000  1
  C  C250  1  0.54150000  0.07073000  0.59052000  1
  C  C251  1  0.57583000  0.00897000  0.61816000  1
  C  C252  1  0.67102000  0.96545000  0.60219000  1
  C  C253  1  0.73344000  0.98400000  0.55906000  1
  C  C254  1  0.69959000  0.04452000  0.53040000  1
  C  C255  1  0.60435000  0.08715000  0.54562000  1
  C  C256  1  0.24923000  0.23310000  0.74777000  1
  C  C257  1  0.27055000  0.19282000  0.79210000  1
  C  C258  1  0.22848000  0.22634000  0.84858000  1
  C  C259  1  0.16466000  0.30144000  0.86217000  1
  C  C260  1  0.14256000  0.34163000  0.81842000  1
  C  C261  1  0.18383000  0.30797000  0.76200000  1
  C  C262  1  0.10253000  0.27506000  0.43269000  1
  C  C263  1  0.83574000  0.94211000  0.54571000  1
  C  C264  1  0.12121000  0.33848000  0.92285000  1
  C  C265  1  0.00284000  0.78870000  0.15151000  1
  C  C266  1  0.02017000  0.72023000  0.17197000  1
  C  C267  1  0.03296000  0.70810000  0.22465000  1
  C  C268  1  0.03328000  0.76545000  0.25533000  1
  C  C269  1  0.01562000  0.83466000  0.23608000  1
  C  C270  1  0.00022000  0.84568000  0.18415000  1
  C  C271  1  0.98202000  0.80147000  0.09859000  1
  C  C272  1  0.91569000  0.87069000  0.09372000  1
  C  C273  1  0.89240000  0.88175000  0.04505000  1
  C  C274  1  0.93526000  0.82393000  0.99983000  1
  C  C275  1  0.00281000  0.75531000  0.00380000  1
  C  C276  1  0.02552000  0.74411000  0.05270000  1
  C  C277  1  0.03483000  0.64047000  0.24972000  1
  C  C278  1  0.05375000  0.57657000  0.21618000  1
  C  C279  1  0.04165000  0.51738000  0.24152000  1
  C  C280  1  0.01085000  0.52049000  0.30144000  1
  C  C281  1  0.99583000  0.58218000  0.33523000  1
  C  C282  1  0.00809000  0.64090000  0.30970000  1
  C  C283  1  0.00871000  0.89582000  0.27112000  1
  C  C284  1  0.04399000  0.94578000  0.24594000  1
  C  C285  1  0.03672000  0.00309000  0.27981000  1
  C  C286  1  0.99293000  0.01203000  0.33963000  1
  C  C287  1  0.95562000  0.96371000  0.36508000  1
  C  C288  1  0.96429000  0.90594000  0.33105000  1
  C  C289  1  0.90265000  0.83454000  0.95070000  1
  C  C290  1  0.99349000  0.46003000  0.33093000  1
  C  C291  1  0.98792000  0.07240000  0.37534000  1
  C  C292  1  0.57734000  0.31140000  0.91028000  1
  C  C293  1  0.60633000  0.35931000  0.92900000  1
  C  C294  1  0.67082000  0.38005000  0.89017000  1
  C  C295  1  0.70762000  0.35158000  0.83211000  1
  C  C296  1  0.68273000  0.30123000  0.81259000  1
  C  C297  1  0.61663000  0.28231000  0.85209000  1
  C  C298  1  0.50672000  0.29249000  0.95136000  1
  C  C299  1  0.50493000  0.28213000  0.00761000  1
  C  C300  1  0.44019000  0.26183000  0.04554000  1
  C  C301  1  0.37485000  0.25220000  0.02848000  1
  C  C302  1  0.37433000  0.26418000  0.97300000  1
  C  C303  1  0.43975000  0.28393000  0.93510000  1
  C  C304  1  0.70294000  0.42924000  0.90947000  1
  C  C305  1  0.70320000  0.49087000  0.88159000  1
  C  C306  1  0.73951000  0.53424000  0.89709000  1
  C  C307  1  0.77767000  0.51585000  0.94012000  1
  C  C308  1  0.77558000  0.45556000  0.96907000  1
  C  C309  1  0.73768000  0.41301000  0.95426000  1
  C  C310  1  0.72965000  0.26664000  0.75242000  1
  C  C311  1  0.75539000  0.30676000  0.70805000  1
  C  C312  1  0.80373000  0.27304000  0.65162000  1
  C  C313  1  0.82870000  0.19790000  0.63806000  1
  C  C314  1  0.80251000  0.15791000  0.68183000  1
  C  C315  1  0.75327000  0.19176000  0.73820000  1
  C  C316  1  0.31010000  0.22572000  0.06850000  1
  C  C317  1  0.82476000  0.55792000  0.95322000  1
  C  C318  1  0.88367000  0.16064000  0.57743000  1
  C  C319  1  0.44270000  0.71197000  0.34866000  1
  C  C320  1  0.41211000  0.78046000  0.32819000  1
  C  C321  1  0.46531000  0.79264000  0.27548000  1
  C  C322  1  0.55348000  0.73528000  0.24475000  1
  C  C323  1  0.58565000  0.66605000  0.26393000  1
  C  C324  1  0.52953000  0.65501000  0.31591000  1
  C  C325  1  0.38168000  0.69928000  0.40166000  1
  C  C326  1  0.37925000  0.63024000  0.40670000  1
  C  C327  1  0.31811000  0.61946000  0.45541000  1
  C  C328  1  0.25798000  0.67741000  0.50057000  1
  C  C329  1  0.26142000  0.74586000  0.49646000  1
  C  C330  1  0.32211000  0.75668000  0.44750000  1
  C  C331  1  0.42465000  0.86029000  0.25043000  1
  C  C332  1  0.34621000  0.92422000  0.28396000  1
  C  C333  1  0.30007000  0.98327000  0.25858000  1
  C  C334  1  0.33218000  0.98014000  0.19866000  1
  C  C335  1  0.41253000  0.91843000  0.16491000  1
  C  C336  1  0.45809000  0.85979000  0.19045000  1
  C  C337  1  0.67474000  0.60496000  0.22871000  1
  C  C338  1  0.73497000  0.55490000  0.25370000  1
  C  C339  1  0.81873000  0.49759000  0.21975000  1
  C  C340  1  0.84357000  0.48875000  0.15992000  1
  C  C341  1  0.78323000  0.53738000  0.13462000  1
  C  C342  1  0.70018000  0.59504000  0.16879000  1
  C  C343  1  0.18657000  0.66697000  0.54967000  1
  C  C344  1  0.28399000  0.04059000  0.16915000  1
  C  C345  1  0.93418000  0.42797000  0.12414000  1
  O  O346  1  0.98146000  0.72056000  0.54997000  1
  O  O347  1  0.86457000  0.70423000  0.61379000  1
  O  O348  1  0.13891000  0.10812000  0.42320000  1
  O  O349  1  0.11040000  0.04023000  0.49489000  1
  O  O350  1  0.84198000  0.69753000  0.04230000  1
  O  O351  1  0.94817000  0.59838000  0.06618000  1
  O  O352  1  0.15126000  0.10152000  0.05517000  1
  O  O353  1  0.07298000  0.22311000  0.08392000  1
  O  O354  1  0.00806000  0.59151000  0.69710000  1
  O  O355  1  0.02003000  0.53843000  0.61576000  1
  O  O356  1  0.98358000  0.88182000  0.64825000  1
  O  O357  1  0.04711000  0.92276000  0.56896000  1
  O  O358  1  0.75351000  0.77791000  0.94794000  1
  O  O359  1  0.68078000  0.79599000  0.88570000  1
  O  O360  1  0.16674000  0.39345000  0.07912000  1
  O  O361  1  0.14646000  0.45788000  0.00514000  1
  O  O362  1  0.08004000  0.80374000  0.45738000  1
  O  O363  1  0.11160000  0.90255000  0.43354000  1
  O  O364  1  0.80976000  0.39693000  0.44489000  1
  O  O365  1  0.88090000  0.27558000  0.41542000  1
  O  O366  1  0.79773000  0.90873000  0.80305000  1
  O  O367  1  0.67413000  0.96011000  0.88392000  1
  O  O368  1  0.01621000  0.61928000  0.85242000  1
  O  O369  1  0.03965000  0.57577000  0.93150000  1
  O  O370  1  0.01854000  0.27945000  0.45003000  1
  O  O371  1  0.13543000  0.29578000  0.38621000  1
  O  O372  1  0.86109000  0.89189000  0.57680000  1
  O  O373  1  0.88959000  0.95978000  0.50511000  1
  O  O374  1  0.15802000  0.30248000  0.95770000  1
  O  O375  1  0.05183000  0.40162000  0.93382000  1
  O  O376  1  0.84873000  0.89848000  0.94483000  1
  O  O377  1  0.92702000  0.77690000  0.91608000  1
  O  O378  1  0.99194000  0.40850000  0.30290000  1
  O  O379  1  0.97997000  0.46158000  0.38424000  1
  O  O380  1  0.01641000  0.11818000  0.35175000  1
  O  O381  1  0.95288000  0.07724000  0.43104000  1
  O  O382  1  0.24648000  0.22210000  0.05206000  1
  O  O383  1  0.31921000  0.20402000  0.11430000  1
  O  O384  1  0.83326000  0.60655000  0.92088000  1
  O  O385  1  0.85354000  0.54213000  0.99486000  1
  O  O386  1  0.91996000  0.19626000  0.54262000  1
  O  O387  1  0.88840000  0.09746000  0.56646000  1
  O  O388  1  0.19024000  0.60308000  0.55511000  1
  O  O389  1  0.11910000  0.72443000  0.58458000  1
  O  O390  1  0.20227000  0.09128000  0.19695000  1
  O  O391  1  0.32586000  0.03990000  0.11608000  1
  O  O392  1  0.98379000  0.38072000  0.14758000  1
  O  O393  1  0.96035000  0.42423000  0.06850000  1
