# generated using pymatgen
data_InH4C12(NO2)4
_symmetry_space_group_name_H-M   'P 1'
_cell_length_a   9.28409000
_cell_length_b   9.28446000
_cell_length_c   13.93550000
_cell_angle_alpha   109.29277000
_cell_angle_beta   109.27787000
_cell_angle_gamma   90.03703000
_symmetry_Int_Tables_number   1
_chemical_formula_structural   InH4C12(NO2)4
_chemical_formula_sum   'In2 H8 C24 N8 O16'
_cell_volume   1062.03351133
_cell_formula_units_Z   2
loop_
 _symmetry_equiv_pos_site_id
 _symmetry_equiv_pos_as_xyz
  1  'x, y, z'
loop_
 _atom_site_type_symbol
 _atom_site_label
 _atom_site_symmetry_multiplicity
 _atom_site_fract_x
 _atom_site_fract_y
 _atom_site_fract_z
 _atom_site_occupancy
  In  In0  1  0.12543000  0.37519000  0.75008000  1
  In  In1  1  0.87458000  0.62481000  0.24992000  1
  H  H2  1  0.39285000  0.23027000  0.93706000  1
  H  H3  1  0.04509000  0.70636000  0.93633000  1
  H  H4  1  0.73032000  0.54419000  0.43678000  1
  H  H5  1  0.20663000  0.89187000  0.43664000  1
  H  H6  1  0.60716000  0.76974000  0.06294000  1
  H  H7  1  0.95492000  0.29365000  0.06367000  1
  H  H8  1  0.26969000  0.45581000  0.56322000  1
  H  H9  1  0.79337000  0.10814000  0.56336000  1
  C  C10  1  0.44009000  0.35042000  0.96507000  1
  C  C11  1  0.42348000  0.58876000  0.94581000  1
  C  C12  1  0.33513000  0.68820000  0.88347000  1
  C  C13  1  0.02552000  0.61446000  0.96472000  1
  C  C14  1  0.02263000  0.35715000  0.94617000  1
  C  C15  1  0.04909000  0.19561000  0.88416000  1
  C  C16  1  0.85042000  0.52488000  0.46497000  1
  C  C17  1  0.08904000  0.52327000  0.44597000  1
  C  C18  1  0.18833000  0.55053000  0.38366000  1
  C  C19  1  0.11462000  0.93961000  0.46488000  1
  C  C20  1  0.85726000  0.92376000  0.44609000  1
  C  C21  1  0.69579000  0.83547000  0.38413000  1
  C  C22  1  0.55992000  0.64958000  0.03493000  1
  C  C23  1  0.57652000  0.41125000  0.05419000  1
  C  C24  1  0.66487000  0.31181000  0.11653000  1
  C  C25  1  0.97449000  0.38554000  0.03528000  1
  C  C26  1  0.97738000  0.64286000  0.05383000  1
  C  C27  1  0.95091000  0.80440000  0.11585000  1
  C  C28  1  0.14958000  0.47513000  0.53503000  1
  C  C29  1  0.91096000  0.47673000  0.55403000  1
  C  C30  1  0.81167000  0.44948000  0.61635000  1
  C  C31  1  0.88538000  0.06039000  0.53512000  1
  C  C32  1  0.14275000  0.07624000  0.55392000  1
  C  C33  1  0.30422000  0.16453000  0.61587000  1
  N  N34  1  0.36640000  0.44179000  0.91328000  1
  N  N35  1  0.04774000  0.47145000  0.91337000  1
  N  N36  1  0.94196000  0.54766000  0.41336000  1
  N  N37  1  0.97165000  0.86626000  0.41339000  1
  N  N38  1  0.63361000  0.55822000  0.08672000  1
  N  N39  1  0.95227000  0.52855000  0.08663000  1
  N  N40  1  0.05804000  0.45235000  0.58664000  1
  N  N41  1  0.02836000  0.13375000  0.58661000  1
  O  O42  1  0.20764000  0.62222000  0.80503000  1
  O  O43  1  0.39192000  0.82328000  0.91366000  1
  O  O44  1  0.10000000  0.18360000  0.80630000  1
  O  O45  1  0.02136000  0.09052000  0.91409000  1
  O  O46  1  0.12189000  0.59951000  0.30496000  1
  O  O47  1  0.32385000  0.52525000  0.41390000  1
  O  O48  1  0.68369000  0.70739000  0.30618000  1
  O  O49  1  0.59074000  0.89261000  0.41419000  1
  O  O50  1  0.79236000  0.37778000  0.19497000  1
  O  O51  1  0.60809000  0.17673000  0.08634000  1
  O  O52  1  0.90001000  0.81640000  0.19370000  1
  O  O53  1  0.97865000  0.90948000  0.08591000  1
  O  O54  1  0.87811000  0.40050000  0.69504000  1
  O  O55  1  0.67615000  0.47476000  0.58610000  1
  O  O56  1  0.31631000  0.29261000  0.69382000  1
  O  O57  1  0.40926000  0.10739000  0.58581000  1
