# generated using pymatgen
data_UH6(C3O2)2
_symmetry_space_group_name_H-M   'P 1'
_cell_length_a   8.58463000
_cell_length_b   8.95344000
_cell_length_c   11.52736000
_cell_angle_alpha   77.46987000
_cell_angle_beta   74.65133000
_cell_angle_gamma   74.72095000
_symmetry_Int_Tables_number   1
_chemical_formula_structural   UH6(C3O2)2
_chemical_formula_sum   'U3 H18 C18 O12'
_cell_volume   813.82938622
_cell_formula_units_Z   3
loop_
 _symmetry_equiv_pos_site_id
 _symmetry_equiv_pos_as_xyz
  1  'x, y, z'
loop_
 _atom_site_type_symbol
 _atom_site_label
 _atom_site_symmetry_multiplicity
 _atom_site_fract_x
 _atom_site_fract_y
 _atom_site_fract_z
 _atom_site_occupancy
  U  U0  1  0.47760000  0.75294000  0.81483000  1
  U  U1  1  0.51683000  0.25337000  0.18038000  1
  U  U2  1  0.48423000  0.00154000  0.51713000  1
  H  H3  1  0.78209000  0.14643000  0.95531000  1
  H  H4  1  0.01010000  0.89498000  0.39721000  1
  H  H5  1  0.28034000  0.69354000  0.29672000  1
  H  H6  1  0.96801000  0.03852000  0.13257000  1
  H  H7  1  0.42590000  0.77021000  0.17764000  1
  H  H8  1  0.21677000  0.85347000  0.04541000  1
  H  H9  1  0.01815000  0.29906000  0.74024000  1
  H  H10  1  0.98513000  0.09384000  0.33056000  1
  H  H11  1  0.94933000  0.77443000  0.11333000  1
  H  H12  1  0.02766000  0.90043000  0.67336000  1
  H  H13  1  0.02734000  0.96077000  0.87207000  1
  H  H14  1  0.72354000  0.29736000  0.69996000  1
  H  H15  1  0.99786000  0.10092000  0.60951000  1
  H  H16  1  0.57886000  0.22021000  0.81966000  1
  H  H17  1  0.04724000  0.22374000  0.88954000  1
  H  H18  1  0.75951000  0.95381000  0.82205000  1
  H  H19  1  0.25072000  0.03953000  0.17587000  1
  H  H20  1  0.99068000  0.69452000  0.26023000  1
  C  C21  1  0.29263000  0.78801000  0.21871000  1
  C  C22  1  0.03204000  0.97440000  0.30928000  1
  C  C23  1  0.29094000  0.98140000  0.35258000  1
  C  C24  1  0.01571000  0.78438000  0.18001000  1
  C  C25  1  0.28108000  0.60791000  0.08665000  1
  C  C26  1  0.20225000  0.76490000  0.12759000  1
  C  C27  1  0.79733000  0.23565000  0.87313000  1
  C  C28  1  0.22109000  0.95056000  0.25671000  1
  C  C29  1  0.25167000  0.02100000  0.74295000  1
  C  C30  1  0.78715000  0.04637000  0.74470000  1
  C  C31  1  0.71195000  0.20809000  0.78151000  1
  C  C32  1  0.98549000  0.21295000  0.82127000  1
  C  C33  1  0.71385000  0.39620000  0.90703000  1
  C  C34  1  0.97593000  0.01944000  0.69515000  1
  C  C35  1  0.05984000  0.04616000  0.78843000  1
  C  C36  1  0.71093000  0.02171000  0.65088000  1
  C  C37  1  0.76349000  0.96854000  0.25126000  1
  C  C38  1  0.94772000  0.95046000  0.21473000  1
  O  O39  1  0.29816000  0.13482000  0.64748000  1
  O  O40  1  0.32559000  0.60003000  0.97354000  1
  O  O41  1  0.68881000  0.12300000  0.55574000  1
  O  O42  1  0.70152000  0.89969000  0.35700000  1
  O  O43  1  0.66066000  0.40849000  0.02272000  1
  O  O44  1  0.33011000  0.98647000  0.83818000  1
  O  O45  1  0.68242000  0.01335000  0.16370000  1
  O  O46  1  0.33778000  0.11309000  0.33879000  1
  O  O47  1  0.30416000  0.48612000  0.16915000  1
  O  O48  1  0.66787000  0.88805000  0.66432000  1
  O  O49  1  0.69514000  0.51177000  0.82396000  1
  O  O50  1  0.30179000  0.88353000  0.44977000  1
