# generated using pymatgen
data_Sc3H12C24O13
_symmetry_space_group_name_H-M   'P 1'
_cell_length_a   14.46977000
_cell_length_b   14.46964000
_cell_length_c   17.80582000
_cell_angle_alpha   90.00000000
_cell_angle_beta   90.00000000
_cell_angle_gamma   119.83391000
_symmetry_Int_Tables_number   1
_chemical_formula_structural   Sc3H12C24O13
_chemical_formula_sum   'Sc6 H24 C48 O26'
_cell_volume   3233.97295657
_cell_formula_units_Z   2
loop_
 _symmetry_equiv_pos_site_id
 _symmetry_equiv_pos_as_xyz
  1  'x, y, z'
loop_
 _atom_site_type_symbol
 _atom_site_label
 _atom_site_symmetry_multiplicity
 _atom_site_fract_x
 _atom_site_fract_y
 _atom_site_fract_z
 _atom_site_occupancy
  Sc  Sc0  1  0.74507000  0.25493000  0.75000000  1
  Sc  Sc1  1  0.51018000  0.25519000  0.75000000  1
  Sc  Sc2  1  0.74481000  0.48982000  0.75000000  1
  Sc  Sc3  1  0.25493000  0.74507000  0.25000000  1
  Sc  Sc4  1  0.48981000  0.74481000  0.25000000  1
  Sc  Sc5  1  0.25519000  0.51019000  0.25000000  1
  H  H6  1  0.94748000  0.62244000  0.94023000  1
  H  H7  1  0.67476000  0.05232000  0.94046000  1
  H  H8  1  0.37800000  0.32548000  0.94027000  1
  H  H9  1  0.05251000  0.37757000  0.44024000  1
  H  H10  1  0.32523000  0.94768000  0.44046000  1
  H  H11  1  0.62200000  0.67452000  0.44027000  1
  H  H12  1  0.62243000  0.94749000  0.05977000  1
  H  H13  1  0.05232000  0.67477000  0.05954000  1
  H  H14  1  0.32548000  0.37800000  0.05973000  1
  H  H15  1  0.37756000  0.05252000  0.55977000  1
  H  H16  1  0.94767000  0.32524000  0.55954000  1
  H  H17  1  0.67452000  0.62201000  0.55973000  1
  H  H18  1  0.05251000  0.37757000  0.05977000  1
  H  H19  1  0.32523000  0.94768000  0.05954000  1
  H  H20  1  0.62200000  0.67452000  0.05973000  1
  H  H21  1  0.94748000  0.62244000  0.55977000  1
  H  H22  1  0.67476000  0.05233000  0.55954000  1
  H  H23  1  0.37800000  0.32548000  0.55973000  1
  H  H24  1  0.37756000  0.05251000  0.94023000  1
  H  H25  1  0.94767000  0.32524000  0.94046000  1
  H  H26  1  0.67452000  0.62200000  0.94027000  1
  H  H27  1  0.62243000  0.94749000  0.44024000  1
  H  H28  1  0.05232000  0.67477000  0.44046000  1
  H  H29  1  0.32548000  0.37800000  0.44027000  1
  C  C30  1  0.97106000  0.56964000  0.96670000  1
  C  C31  1  0.59848000  0.02879000  0.96686000  1
  C  C32  1  0.43052000  0.40163000  0.96677000  1
  C  C33  1  0.02894000  0.43036000  0.46670000  1
  C  C34  1  0.40151000  0.97121000  0.46686000  1
  C  C35  1  0.56948000  0.59837000  0.46677000  1
  C  C36  1  0.56964000  0.97106000  0.03331000  1
  C  C37  1  0.02879000  0.59849000  0.03314000  1
  C  C38  1  0.40163000  0.43052000  0.03323000  1
  C  C39  1  0.43036000  0.02894000  0.53331000  1
  C  C40  1  0.97120000  0.40152000  0.53314000  1
  C  C41  1  0.59837000  0.56948000  0.53323000  1
  C  C42  1  0.02894000  0.43036000  0.03331000  1
  C  C43  1  0.40151000  0.97121000  0.03314000  1
  C  C44  1  0.56948000  0.59837000  0.03323000  1
  C  C45  1  0.97106000  0.56964000  0.53331000  1
  C  C46  1  0.59848000  0.02879000  0.53314000  1
  C  C47  1  0.43052000  0.40163000  0.53323000  1
  C  C48  1  0.43036000  0.02894000  0.96670000  1
  C  C49  1  0.97120000  0.40152000  0.96686000  1
  C  C50  1  0.59836000  0.56948000  0.96677000  1
  C  C51  1  0.56964000  0.97106000  0.46670000  1
  C  C52  1  0.02879000  0.59849000  0.46686000  1
  C  C53  1  0.40163000  0.43052000  0.46677000  1
  C  C54  1  0.87936000  0.43970000  0.86245000  1
  C  C55  1  0.94173000  0.47087000  0.93253000  1
  C  C56  1  0.56030000  0.12064000  0.86245000  1
  C  C57  1  0.52913000  0.05827000  0.93253000  1
  C  C58  1  0.56025000  0.43975000  0.86243000  1
  C  C59  1  0.52912000  0.47088000  0.93254000  1
  C  C60  1  0.12064000  0.56030000  0.36245000  1
  C  C61  1  0.05827000  0.52913000  0.43253000  1
  C  C62  1  0.43969000  0.87937000  0.36245000  1
  C  C63  1  0.47087000  0.94174000  0.43253000  1
  C  C64  1  0.43974000  0.56026000  0.36243000  1
  C  C65  1  0.47087000  0.52913000  0.43254000  1
  C  C66  1  0.43969000  0.87937000  0.13755000  1
  C  C67  1  0.47087000  0.94174000  0.06748000  1
  C  C68  1  0.12064000  0.56030000  0.13755000  1
  C  C69  1  0.05827000  0.52913000  0.06748000  1
  C  C70  1  0.43974000  0.56026000  0.13757000  1
  C  C71  1  0.47087000  0.52913000  0.06746000  1
  C  C72  1  0.56030000  0.12064000  0.63755000  1
  C  C73  1  0.52913000  0.05827000  0.56747000  1
  C  C74  1  0.87936000  0.43970000  0.63755000  1
  C  C75  1  0.94173000  0.47087000  0.56747000  1
  C  C76  1  0.56025000  0.43975000  0.63757000  1
  C  C77  1  0.52912000  0.47088000  0.56746000  1
  O  O78  1  0.85243000  0.34811000  0.83337000  1
  O  O79  1  0.49563000  0.14764000  0.83333000  1
  O  O80  1  0.65169000  0.50422000  0.83330000  1
  O  O81  1  0.14756000  0.65190000  0.33333333  1
  O  O82  1  0.50436000  0.85237000  0.33333333  1
  O  O83  1  0.34831000  0.49578000  0.33333333  1
  O  O84  1  0.34811000  0.85244000  0.16663000  1
  O  O85  1  0.14764000  0.49564000  0.16667000  1
  O  O86  1  0.50422000  0.65169000  0.16670000  1
  O  O87  1  0.65189000  0.14757000  0.66663000  1
  O  O88  1  0.85236000  0.50437000  0.66666667  1
  O  O89  1  0.49578000  0.34831000  0.66666667  1
  O  O90  1  0.14757000  0.65190000  0.16663000  1
  O  O91  1  0.50436000  0.85237000  0.16667000  1
  O  O92  1  0.34831000  0.49578000  0.16670000  1
  O  O93  1  0.85243000  0.34811000  0.66663000  1
  O  O94  1  0.49563000  0.14764000  0.66666667  1
  O  O95  1  0.65169000  0.50422000  0.66666667  1
  O  O96  1  0.65189000  0.14757000  0.83337000  1
  O  O97  1  0.85236000  0.50437000  0.83333000  1
  O  O98  1  0.49578000  0.34831000  0.83330000  1
  O  O99  1  0.34811000  0.85244000  0.33333333  1
  O  O100  1  0.14764000  0.49564000  0.33333333  1
  O  O101  1  0.50422000  0.65169000  0.33333333  1
  O  O102  1  0.66666667  0.33333333  0.75000000  1
  O  O103  1  0.33333333  0.66666667  0.25000000  1
