# generated using pymatgen
data_K2Cd5H28(C2O)32
_symmetry_space_group_name_H-M   'P 1'
_cell_length_a   11.79088000
_cell_length_b   26.19763000
_cell_length_c   29.84261000
_cell_angle_alpha   90.01073000
_cell_angle_beta   90.00045000
_cell_angle_gamma   89.99954000
_symmetry_Int_Tables_number   1
_chemical_formula_structural   K2Cd5H28(C2O)32
_chemical_formula_sum   'K8 Cd20 H112 C256 O128'
_cell_volume   9218.17649937
_cell_formula_units_Z   4
loop_
 _symmetry_equiv_pos_site_id
 _symmetry_equiv_pos_as_xyz
  1  'x, y, z'
loop_
 _atom_site_type_symbol
 _atom_site_label
 _atom_site_symmetry_multiplicity
 _atom_site_fract_x
 _atom_site_fract_y
 _atom_site_fract_z
 _atom_site_occupancy
  K  K0  1  0.10087000  0.50000000  0.75000000  1
  K  K1  1  0.42029000  0.50000000  0.75000000  1
  K  K2  1  0.40237000  0.00000000  0.25000000  1
  K  K3  1  0.08013000  0.00000000  0.25001000  1
  K  K4  1  0.89912000  0.50000000  0.25000000  1
  K  K5  1  0.57969000  0.50000000  0.25000000  1
  K  K6  1  0.59762000  0.00000000  0.75000000  1
  K  K7  1  0.91986000  0.00000000  0.74999000  1
  Cd  Cd8  1  0.79923000  0.27102000  0.48636000  1
  Cd  Cd9  1  0.26147000  0.50623000  0.63235000  1
  Cd  Cd10  1  0.70235000  0.23020000  0.98610000  1
  Cd  Cd11  1  0.24178000  0.99455000  0.13247000  1
  Cd  Cd12  1  0.79923000  0.72898000  0.01363000  1
  Cd  Cd13  1  0.26146000  0.49377000  0.86765000  1
  Cd  Cd14  1  0.70235000  0.76980000  0.51390000  1
  Cd  Cd15  1  0.24178000  0.00545000  0.36753000  1
  Cd  Cd16  1  0.75850000  0.50000000  0.75001000  1
  Cd  Cd17  1  0.74297000  0.00000000  0.25000000  1
  Cd  Cd18  1  0.20076000  0.72898000  0.51363000  1
  Cd  Cd19  1  0.73852000  0.49377000  0.36765000  1
  Cd  Cd20  1  0.29763000  0.76980000  0.01390000  1
  Cd  Cd21  1  0.75821000  0.00545000  0.86753000  1
  Cd  Cd22  1  0.20076000  0.27102000  0.98637000  1
  Cd  Cd23  1  0.73853000  0.50623000  0.13235000  1
  Cd  Cd24  1  0.29764000  0.23020000  0.48610000  1
  Cd  Cd25  1  0.75821000  0.99455000  0.63247000  1
  Cd  Cd26  1  0.24149000  0.50001000  0.24999000  1
  Cd  Cd27  1  0.25703000  0.00000000  0.75000000  1
  H  H28  1  0.66490000  0.38691000  0.69401000  1
  H  H29  1  0.85300000  0.61606000  0.70108000  1
  H  H30  1  0.78572000  0.37543000  0.61805000  1
  H  H31  1  0.07039000  0.38952000  0.70756000  1
  H  H32  1  0.08488000  0.28482000  0.59631000  1
  H  H33  1  0.51252000  0.27692000  0.70319000  1
  H  H34  1  0.35939000  0.21259000  0.69193000  1
  H  H35  1  0.16865000  0.24062000  0.66752000  1
  H  H36  1  0.73372000  0.64476000  0.63116000  1
  H  H37  1  0.42858000  0.73419000  0.62138000  1
  H  H38  1  0.44890000  0.61051000  0.71622000  1
  H  H39  1  0.00549000  0.72131000  0.72904000  1
  H  H40  1  0.15832000  0.78699000  0.72826000  1
  H  H41  1  0.34818000  0.76472000  0.69882000  1
  H  H42  1  0.83928000  0.11268000  0.19334000  1
  H  H43  1  0.64634000  0.88367000  0.20272000  1
  H  H44  1  0.71578000  0.12444000  0.11698000  1
  H  H45  1  0.43291000  0.11082000  0.20743000  1
  H  H46  1  0.41629000  0.21493000  0.09587000  1
  H  H47  1  0.98962000  0.22347000  0.20292000  1
  H  H48  1  0.14252000  0.28799000  0.19167000  1
  H  H49  1  0.33333333  0.26024000  0.16739000  1
  H  H50  1  0.76557000  0.85464000  0.13102000  1
  H  H51  1  0.07123000  0.76548000  0.12139000  1
  H  H52  1  0.05024000  0.88939000  0.21600000  1
  H  H53  1  0.49417000  0.77926000  0.22954000  1
  H  H54  1  0.34210000  0.71317000  0.22813000  1
  H  H55  1  0.15235000  0.73528000  0.19846000  1
  H  H56  1  0.66490000  0.61309000  0.80599000  1
  H  H57  1  0.85301000  0.38394000  0.79895000  1
  H  H58  1  0.78572000  0.62457000  0.88195000  1
  H  H59  1  0.07040000  0.61048000  0.79245000  1
  H  H60  1  0.08488000  0.71518000  0.90369000  1
  H  H61  1  0.51252000  0.72308000  0.79681000  1
  H  H62  1  0.35939000  0.78741000  0.80807000  1
  H  H63  1  0.16864000  0.75938000  0.83248000  1
  H  H64  1  0.73370000  0.35524000  0.86885000  1
  H  H65  1  0.42858000  0.26581000  0.87862000  1
  H  H66  1  0.44890000  0.38949000  0.78378000  1
  H  H67  1  0.00549000  0.27869000  0.77096000  1
  H  H68  1  0.15832000  0.21301000  0.77174000  1
  H  H69  1  0.34818000  0.23529000  0.80118000  1
  H  H70  1  0.83928000  0.88734000  0.30666000  1
  H  H71  1  0.64634000  0.11633000  0.29728000  1
  H  H72  1  0.71578000  0.87556000  0.38302000  1
  H  H73  1  0.43290000  0.88919000  0.29257000  1
  H  H74  1  0.41628000  0.78508000  0.40413000  1
  H  H75  1  0.98961000  0.77653000  0.29708000  1
  H  H76  1  0.14253000  0.71201000  0.30833000  1
  H  H77  1  0.33333333  0.73976000  0.33261000  1
  H  H78  1  0.76557000  0.14536000  0.36898000  1
  H  H79  1  0.07123000  0.23452000  0.37861000  1
  H  H80  1  0.05024000  0.11061000  0.28400000  1
  H  H81  1  0.49417000  0.22074000  0.27046000  1
  H  H82  1  0.34210000  0.28683000  0.27187000  1
  H  H83  1  0.15234000  0.26473000  0.30154000  1
  H  H84  1  0.33509000  0.61309000  0.30599000  1
  H  H85  1  0.14699000  0.38394000  0.29892000  1
  H  H86  1  0.21427000  0.62457000  0.38195000  1
  H  H87  1  0.92960000  0.61048000  0.29244000  1
  H  H88  1  0.91511000  0.71518000  0.40369000  1
  H  H89  1  0.48747000  0.72308000  0.29681000  1
  H  H90  1  0.64060000  0.78741000  0.30807000  1
  H  H91  1  0.83134000  0.75938000  0.33248000  1
  H  H92  1  0.26627000  0.35524000  0.36884000  1
  H  H93  1  0.57141000  0.26582000  0.37862000  1
  H  H94  1  0.55109000  0.38949000  0.28378000  1
  H  H95  1  0.99450000  0.27869000  0.27096000  1
  H  H96  1  0.84167000  0.21301000  0.27174000  1
  H  H97  1  0.65180000  0.23529000  0.30118000  1
  H  H98  1  0.16071000  0.88733000  0.80666000  1
  H  H99  1  0.35365000  0.11633000  0.79728000  1
  H  H100  1  0.28421000  0.87556000  0.88302000  1
  H  H101  1  0.56707000  0.88918000  0.79257000  1
  H  H102  1  0.58370000  0.78508000  0.90413000  1
  H  H103  1  0.01037000  0.77654000  0.79708000  1
  H  H104  1  0.85747000  0.71201000  0.80833000  1
  H  H105  1  0.66663000  0.73976000  0.83261000  1
  H  H106  1  0.23442000  0.14536000  0.86898000  1
  H  H107  1  0.92876000  0.23453000  0.87861000  1
  H  H108  1  0.94975000  0.11061000  0.78400000  1
  H  H109  1  0.50582000  0.22074000  0.77046000  1
  H  H110  1  0.65789000  0.28683000  0.77187000  1
  H  H111  1  0.84764000  0.26473000  0.80154000  1
  H  H112  1  0.33509000  0.38691000  0.19401000  1
  H  H113  1  0.14698000  0.61606000  0.20105000  1
  H  H114  1  0.21427000  0.37543000  0.11805000  1
  H  H115  1  0.92959000  0.38953000  0.20755000  1
  H  H116  1  0.91510000  0.28482000  0.09631000  1
  H  H117  1  0.48747000  0.27692000  0.20319000  1
  H  H118  1  0.64060000  0.21259000  0.19193000  1
  H  H119  1  0.83134000  0.24062000  0.16752000  1
  H  H120  1  0.26628000  0.64476000  0.13115000  1
  H  H121  1  0.57141000  0.73419000  0.12138000  1
  H  H122  1  0.55109000  0.61051000  0.21622000  1
  H  H123  1  0.99450000  0.72131000  0.22904000  1
  H  H124  1  0.84167000  0.78699000  0.22826000  1
  H  H125  1  0.65181000  0.76472000  0.19882000  1
  H  H126  1  0.16071000  0.11267000  0.69334000  1
  H  H127  1  0.35365000  0.88367000  0.70272000  1
  H  H128  1  0.28421000  0.12444000  0.61698000  1
  H  H129  1  0.56709000  0.11082000  0.70743000  1
  H  H130  1  0.58371000  0.21493000  0.59587000  1
  H  H131  1  0.01038000  0.22348000  0.70292000  1
  H  H132  1  0.85746000  0.28800000  0.69167000  1
  H  H133  1  0.66666667  0.26024000  0.66739000  1
  H  H134  1  0.23442000  0.85464000  0.63102000  1
  H  H135  1  0.92876000  0.76548000  0.62139000  1
  H  H136  1  0.94975000  0.88939000  0.71600000  1
  H  H137  1  0.50582000  0.77926000  0.72954000  1
  H  H138  1  0.65789000  0.71317000  0.72813000  1
  H  H139  1  0.84764000  0.73528000  0.69846000  1
  C  C140  1  0.88079000  0.30351000  0.56276000  1
  C  C141  1  0.93071000  0.32779000  0.60335000  1
  C  C142  1  0.87085000  0.36435000  0.62817000  1
  C  C143  1  0.92159000  0.38640000  0.66592000  1
  C  C144  1  0.03220000  0.37223000  0.67813000  1
  C  C145  1  0.09336000  0.33601000  0.65331000  1
  C  C146  1  0.04062000  0.31340000  0.61616000  1
  C  C147  1  0.86132000  0.42610000  0.69319000  1
  C  C148  1  0.21057000  0.32074000  0.66622000  1
  C  C149  1  0.29871000  0.35669000  0.67174000  1
  C  C150  1  0.40836000  0.34063000  0.68450000  1
  C  C151  1  0.42857000  0.28868000  0.69238000  1
  C  C152  1  0.34284000  0.25288000  0.68614000  1
  C  C153  1  0.23535000  0.26878000  0.67260000  1
  C  C154  1  0.27640000  0.41184000  0.66134000  1
  C  C155  1  0.50181000  0.37885000  0.68871000  1
  C  C156  1  0.65821000  0.57877000  0.69680000  1
  C  C157  1  0.59717000  0.62275000  0.67571000  1
  C  C158  1  0.64767000  0.65264000  0.64235000  1
  C  C159  1  0.58569000  0.69263000  0.62308000  1
  C  C160  1  0.47478000  0.70309000  0.63727000  1
  C  C161  1  0.42392000  0.67360000  0.67082000  1
  C  C162  1  0.48621000  0.63354000  0.68982000  1
  C  C163  1  0.63267000  0.72453000  0.58636000  1
  C  C164  1  0.30725000  0.68578000  0.68614000  1
  C  C165  1  0.22008000  0.64896000  0.68653000  1
  C  C166  1  0.11035000  0.66239000  0.70109000  1
  C  C167  1  0.08967000  0.71193000  0.71686000  1
  C  C168  1  0.17516000  0.74847000  0.71639000  1
  C  C169  1  0.28227000  0.73570000  0.70019000  1
  C  C170  1  0.01693000  0.62418000  0.69818000  1
  C  C171  1  0.24333000  0.59610000  0.66938000  1
  C  C172  1  0.61933000  0.19632000  0.06176000  1
  C  C173  1  0.57053000  0.17202000  0.10257000  1
  C  C174  1  0.63078000  0.13551000  0.12729000  1
  C  C175  1  0.58051000  0.11347000  0.16517000  1
  C  C176  1  0.47045000  0.12797000  0.17783000  1
  C  C177  1  0.40918000  0.16438000  0.15326000  1
  C  C178  1  0.46094000  0.18652000  0.11574000  1
  C  C179  1  0.64154000  0.07385000  0.19228000  1
  C  C180  1  0.29250000  0.17995000  0.16652000  1
  C  C181  1  0.20476000  0.14393000  0.17227000  1
  C  C182  1  0.09510000  0.15995000  0.18487000  1
  C  C183  1  0.07399000  0.21185000  0.19247000  1
  C  C184  1  0.15952000  0.24771000  0.18615000  1
  C  C185  1  0.26719000  0.23190000  0.17270000  1
  C  C186  1  0.22674000  0.08882000  0.16151000  1
  C  C187  1  0.00280000  0.12136000  0.18887000  1
  C  C188  1  0.84127000  0.92096000  0.19680000  1
  C  C189  1  0.90219000  0.87704000  0.17540000  1
  C  C190  1  0.85174000  0.84690000  0.14214000  1
  C  C191  1  0.91383000  0.80682000  0.12296000  1
  C  C192  1  0.02494000  0.79663000  0.13718000  1
  C  C193  1  0.07583000  0.82634000  0.17060000  1
  C  C194  1  0.01326000  0.86638000  0.18950000  1
  C  C195  1  0.86731000  0.77440000  0.08636000  1
  C  C196  1  0.19262000  0.81435000  0.18605000  1
  C  C197  1  0.27954000  0.85133000  0.18669000  1
  C  C198  1  0.38913000  0.83806000  0.20157000  1
  C  C199  1  0.41000000  0.78849000  0.21724000  1
  C  C200  1  0.32497000  0.75175000  0.21643000  1
  C  C201  1  0.21794000  0.76443000  0.20006000  1
  C  C202  1  0.48303000  0.87608000  0.19910000  1
  C  C203  1  0.25662000  0.90419000  0.16943000  1
  C  C204  1  0.88080000  0.69649000  0.93724000  1
  C  C205  1  0.93072000  0.67221000  0.89665000  1
  C  C206  1  0.87085000  0.63565000  0.87183000  1
  C  C207  1  0.92159000  0.61360000  0.83408000  1
  C  C208  1  0.03221000  0.62777000  0.82187000  1
  C  C209  1  0.09336000  0.66399000  0.84669000  1
  C  C210  1  0.04062000  0.68660000  0.88384000  1
  C  C211  1  0.86132000  0.57391000  0.80681000  1
  C  C212  1  0.21057000  0.67927000  0.83378000  1
  C  C213  1  0.29871000  0.64332000  0.82826000  1
  C  C214  1  0.40836000  0.65938000  0.81550000  1
  C  C215  1  0.42857000  0.71132000  0.80762000  1
  C  C216  1  0.34284000  0.74713000  0.81386000  1
  C  C217  1  0.23535000  0.73123000  0.82740000  1
  C  C218  1  0.27641000  0.58816000  0.83865000  1
  C  C219  1  0.50182000  0.62115000  0.81129000  1
  C  C220  1  0.65822000  0.42123000  0.80322000  1
  C  C221  1  0.59716000  0.37726000  0.82430000  1
  C  C222  1  0.64766000  0.34735000  0.85766000  1
  C  C223  1  0.58568000  0.30736000  0.87692000  1
  C  C224  1  0.47477000  0.29691000  0.86273000  1
  C  C225  1  0.42392000  0.32640000  0.82918000  1
  C  C226  1  0.48621000  0.36646000  0.81019000  1
  C  C227  1  0.63267000  0.27546000  0.91364000  1
  C  C228  1  0.30724000  0.31423000  0.81386000  1
  C  C229  1  0.22007000  0.35104000  0.81347000  1
  C  C230  1  0.11034000  0.33761000  0.79891000  1
  C  C231  1  0.08967000  0.28808000  0.78314000  1
  C  C232  1  0.17516000  0.25153000  0.78360000  1
  C  C233  1  0.28227000  0.26431000  0.79981000  1
  C  C234  1  0.01693000  0.37582000  0.80182000  1
  C  C235  1  0.24332000  0.40390000  0.83062000  1
  C  C236  1  0.61933000  0.80368000  0.43824000  1
  C  C237  1  0.57053000  0.82799000  0.39743000  1
  C  C238  1  0.63077000  0.86449000  0.37271000  1
  C  C239  1  0.58050000  0.88653000  0.33483000  1
  C  C240  1  0.47044000  0.87203000  0.32217000  1
  C  C241  1  0.40917000  0.83562000  0.34674000  1
  C  C242  1  0.46094000  0.81348000  0.38426000  1
  C  C243  1  0.64153000  0.92616000  0.30772000  1
  C  C244  1  0.29249000  0.82006000  0.33348000  1
  C  C245  1  0.20475000  0.85607000  0.32773000  1
  C  C246  1  0.09509000  0.84005000  0.31513000  1
  C  C247  1  0.07398000  0.78815000  0.30753000  1
  C  C248  1  0.15952000  0.75229000  0.31385000  1
  C  C249  1  0.26719000  0.76810000  0.32730000  1
  C  C250  1  0.22674000  0.91118000  0.33849000  1
  C  C251  1  0.00279000  0.87864000  0.31113000  1
  C  C252  1  0.84126000  0.07904000  0.30320000  1
  C  C253  1  0.90219000  0.12296000  0.32459000  1
  C  C254  1  0.85174000  0.15310000  0.35786000  1
  C  C255  1  0.91383000  0.19318000  0.37704000  1
  C  C256  1  0.02494000  0.20337000  0.36282000  1
  C  C257  1  0.07583000  0.17366000  0.32940000  1
  C  C258  1  0.01325000  0.13362000  0.31050000  1
  C  C259  1  0.86731000  0.22560000  0.41364000  1
  C  C260  1  0.19262000  0.18565000  0.31395000  1
  C  C261  1  0.27954000  0.14867000  0.31331000  1
  C  C262  1  0.38913000  0.16194000  0.29843000  1
  C  C263  1  0.41000000  0.21151000  0.28276000  1
  C  C264  1  0.32497000  0.24825000  0.28357000  1
  C  C265  1  0.21794000  0.23557000  0.29994000  1
  C  C266  1  0.48303000  0.12392000  0.30090000  1
  C  C267  1  0.25662000  0.09581000  0.33057000  1
  C  C268  1  0.11920000  0.69649000  0.43724000  1
  C  C269  1  0.06928000  0.67221000  0.39665000  1
  C  C270  1  0.12914000  0.63565000  0.37183000  1
  C  C271  1  0.07840000  0.61360000  0.33408000  1
  C  C272  1  0.96779000  0.62777000  0.32187000  1
  C  C273  1  0.90663000  0.66399000  0.34669000  1
  C  C274  1  0.95937000  0.68660000  0.38384000  1
  C  C275  1  0.13867000  0.57391000  0.30681000  1
  C  C276  1  0.78942000  0.67927000  0.33378000  1
  C  C277  1  0.70128000  0.64332000  0.32826000  1
  C  C278  1  0.59163000  0.65938000  0.31550000  1
  C  C279  1  0.57142000  0.71133000  0.30762000  1
  C  C280  1  0.65715000  0.74713000  0.31386000  1
  C  C281  1  0.76464000  0.73123000  0.32740000  1
  C  C282  1  0.72359000  0.58816000  0.33866000  1
  C  C283  1  0.49818000  0.62115000  0.31129000  1
  C  C284  1  0.34178000  0.42123000  0.30320000  1
  C  C285  1  0.40282000  0.37726000  0.32429000  1
  C  C286  1  0.35232000  0.34736000  0.35765000  1
  C  C287  1  0.41430000  0.30737000  0.37692000  1
  C  C288  1  0.52521000  0.29692000  0.36273000  1
  C  C289  1  0.57607000  0.32641000  0.32918000  1
  C  C290  1  0.51378000  0.36646000  0.31018000  1
  C  C291  1  0.36732000  0.27547000  0.41364000  1
  C  C292  1  0.69274000  0.31423000  0.31386000  1
  C  C293  1  0.77991000  0.35104000  0.31346000  1
  C  C294  1  0.88964000  0.33761000  0.29891000  1
  C  C295  1  0.91032000  0.28808000  0.28314000  1
  C  C296  1  0.82483000  0.25153000  0.28361000  1
  C  C297  1  0.71772000  0.26431000  0.29981000  1
  C  C298  1  0.98306000  0.37582000  0.30182000  1
  C  C299  1  0.75666000  0.40390000  0.33062000  1
  C  C300  1  0.38065000  0.80368000  0.93824000  1
  C  C301  1  0.42946000  0.82799000  0.89743000  1
  C  C302  1  0.36921000  0.86449000  0.87271000  1
  C  C303  1  0.41948000  0.88653000  0.83483000  1
  C  C304  1  0.52954000  0.87203000  0.82217000  1
  C  C305  1  0.59081000  0.83562000  0.84674000  1
  C  C306  1  0.53905000  0.81348000  0.88426000  1
  C  C307  1  0.35845000  0.92616000  0.80772000  1
  C  C308  1  0.70749000  0.82006000  0.83348000  1
  C  C309  1  0.79522000  0.85607000  0.82773000  1
  C  C310  1  0.90489000  0.84005000  0.81513000  1
  C  C311  1  0.92600000  0.78815000  0.80753000  1
  C  C312  1  0.84047000  0.75230000  0.81385000  1
  C  C313  1  0.73280000  0.76810000  0.82730000  1
  C  C314  1  0.77325000  0.91118000  0.83849000  1
  C  C315  1  0.99718000  0.87864000  0.81113000  1
  C  C316  1  0.15872000  0.07904000  0.80320000  1
  C  C317  1  0.09780000  0.12296000  0.82460000  1
  C  C318  1  0.14825000  0.15310000  0.85786000  1
  C  C319  1  0.08616000  0.19318000  0.87704000  1
  C  C320  1  0.97505000  0.20338000  0.86282000  1
  C  C321  1  0.92416000  0.17366000  0.82940000  1
  C  C322  1  0.98673000  0.13362000  0.81050000  1
  C  C323  1  0.13268000  0.22560000  0.91364000  1
  C  C324  1  0.80737000  0.18565000  0.81395000  1
  C  C325  1  0.72045000  0.14867000  0.81331000  1
  C  C326  1  0.61086000  0.16194000  0.79843000  1
  C  C327  1  0.58999000  0.21151000  0.78276000  1
  C  C328  1  0.67502000  0.24825000  0.78357000  1
  C  C329  1  0.78205000  0.23557000  0.79994000  1
  C  C330  1  0.51696000  0.12392000  0.80090000  1
  C  C331  1  0.74337000  0.09581000  0.83057000  1
  C  C332  1  0.11919000  0.30351000  0.06276000  1
  C  C333  1  0.06927000  0.32779000  0.10335000  1
  C  C334  1  0.12914000  0.36435000  0.12817000  1
  C  C335  1  0.07840000  0.38640000  0.16592000  1
  C  C336  1  0.96778000  0.37224000  0.17813000  1
  C  C337  1  0.90663000  0.33601000  0.15331000  1
  C  C338  1  0.95937000  0.31341000  0.11616000  1
  C  C339  1  0.13867000  0.42610000  0.19319000  1
  C  C340  1  0.78942000  0.32074000  0.16622000  1
  C  C341  1  0.70128000  0.35669000  0.17174000  1
  C  C342  1  0.59163000  0.34063000  0.18450000  1
  C  C343  1  0.57141000  0.28868000  0.19238000  1
  C  C344  1  0.65714000  0.25288000  0.18614000  1
  C  C345  1  0.76464000  0.26878000  0.17260000  1
  C  C346  1  0.72358000  0.41185000  0.16135000  1
  C  C347  1  0.49817000  0.37885000  0.18871000  1
  C  C348  1  0.34176000  0.57877000  0.19678000  1
  C  C349  1  0.40283000  0.62275000  0.17570000  1
  C  C350  1  0.35233000  0.65265000  0.14234000  1
  C  C351  1  0.41431000  0.69264000  0.12308000  1
  C  C352  1  0.52522000  0.70309000  0.13727000  1
  C  C353  1  0.57607000  0.67360000  0.17082000  1
  C  C354  1  0.51378000  0.63354000  0.18981000  1
  C  C355  1  0.36732000  0.72454000  0.08636000  1
  C  C356  1  0.69275000  0.68578000  0.18614000  1
  C  C357  1  0.77992000  0.64896000  0.18653000  1
  C  C358  1  0.88965000  0.66239000  0.20109000  1
  C  C359  1  0.91032000  0.71193000  0.21686000  1
  C  C360  1  0.82483000  0.74847000  0.21640000  1
  C  C361  1  0.71772000  0.73570000  0.20019000  1
  C  C362  1  0.98306000  0.62418000  0.19818000  1
  C  C363  1  0.75666000  0.59610000  0.16938000  1
  C  C364  1  0.38066000  0.19632000  0.56176000  1
  C  C365  1  0.42946000  0.17202000  0.60257000  1
  C  C366  1  0.36922000  0.13551000  0.62729000  1
  C  C367  1  0.41949000  0.11347000  0.66517000  1
  C  C368  1  0.52954000  0.12797000  0.67783000  1
  C  C369  1  0.59082000  0.16438000  0.65326000  1
  C  C370  1  0.53905000  0.18652000  0.61574000  1
  C  C371  1  0.35846000  0.07384000  0.69228000  1
  C  C372  1  0.70750000  0.17995000  0.66652000  1
  C  C373  1  0.79524000  0.14394000  0.67227000  1
  C  C374  1  0.90490000  0.15996000  0.68487000  1
  C  C375  1  0.92601000  0.21185000  0.69247000  1
  C  C376  1  0.84047000  0.24771000  0.68615000  1
  C  C377  1  0.73280000  0.23190000  0.67270000  1
  C  C378  1  0.77325000  0.08882000  0.66151000  1
  C  C379  1  0.99720000  0.12136000  0.68887000  1
  C  C380  1  0.15873000  0.92096000  0.69680000  1
  C  C381  1  0.09780000  0.87704000  0.67541000  1
  C  C382  1  0.14825000  0.84690000  0.64214000  1
  C  C383  1  0.08616000  0.80682000  0.62296000  1
  C  C384  1  0.97505000  0.79663000  0.63718000  1
  C  C385  1  0.92416000  0.82634000  0.67060000  1
  C  C386  1  0.98673000  0.86638000  0.68950000  1
  C  C387  1  0.13268000  0.77440000  0.58636000  1
  C  C388  1  0.80737000  0.81435000  0.68605000  1
  C  C389  1  0.72045000  0.85133000  0.68669000  1
  C  C390  1  0.61086000  0.83806000  0.70157000  1
  C  C391  1  0.58999000  0.78849000  0.71724000  1
  C  C392  1  0.67502000  0.75175000  0.71643000  1
  C  C393  1  0.78205000  0.76444000  0.70006000  1
  C  C394  1  0.51696000  0.87608000  0.69910000  1
  C  C395  1  0.74336000  0.90419000  0.66943000  1
  O  O396  1  0.93030000  0.26522000  0.54535000  1
  O  O397  1  0.78919000  0.32278000  0.54544000  1
  O  O398  1  0.75269000  0.42883000  0.69300000  1
  O  O399  1  0.92029000  0.45709000  0.71596000  1
  O  O400  1  0.29154000  0.42606000  0.62017000  1
  O  O401  1  0.23947000  0.44214000  0.69099000  1
  O  O402  1  0.60415000  0.35825000  0.69520000  1
  O  O403  1  0.48487000  0.42531000  0.68627000  1
  O  O404  1  0.59981000  0.54476000  0.71637000  1
  O  O405  1  0.76650000  0.57573000  0.69509000  1
  O  O406  1  0.73213000  0.71462000  0.57019000  1
  O  O407  1  0.57174000  0.76043000  0.57054000  1
  O  O408  1  0.91479000  0.64382000  0.70663000  1
  O  O409  1  0.03430000  0.57890000  0.68858000  1
  O  O410  1  0.23413000  0.58840000  0.62676000  1
  O  O411  1  0.27641000  0.56097000  0.69571000  1
  O  O412  1  0.56602000  0.23278000  0.04320000  1
  O  O413  1  0.71432000  0.17934000  0.04549000  1
  O  O414  1  0.75002000  0.07096000  0.19108000  1
  O  O415  1  0.58312000  0.04321000  0.21578000  1
  O  O416  1  0.21177000  0.07531000  0.12019000  1
  O  O417  1  0.26367000  0.05803000  0.19084000  1
  O  O418  1  0.89984000  0.14134000  0.19514000  1
  O  O419  1  0.02202000  0.07506000  0.18635000  1
  O  O420  1  0.90047000  0.95487000  0.21624000  1
  O  O421  1  0.73287000  0.92406000  0.19556000  1
  O  O422  1  0.76665000  0.78288000  0.07059000  1
  O  O423  1  0.93044000  0.73947000  0.07014000  1
  O  O424  1  0.58428000  0.85622000  0.20873000  1
  O  O425  1  0.46772000  0.92132000  0.18879000  1
  O  O426  1  0.26845000  0.91197000  0.12694000  1
  O  O427  1  0.22236000  0.93922000  0.19562000  1
  O  O428  1  0.93031000  0.73478000  0.95465000  1
  O  O429  1  0.78920000  0.67723000  0.95456000  1
  O  O430  1  0.75270000  0.57117000  0.80700000  1
  O  O431  1  0.92030000  0.54291000  0.78404000  1
  O  O432  1  0.29156000  0.57394000  0.87982000  1
  O  O433  1  0.23947000  0.55787000  0.80900000  1
  O  O434  1  0.60415000  0.64175000  0.80480000  1
  O  O435  1  0.48487000  0.57469000  0.81373000  1
  O  O436  1  0.59984000  0.45522000  0.78363000  1
  O  O437  1  0.76652000  0.42428000  0.80494000  1
  O  O438  1  0.73213000  0.28538000  0.92981000  1
  O  O439  1  0.57174000  0.23957000  0.92946000  1
  O  O440  1  0.91479000  0.35619000  0.79337000  1
  O  O441  1  0.03430000  0.42111000  0.81142000  1
  O  O442  1  0.23413000  0.41160000  0.87325000  1
  O  O443  1  0.27640000  0.43903000  0.80429000  1
  O  O444  1  0.56602000  0.76722000  0.45679000  1
  O  O445  1  0.71432000  0.82067000  0.45451000  1
  O  O446  1  0.75001000  0.92905000  0.30892000  1
  O  O447  1  0.58311000  0.95679000  0.28422000  1
  O  O448  1  0.21176000  0.92470000  0.37981000  1
  O  O449  1  0.26367000  0.94197000  0.30916000  1
  O  O450  1  0.89982000  0.85866000  0.30486000  1
  O  O451  1  0.02202000  0.92494000  0.31365000  1
  O  O452  1  0.90045000  0.04513000  0.28376000  1
  O  O453  1  0.73286000  0.07595000  0.30444000  1
  O  O454  1  0.76665000  0.21712000  0.42941000  1
  O  O455  1  0.93044000  0.26053000  0.42986000  1
  O  O456  1  0.58428000  0.14378000  0.29127000  1
  O  O457  1  0.46772000  0.07868000  0.31121000  1
  O  O458  1  0.26845000  0.08803000  0.37306000  1
  O  O459  1  0.22237000  0.06078000  0.30438000  1
  O  O460  1  0.06969000  0.73478000  0.45465000  1
  O  O461  1  0.21079000  0.67722000  0.45456000  1
  O  O462  1  0.24730000  0.57117000  0.30700000  1
  O  O463  1  0.07969000  0.54291000  0.28404000  1
  O  O464  1  0.70845000  0.57394000  0.37983000  1
  O  O465  1  0.76052000  0.55787000  0.30901000  1
  O  O466  1  0.39584000  0.64175000  0.30480000  1
  O  O467  1  0.51511000  0.57469000  0.31373000  1
  O  O468  1  0.40017000  0.45524000  0.28363000  1
  O  O469  1  0.23348000  0.42428000  0.30491000  1
  O  O470  1  0.26786000  0.28539000  0.42981000  1
  O  O471  1  0.42825000  0.23957000  0.42946000  1
  O  O472  1  0.08519000  0.35618000  0.29337000  1
  O  O473  1  0.96569000  0.42111000  0.31142000  1
  O  O474  1  0.76586000  0.41160000  0.37324000  1
  O  O475  1  0.72358000  0.43903000  0.30429000  1
  O  O476  1  0.43397000  0.76722000  0.95680000  1
  O  O477  1  0.28567000  0.82067000  0.95451000  1
  O  O478  1  0.24997000  0.92904000  0.80892000  1
  O  O479  1  0.41687000  0.95679000  0.78422000  1
  O  O480  1  0.78822000  0.92470000  0.87981000  1
  O  O481  1  0.73632000  0.94198000  0.80916000  1
  O  O482  1  0.10015000  0.85866000  0.80486000  1
  O  O483  1  0.97797000  0.92494000  0.81365000  1
  O  O484  1  0.09952000  0.04513000  0.78376000  1
  O  O485  1  0.26712000  0.07594000  0.80444000  1
  O  O486  1  0.23334000  0.21712000  0.92941000  1
  O  O487  1  0.06955000  0.26053000  0.92986000  1
  O  O488  1  0.41570000  0.14378000  0.79127000  1
  O  O489  1  0.53227000  0.07868000  0.81121000  1
  O  O490  1  0.73154000  0.08803000  0.87305000  1
  O  O491  1  0.77762000  0.06078000  0.80438000  1
  O  O492  1  0.06968000  0.26522000  0.04535000  1
  O  O493  1  0.21079000  0.32277000  0.04544000  1
  O  O494  1  0.24729000  0.42883000  0.19300000  1
  O  O495  1  0.07969000  0.45709000  0.21596000  1
  O  O496  1  0.70843000  0.42607000  0.12018000  1
  O  O497  1  0.76052000  0.44214000  0.19100000  1
  O  O498  1  0.39584000  0.35825000  0.19520000  1
  O  O499  1  0.51511000  0.42531000  0.18627000  1
  O  O500  1  0.40015000  0.54478000  0.21637000  1
  O  O501  1  0.23347000  0.57572000  0.19506000  1
  O  O502  1  0.26786000  0.71462000  0.07019000  1
  O  O503  1  0.42825000  0.76044000  0.07054000  1
  O  O504  1  0.08520000  0.64381000  0.20663000  1
  O  O505  1  0.96569000  0.57890000  0.18858000  1
  O  O506  1  0.76586000  0.58840000  0.12675000  1
  O  O507  1  0.72359000  0.56097000  0.19571000  1
  O  O508  1  0.43397000  0.23278000  0.54321000  1
  O  O509  1  0.28567000  0.17934000  0.54549000  1
  O  O510  1  0.24998000  0.07096000  0.69108000  1
  O  O511  1  0.41688000  0.04321000  0.71578000  1
  O  O512  1  0.78822000  0.07531000  0.62019000  1
  O  O513  1  0.73631000  0.05803000  0.69084000  1
  O  O514  1  0.10017000  0.14134000  0.69514000  1
  O  O515  1  0.97797000  0.07506000  0.68635000  1
  O  O516  1  0.09954000  0.95488000  0.71624000  1
  O  O517  1  0.26713000  0.92406000  0.69556000  1
  O  O518  1  0.23334000  0.78288000  0.57059000  1
  O  O519  1  0.06955000  0.73947000  0.57014000  1
  O  O520  1  0.41571000  0.85622000  0.70873000  1
  O  O521  1  0.53227000  0.92132000  0.68879000  1
  O  O522  1  0.73153000  0.91198000  0.62694000  1
  O  O523  1  0.77762000  0.93922000  0.69562000  1
