# generated using pymatgen
data_Zn2H6C18O9F8
_symmetry_space_group_name_H-M   'P 1'
_cell_length_a   7.97373000
_cell_length_b   9.77320000
_cell_length_c   19.71613000
_cell_angle_alpha   89.93106000
_cell_angle_beta   89.95341000
_cell_angle_gamma   79.04088000
_symmetry_Int_Tables_number   1
_chemical_formula_structural   Zn2H6C18O9F8
_chemical_formula_sum   'Zn4 H12 C36 O18 F16'
_cell_volume   1508.43391144
_cell_formula_units_Z   2
loop_
 _symmetry_equiv_pos_site_id
 _symmetry_equiv_pos_as_xyz
  1  'x, y, z'
loop_
 _atom_site_type_symbol
 _atom_site_label
 _atom_site_symmetry_multiplicity
 _atom_site_fract_x
 _atom_site_fract_y
 _atom_site_fract_z
 _atom_site_occupancy
  Zn  Zn1  1  0.72951000  0.16171000  0.70576000  1.0
  Zn  Zn2  1  0.36271000  0.06962000  0.74211000  1.0
  Zn  Zn3  1  0.27320000  0.83832000  0.20702000  1.0
  Zn  Zn4  1  0.63843000  0.93034000  0.24058000  1.0
  H  H1  1  0.01479000  0.22957000  0.70535000  1.0
  H  H2  1  0.06777000  0.36217000  0.61619000  1.0
  H  H3  1  0.01931000  0.20225000  0.58609000  1.0
  H  H4  1  0.75717000  0.47798000  0.59877000  1.0
  H  H5  1  0.71472000  0.31854000  0.56568000  1.0
  H  H6  1  0.85302000  0.40967000  0.52146000  1.0
  H  H7  1  0.98591000  0.77047000  0.20507000  1.0
  H  H8  1  0.93285000  0.63816000  0.11649000  1.0
  H  H9  1  0.98054000  0.79780000  0.08551000  1.0
  H  H10  1  0.24286000  0.52233000  0.09888000  1.0
  H  H11  1  0.28557000  0.68163000  0.06555000  1.0
  H  H12  1  0.14728000  0.59039000  0.02140000  1.0
  C  C1  1  0.52887000  0.19195000  0.95140000  1.0
  C  C2  1  0.48514000  0.15741000  0.01687000  1.0
  C  C3  1  0.52586000  0.02057000  0.04032000  1.0
  C  C4  1  0.61532000  0.91860000  0.99732000  1.0
  C  C5  1  0.65803000  0.95235000  0.93177000  1.0
  C  C6  1  0.61233000  0.08906000  0.90718000  1.0
  C  C7  1  0.65062000  0.11543000  0.83444000  1.0
  C  C8  1  0.48520000  0.98212000  0.11135000  1.0
  C  C9  1  0.14658000  0.71543000  0.77695000  1.0
  C  C10  1  0.22186000  0.57457000  0.77655000  1.0
  C  C11  1  0.29606000  0.51218000  0.71723000  1.0
  C  C12  1  0.29068000  0.59294000  0.65832000  1.0
  C  C13  1  0.21118000  0.73330000  0.65835000  1.0
  C  C14  1  0.14082000  0.79651000  0.71820000  1.0
  C  C15  1  0.04802000  0.94584000  0.72119000  1.0
  C  C16  1  0.38474000  0.36208000  0.71803000  1.0
  C  C17  1  0.96585000  0.30178000  0.61067000  1.0
  C  C18  1  0.81357000  0.38162000  0.57226000  1.0
  C  C19  1  0.47139000  0.80857000  0.45293000  1.0
  C  C20  1  0.51463000  0.84296000  0.51845000  1.0
  C  C21  1  0.47424000  0.97971000  0.54188000  1.0
  C  C22  1  0.38499000  0.08169000  0.49881000  1.0
  C  C23  1  0.34245000  0.04811000  0.43328000  1.0
  C  C24  1  0.38854000  0.91162000  0.40854000  1.0
  C  C25  1  0.35104000  0.88428000  0.33572000  1.0
  C  C26  1  0.51712000  0.01777000  0.61267000  1.0
  C  C27  1  0.85300000  0.28444000  0.27546000  1.0
  C  C28  1  0.77831000  0.42533000  0.27496000  1.0
  C  C29  1  0.70332000  0.48751000  0.21570000  1.0
  C  C30  1  0.70937000  0.40678000  0.15682000  1.0
  C  C31  1  0.78945000  0.26640000  0.15691000  1.0
  C  C32  1  0.85928000  0.20305000  0.21689000  1.0
  C  C33  1  0.95238000  0.05373000  0.22165000  1.0
  C  C34  1  0.61400000  0.63750000  0.21648000  1.0
  C  C35  1  0.03453000  0.69876000  0.11047000  1.0
  C  C36  1  0.18666000  0.61857000  0.07215000  1.0
  O  O1  1  0.58085000  0.04577000  0.78973000  1.0
  O  O2  1  0.75086000  0.19316000  0.81769000  1.0
  O  O3  1  0.38004000  0.90212000  0.11831000  1.0
  O  O4  1  0.56765000  0.03329000  0.15746000  1.0
  O  O5  1  0.89412000  0.96798000  0.70324000  1.0
  O  O6  1  0.12516000  0.04040000  0.74435000  1.0
  O  O7  1  0.28868000  0.27345000  0.73054000  1.0
  O  O8  1  0.54249000  0.33994000  0.70701000  1.0
  O  O9  1  0.91285000  0.27359000  0.67993000  1.0
  O  O10  1  0.42372000  0.95128000  0.29048000  1.0
  O  O11  1  0.24971000  0.80747000  0.31942000  1.0
  O  O12  1  0.62155000  0.09890000  0.61890000  1.0
  O  O13  1  0.43804000  0.96526000  0.65936000  1.0
  O  O14  1  0.10677000  0.03120000  0.20447000  1.0
  O  O15  1  0.87502000  0.96029000  0.24619000  1.0
  O  O16  1  0.70943000  0.72642000  0.22898000  1.0
  O  O17  1  0.45634000  0.65939000  0.20544000  1.0
  O  O18  1  0.08817000  0.72856000  0.17928000  1.0
  F  F1  1  0.48368000  0.32629000  0.93203000  1.0
  F  F2  1  0.40048000  0.25950000  0.05726000  1.0
  F  F3  1  0.66644000  0.78654000  0.02019000  1.0
  F  F4  1  0.74957000  0.85296000  0.89217000  1.0
  F  F5  1  0.07546000  0.77345000  0.83497000  1.0
  F  F6  1  0.22572000  0.50033000  0.83468000  1.0
  F  F7  1  0.35821000  0.53367000  0.59986000  1.0
  F  F8  1  0.19983000  0.80632000  0.59961000  1.0
  F  F9  1  0.51635000  0.67400000  0.43387000  1.0
  F  F10  1  0.59937000  0.74075000  0.55885000  1.0
  F  F11  1  0.33342000  0.21352000  0.52186000  1.0
  F  F12  1  0.25012000  0.14736000  0.39379000  1.0
  F  F13  1  0.92457000  0.22646000  0.33333333  1.0
  F  F14  1  0.77494000  0.49989000  0.33288000  1.0
  F  F15  1  0.64200000  0.46614000  0.09828000  1.0
  F  F16  1  0.80039000  0.19369000  0.09815000  1.0
