# generated using pymatgen
data_H23(C8N)4
_symmetry_space_group_name_H-M   'P 1'
_cell_length_a   52.40550000
_cell_length_b   52.40550000
_cell_length_c   52.40550000
_cell_angle_alpha   90.00000000
_cell_angle_beta   90.00000000
_cell_angle_gamma   90.00000000
_symmetry_Int_Tables_number   1
_chemical_formula_structural   H23(C8N)4
_chemical_formula_sum   'H276 C384 N48'
_cell_volume   143923.13379547
_cell_formula_units_Z   12
loop_
 _symmetry_equiv_pos_site_id
 _symmetry_equiv_pos_as_xyz
  1  'x, y, z'
loop_
 _atom_site_type_symbol
 _atom_site_label
 _atom_site_symmetry_multiplicity
 _atom_site_fract_x
 _atom_site_fract_y
 _atom_site_fract_z
 _atom_site_occupancy
  H  49  1  0.04107800  0.52790500  0.35670000  1
  H  50  1  0.04160500  0.52534000  0.40226900  1
  H  51  1  0.97524200  0.48124200  0.35474900  1
  H  52  1  0.97486800  0.47972300  0.40023700  1
  H  53  1  0.00920600  0.45073900  0.41373600  1
  H  54  1  0.00750100  0.41660700  0.44594000  1
  H  55  1  0.00832600  0.48513300  0.48437700  1
  H  56  1  0.00831200  0.51536000  0.51641400  1
  H  57  1  0.00736600  0.55473000  0.41625800  1
  H  58  1  0.00863000  0.58781700  0.44982700  1
  H  59  1  0.04105900  0.59931500  0.52627700  1
  H  60  1  0.04061900  0.64500000  0.52880800  1
  H  61  1  0.97526300  0.60158800  0.47916000  1
  H  62  1  0.97582400  0.64735600  0.48062000  1
  H  63  1  0.00734200  0.58365300  0.55447300  1
  H  64  1  0.00913200  0.54939500  0.58680000  1
  H  65  1  0.00930800  0.41309100  0.54990500  1
  H  66  1  0.00799500  0.44468300  0.58488200  1
  H  67  1  0.97547900  0.52032600  0.60073500  1
  H  68  1  0.97575700  0.52031200  0.64647500  1
  H  69  1  0.04135100  0.47325200  0.60038000  1
  H  70  1  0.04063800  0.47216500  0.64617700  1
  H  71  1  0.04184200  0.40141200  0.47411500  1
  H  72  1  0.04135500  0.35567700  0.47313600  1
  H  73  1  0.97551300  0.35541900  0.51981400  1
  H  74  1  0.97509100  0.40086300  0.51975300  1
  H  127  1  0.35670000  0.04107800  0.52790700  1
  H  128  1  0.40226900  0.04160400  0.52534000  1
  H  129  1  0.35474900  0.97524200  0.48124200  1
  H  130  1  0.40023700  0.97486800  0.47972300  1
  H  131  1  0.41373600  0.00920600  0.45073900  1
  H  132  1  0.44593400  0.00749400  0.41661100  1
  H  133  1  0.48437700  0.00832700  0.48513500  1
  H  134  1  0.51641400  0.00831200  0.51536200  1
  H  135  1  0.41625800  0.00736800  0.55473000  1
  H  136  1  0.44983300  0.00862600  0.58782000  1
  H  137  1  0.52627000  0.04100000  0.59944700  1
  H  138  1  0.52878300  0.04056800  0.64503800  1
  H  139  1  0.47921500  0.97530500  0.60169900  1
  H  140  1  0.48062600  0.97585600  0.64714600  1
  H  141  1  0.55446700  0.00734200  0.58365500  1
  H  142  1  0.58680000  0.00913100  0.54939500  1
  H  143  1  0.54990800  0.00931100  0.41309200  1
  H  144  1  0.58488200  0.00799500  0.44468300  1
  H  145  1  0.60073500  0.97547900  0.52032800  1
  H  146  1  0.64647500  0.97575700  0.52031000  1
  H  147  1  0.60038000  0.04135200  0.47325200  1
  H  148  1  0.64617700  0.04063900  0.47216500  1
  H  149  1  0.47409000  0.04189900  0.40155600  1
  H  150  1  0.47310000  0.04140800  0.35570000  1
  H  151  1  0.51982600  0.97546500  0.35525700  1
  H  152  1  0.51979500  0.97504000  0.40098500  1
  H  205  1  0.52790700  0.35670000  0.04107800  1
  H  206  1  0.52534000  0.40226900  0.04160500  1
  H  207  1  0.48124000  0.35474900  0.97524400  1
  H  208  1  0.47972300  0.40023500  0.97486800  1
  H  209  1  0.45073900  0.41373600  0.00920600  1
  H  210  1  0.41661100  0.44593400  0.00749300  1
  H  211  1  0.48513500  0.48437700  0.00832600  1
  H  212  1  0.51536200  0.51641400  0.00831100  1
  H  213  1  0.55473000  0.41625800  0.00736600  1
  H  214  1  0.58782000  0.44983300  0.00862500  1
  H  215  1  0.59944700  0.52626800  0.04100100  1
  H  216  1  0.64503800  0.52878300  0.04056800  1
  H  217  1  0.60169900  0.47921500  0.97530500  1
  H  218  1  0.64714600  0.48062700  0.97585500  1
  H  219  1  0.58365500  0.55446700  0.00734200  1
  H  220  1  0.54939500  0.58680000  0.00913000  1
  H  221  1  0.41309200  0.54990800  0.00931100  1
  H  222  1  0.44468300  0.58488200  0.00799800  1
  H  223  1  0.52032600  0.60073500  0.97547900  1
  H  224  1  0.52030800  0.64647500  0.97575500  1
  H  225  1  0.47325400  0.60038000  0.04135200  1
  H  226  1  0.47216500  0.64617700  0.04063900  1
  H  227  1  0.40155600  0.47409000  0.04189900  1
  H  228  1  0.35570200  0.47309600  0.04140800  1
  H  229  1  0.35525500  0.51982000  0.97546500  1
  H  230  1  0.40098500  0.51979500  0.97504000  1
  H  283  1  0.54112300  0.02799100  0.85683100  1
  H  284  1  0.54162700  0.02539100  0.90240200  1
  H  285  1  0.47520200  0.98132900  0.85444200  1
  H  286  1  0.47479600  0.97972100  0.90032800  1
  H  287  1  0.50921200  0.95073500  0.91373700  1
  H  288  1  0.50749300  0.91661100  0.94593400  1
  H  289  1  0.50832700  0.98513400  0.98437700  1
  H  290  1  0.50831200  0.01536200  0.01641300  1
  H  291  1  0.50736100  0.05473600  0.91626000  1
  H  292  1  0.50862600  0.08781900  0.94982900  1
  H  293  1  0.54102000  0.09931500  0.02632100  1
  H  294  1  0.54060800  0.14490600  0.02887300  1
  H  295  1  0.47523300  0.10160700  0.97921300  1
  H  296  1  0.47580700  0.14744000  0.98071700  1
  H  297  1  0.50733600  0.08365300  0.05447200  1
  H  298  1  0.50912800  0.04939500  0.08680000  1
  H  299  1  0.50931000  0.91309200  0.04990900  1
  H  300  1  0.50799700  0.94468200  0.08488300  1
  H  301  1  0.47544900  0.02027800  0.10074900  1
  H  302  1  0.47572300  0.02021900  0.14655800  1
  H  303  1  0.54131400  0.97321200  0.10038400  1
  H  304  1  0.54061000  0.97209900  0.14609000  1
  H  305  1  0.54186000  0.90154000  0.97404900  1
  H  306  1  0.54139400  0.85581500  0.97307000  1
  H  307  1  0.47544300  0.85515300  0.01976300  1
  H  308  1  0.47501200  0.90097100  0.01974800  1
  H  361  1  0.85683400  0.54112100  0.02800300  1
  H  362  1  0.90240600  0.54162700  0.02539100  1
  H  363  1  0.85444200  0.47519700  0.98134100  1
  H  364  1  0.90032800  0.47479600  0.97972100  1
  H  365  1  0.91373700  0.50920800  0.95073500  1
  H  366  1  0.94593400  0.50749500  0.91660900  1
  H  367  1  0.98437700  0.50832500  0.98513400  1
  H  368  1  0.01641300  0.50831200  0.01536200  1
  H  369  1  0.91626000  0.50736100  0.05473600  1
  H  370  1  0.94982900  0.50862800  0.08781900  1
  H  371  1  0.02632200  0.54102000  0.09931500  1
  H  372  1  0.02887100  0.54061000  0.14490600  1
  H  373  1  0.97921100  0.47523500  0.10160700  1
  H  374  1  0.98071700  0.47580700  0.14743900  1
  H  375  1  0.05447200  0.50734000  0.08365300  1
  H  376  1  0.08680000  0.50913000  0.04939400  1
  H  377  1  0.04990900  0.50931100  0.91309200  1
  H  378  1  0.08488300  0.50799500  0.94468200  1
  H  379  1  0.10074800  0.47544900  0.02027800  1
  H  380  1  0.14655800  0.47572500  0.02022900  1
  H  381  1  0.10038700  0.54131200  0.97321000  1
  H  382  1  0.14609300  0.54060800  0.97210700  1
  H  383  1  0.97405100  0.54186000  0.90154200  1
  H  384  1  0.97306500  0.54139400  0.85581500  1
  H  385  1  0.01975300  0.47544100  0.85515100  1
  H  386  1  0.01974900  0.47501200  0.90096900  1
  H  439  1  0.02798400  0.85673300  0.54106000  1
  H  440  1  0.02536600  0.90228200  0.54159100  1
  H  441  1  0.98139000  0.85466500  0.47519100  1
  H  442  1  0.97974700  0.90023100  0.47484900  1
  H  443  1  0.95073900  0.91373700  0.50920500  1
  H  444  1  0.91661100  0.94593400  0.50749300  1
  H  445  1  0.98513400  0.98437700  0.50832700  1
  H  446  1  0.01536200  0.01641400  0.50831200  1
  H  447  1  0.05473100  0.91625800  0.50736700  1
  H  448  1  0.08781800  0.94982900  0.50862800  1
  H  449  1  0.09931400  0.02632200  0.54102000  1
  H  450  1  0.14490600  0.02886900  0.54061000  1
  H  451  1  0.10160700  0.97921300  0.47523300  1
  H  452  1  0.14743900  0.98071700  0.47580700  1
  H  453  1  0.08365300  0.05447200  0.50733600  1
  H  454  1  0.04939100  0.08680100  0.50912600  1
  H  455  1  0.91309200  0.04990900  0.50931000  1
  H  456  1  0.94468800  0.08488600  0.50799900  1
  H  457  1  0.02026100  0.10085800  0.47550800  1
  H  458  1  0.02016900  0.14640700  0.47575400  1
  H  459  1  0.97325000  0.10050400  0.54128100  1
  H  460  1  0.97212000  0.14617100  0.54056200  1
  H  461  1  0.90153600  0.97404900  0.54186000  1
  H  462  1  0.85580600  0.97308200  0.54139000  1
  H  463  1  0.85515700  0.01977300  0.47544300  1
  H  464  1  0.90097300  0.01974900  0.47501400  1
  H  474  1  0.96828900  0.48245600  0.22342700  1
  H  476  1  0.03335100  0.51943400  0.27861800  1
  H  478  1  0.05027500  0.52901900  0.21058500  1
  H  479  1  0.06288300  0.51660800  0.23811600  1
  H  480  1  0.04607800  0.54619300  0.23811300  1
  H  482  1  0.95181700  0.47311500  0.29115100  1
  H  483  1  0.95531300  0.45559600  0.26335000  1
  H  484  1  0.93857800  0.48505800  0.26333900  1
  H  486  1  0.98114200  0.48919700  0.31215500  1
  H  488  1  0.02023900  0.51126900  0.19604600  1
  H  494  1  0.03384300  0.48242700  0.77885200  1
  H  496  1  0.96883200  0.51935600  0.72339000  1
  H  498  1  0.95183600  0.52898900  0.79152600  1
  H  499  1  0.93920800  0.51660800  0.76398000  1
  H  500  1  0.95600900  0.54619900  0.76399100  1
  H  502  1  0.05150500  0.47240500  0.71142000  1
  H  503  1  0.04688000  0.45549500  0.73901300  1
  H  504  1  0.06365300  0.48502600  0.73901800  1
  H  506  1  0.02174600  0.48935400  0.69616400  1
  H  508  1  0.98229500  0.51164700  0.80579000  1
  H  514  1  0.22342700  0.96828900  0.48245600  1
  H  516  1  0.27861800  0.03335100  0.51943400  1
  H  518  1  0.21058500  0.05027500  0.52901900  1
  H  519  1  0.23811600  0.06288300  0.51660800  1
  H  520  1  0.23811300  0.04607800  0.54619300  1
  H  522  1  0.29115100  0.95181700  0.47311500  1
  H  523  1  0.26335000  0.95531300  0.45559600  1
  H  524  1  0.26333900  0.93857800  0.48505800  1
  H  526  1  0.31215500  0.98114200  0.48919700  1
  H  528  1  0.19604600  0.02023800  0.51127100  1
  H  534  1  0.77886700  0.03385400  0.48240200  1
  H  536  1  0.72340400  0.96882900  0.51934500  1
  H  538  1  0.79148400  0.95176200  0.52908200  1
  H  539  1  0.76395700  0.93921700  0.51659900  1
  H  540  1  0.76395300  0.95601500  0.54619300  1
  H  542  1  0.71142200  0.05151100  0.47240100  1
  H  543  1  0.73901300  0.04688100  0.45549300  1
  H  544  1  0.73901800  0.06365500  0.48502400  1
  H  546  1  0.69616000  0.02169900  0.48935600  1
  H  548  1  0.80590700  0.98165700  0.51086300  1
  H  554  1  0.48245600  0.22342700  0.96828900  1
  H  556  1  0.51943400  0.27861800  0.03335100  1
  H  558  1  0.52901900  0.21058500  0.05027500  1
  H  559  1  0.51660800  0.23811600  0.06288300  1
  H  560  1  0.54619300  0.23811300  0.04607800  1
  H  562  1  0.47311500  0.29115100  0.95181700  1
  H  563  1  0.45559600  0.26335000  0.95531300  1
  H  564  1  0.48505800  0.26333900  0.93857800  1
  H  566  1  0.48919700  0.31215500  0.98114200  1
  H  568  1  0.51127100  0.19604600  0.02023800  1
  H  574  1  0.48241700  0.77885600  0.03384000  1
  H  576  1  0.51934900  0.72339200  0.96883000  1
  H  578  1  0.52902100  0.79151500  0.95181900  1
  H  579  1  0.51660500  0.76397200  0.93920800  1
  H  580  1  0.54619900  0.76397600  0.95600700  1
  H  582  1  0.47240500  0.71142000  0.05150400  1
  H  583  1  0.45549300  0.73901300  0.04688000  1
  H  584  1  0.48502600  0.73901800  0.06365300  1
  H  586  1  0.48935400  0.69616400  0.02174600  1
  H  588  1  0.51126000  0.80579000  0.98208300  1
  H  594  1  0.48245200  0.96828900  0.77865400  1
  H  596  1  0.51943800  0.03335900  0.72347400  1
  H  598  1  0.52901400  0.05026400  0.79152100  1
  H  599  1  0.51661000  0.06288800  0.76398500  1
  H  600  1  0.54619500  0.04608300  0.76398900  1
  H  602  1  0.47313200  0.95184900  0.71093400  1
  H  603  1  0.45560000  0.95531500  0.73874000  1
  H  604  1  0.48506000  0.93858200  0.73875100  1
  H  606  1  0.48924300  0.98119200  0.68985400  1
  H  608  1  0.51121800  0.02019800  0.80598100  1
  H  614  1  0.48245200  0.03385500  0.22321900  1
  H  616  1  0.51937700  0.96882900  0.27870400  1
  H  618  1  0.52901000  0.95177700  0.21059400  1
  H  619  1  0.51661200  0.93920800  0.23812200  1
  H  620  1  0.54619900  0.95601700  0.23810500  1
  H  622  1  0.47237800  0.05155400  0.29065700  1
  H  623  1  0.45549300  0.04688500  0.26307400  1
  H  624  1  0.48502800  0.06365800  0.26306600  1
  H  626  1  0.48923700  0.02159200  0.30586700  1
  H  628  1  0.51181300  0.98203100  0.19618400  1
  H  634  1  0.96817400  0.22336600  0.51974200  1
  H  636  1  0.03333600  0.27840800  0.48270200  1
  H  638  1  0.04952400  0.21034300  0.47357900  1
  H  639  1  0.06273900  0.23796000  0.48554300  1
  H  640  1  0.04597300  0.23793900  0.45601700  1
  H  642  1  0.95183600  0.29116600  0.52898700  1
  H  643  1  0.95530500  0.26336000  0.54650800  1
  H  644  1  0.93857200  0.26335400  0.51704500  1
  H  646  1  0.98105200  0.31224400  0.51267600  1
  H  648  1  0.02011100  0.18975900  0.48872600  1
  H  654  1  0.03395000  0.77892100  0.51974600  1
  H  656  1  0.96883800  0.72360000  0.48275700  1
  H  658  1  0.95254000  0.79174400  0.47355600  1
  H  659  1  0.93935800  0.76413200  0.48554300  1
  H  660  1  0.95612400  0.76415300  0.45601400  1
  H  662  1  0.05155500  0.71143200  0.52970400  1
  H  663  1  0.04688200  0.73901100  0.54660300  1
  H  664  1  0.06364700  0.73902000  0.51706800  1
  H  666  1  0.02155400  0.69612000  0.51310900  1
  H  668  1  0.98194700  0.81219200  0.48870500  1
  H  674  1  0.22321500  0.48243800  0.03385800  1
  H  676  1  0.27869400  0.51937200  0.96883000  1
  H  678  1  0.21060800  0.52904400  0.95176200  1
  H  679  1  0.23813200  0.51660700  0.93921500  1
  H  680  1  0.23812200  0.54619700  0.95601900  1
  H  682  1  0.29066600  0.47238600  0.05154000  1
  H  683  1  0.26307200  0.45549100  0.04688600  1
  H  684  1  0.26306800  0.48502800  0.06365800  1
  H  686  1  0.30585200  0.48932100  0.02137800  1
  H  688  1  0.19613800  0.51150400  0.98185000  1
  H  694  1  0.77864800  0.48246700  0.96829200  1
  H  696  1  0.72346700  0.51944600  0.03335800  1
  H  698  1  0.79153400  0.52897500  0.05024400  1
  H  699  1  0.76399500  0.51661800  0.06289600  1
  H  700  1  0.76400800  0.54619900  0.04608600  1
  H  702  1  0.71093600  0.47313200  0.95184900  1
  H  703  1  0.73874200  0.45560000  0.95531700  1
  H  704  1  0.73875300  0.48506200  0.93858200  1
  H  706  1  0.68985400  0.48924300  0.98119200  1
  H  708  1  0.80591200  0.51161700  0.01995100  1
  C  1  1  0.00856500  0.45443700  0.43285600  1
  C  2  1  0.00812700  0.43548100  0.45074100  1
  C  3  1  0.00845700  0.44700100  0.47496000  1
  C  5  1  0.00822400  0.47794500  0.44576300  1
  C  6  1  0.00823700  0.50222300  0.43358700  1
  C  7  1  0.00832700  0.52616500  0.44677800  1
  C  9  1  0.00793400  0.55610100  0.47739500  1
  C  10  1  0.00817100  0.56873500  0.45379400  1
  C  11  1  0.00792100  0.55032400  0.43520300  1
  C  12  1  0.00806200  0.56788000  0.50189600  1
  C  13  1  0.00832400  0.55363700  0.52533800  1
  C  15  1  0.00822800  0.52205100  0.55514300  1
  C  16  1  0.00848400  0.54570300  0.56768300  1
  C  17  1  0.00801600  0.56478500  0.54967900  1
  C  18  1  0.00850800  0.49782000  0.56800000  1
  C  19  1  0.00868000  0.47404400  0.55481800  1
  C  21  1  0.00831500  0.44521700  0.52315500  1
  C  22  1  0.00873600  0.43226000  0.54660500  1
  C  23  1  0.00845600  0.44975100  0.56606100  1
  C  24  1  0.00843800  0.43343600  0.49848800  1
  C  25  1  0.00847900  0.40591200  0.49713300  1
  C  26  1  0.98930700  0.39169000  0.50993200  1
  C  27  1  0.98949600  0.36476900  0.50993700  1
  C  28  1  0.00839200  0.35080900  0.49633200  1
  C  29  1  0.02735000  0.36502100  0.48308900  1
  C  30  1  0.02757000  0.39201100  0.48364000  1
  C  31  1  0.00845000  0.49696900  0.59567300  1
  C  32  1  0.98948300  0.51025200  0.60988300  1
  C  33  1  0.98938200  0.51027900  0.63663800  1
  C  34  1  0.00795900  0.49605100  0.64943800  1
  C  35  1  0.02701000  0.48231200  0.63646600  1
  C  36  1  0.02720400  0.48301700  0.60966600  1
  C  37  1  0.00809300  0.59555800  0.50266000  1
  C  38  1  0.02701400  0.60900100  0.51676300  1
  C  39  1  0.02692600  0.63574700  0.51832800  1
  C  40  1  0.00788400  0.64932200  0.50517600  1
  C  41  1  0.98936500  0.63709800  0.49034000  1
  C  42  1  0.98934000  0.61032000  0.48950600  1
  C  43  1  0.00821200  0.50247300  0.40603000  1
  C  44  1  0.02737000  0.51607000  0.39255500  1
  C  45  1  0.98911600  0.48979400  0.39138900  1
  C  46  1  0.98924800  0.49075600  0.36443900  1
  C  47  1  0.00805900  0.50499100  0.35096700  1
  C  48  1  0.02708400  0.51759300  0.36565100  1
  C  79  1  0.43285600  0.00856600  0.45443700  1
  C  80  1  0.45073900  0.00812900  0.43548100  1
  C  81  1  0.47495800  0.00845000  0.44700500  1
  C  83  1  0.44576300  0.00822000  0.47794500  1
  C  84  1  0.43358700  0.00823700  0.50222300  1
  C  85  1  0.44677800  0.00833000  0.52616500  1
  C  87  1  0.47739700  0.00793100  0.55610200  1
  C  88  1  0.45379600  0.00817000  0.56873500  1
  C  89  1  0.43520300  0.00792100  0.55032400  1
  C  90  1  0.50189800  0.00806200  0.56789700  1
  C  91  1  0.52533800  0.00833200  0.55363900  1
  C  93  1  0.55514300  0.00822100  0.52205100  1
  C  94  1  0.56768300  0.00848500  0.54570300  1
  C  95  1  0.54967800  0.00801600  0.56478500  1
  C  96  1  0.56800000  0.00851000  0.49782000  1
  C  97  1  0.55481800  0.00868000  0.47404400  1
  C  99  1  0.52315700  0.00832500  0.44522100  1
  C  100  1  0.54660500  0.00873500  0.43226000  1
  C  101  1  0.56606100  0.00845600  0.44975100  1
  C  102  1  0.49849000  0.00843700  0.43345700  1
  C  103  1  0.49713500  0.00847500  0.40599400  1
  C  104  1  0.50997700  0.98923700  0.39184100  1
  C  105  1  0.51008600  0.98927100  0.36513400  1
  C  106  1  0.49634100  0.00827800  0.35243900  1
  C  107  1  0.48293600  0.02754300  0.36539500  1
  C  108  1  0.48359900  0.02763600  0.39217900  1
  C  109  1  0.59567300  0.00845000  0.49696900  1
  C  110  1  0.60988300  0.98948300  0.51025200  1
  C  111  1  0.63663800  0.98938400  0.51027900  1
  C  112  1  0.64943800  0.00796000  0.49602700  1
  C  113  1  0.63646600  0.02701100  0.48231200  1
  C  114  1  0.60966600  0.02720400  0.48301700  1
  C  115  1  0.50266300  0.00810100  0.59563300  1
  C  116  1  0.51673100  0.02695600  0.60916600  1
  C  117  1  0.51817900  0.02676900  0.63612100  1
  C  118  1  0.50511000  0.00810400  0.65089800  1
  C  119  1  0.49048900  0.98959700  0.63742200  1
  C  120  1  0.48956000  0.98941000  0.61045400  1
  C  121  1  0.40603000  0.00821200  0.50247300  1
  C  122  1  0.39255500  0.02737100  0.51607000  1
  C  123  1  0.39138900  0.98911600  0.48979400  1
  C  124  1  0.36443900  0.98925000  0.49075400  1
  C  125  1  0.35096700  0.00805700  0.50499300  1
  C  126  1  0.36565100  0.02708500  0.51759100  1
  C  157  1  0.45443700  0.43285600  0.00856500  1
  C  158  1  0.43548100  0.45073900  0.00812800  1
  C  159  1  0.44700500  0.47495800  0.00845400  1
  C  161  1  0.47794500  0.44576300  0.00822000  1
  C  162  1  0.50222300  0.43358700  0.00823600  1
  C  163  1  0.52616500  0.44677800  0.00833700  1
  C  165  1  0.55610200  0.47739700  0.00792600  1
  C  166  1  0.56873500  0.45379600  0.00817200  1
  C  167  1  0.55032400  0.43520300  0.00791900  1
  C  168  1  0.56789900  0.50189800  0.00806300  1
  C  169  1  0.55363900  0.52533800  0.00833200  1
  C  171  1  0.52205100  0.55514300  0.00822900  1
  C  172  1  0.54570300  0.56768300  0.00848300  1
  C  173  1  0.56478500  0.54967800  0.00801600  1
  C  174  1  0.49782000  0.56800000  0.00851000  1
  C  175  1  0.47404400  0.55481800  0.00867200  1
  C  177  1  0.44522100  0.52315700  0.00832500  1
  C  178  1  0.43226000  0.54660500  0.00873500  1
  C  179  1  0.44975100  0.56606100  0.00845700  1
  C  180  1  0.43345700  0.49849000  0.00843600  1
  C  181  1  0.40599400  0.49713500  0.00847500  1
  C  182  1  0.39184100  0.50997900  0.98923700  1
  C  183  1  0.36513200  0.51009000  0.98927300  1
  C  184  1  0.35243700  0.49634500  0.00828100  1
  C  185  1  0.36539700  0.48293400  0.02754200  1
  C  186  1  0.39217900  0.48360000  0.02763700  1
  C  187  1  0.49696900  0.59567300  0.00845000  1
  C  188  1  0.51025200  0.60988300  0.98948300  1
  C  189  1  0.51028100  0.63663800  0.98938400  1
  C  190  1  0.49604800  0.64943800  0.00795800  1
  C  191  1  0.48231200  0.63646600  0.02701000  1
  C  192  1  0.48301700  0.60966600  0.02720400  1
  C  193  1  0.59563300  0.50266300  0.00810200  1
  C  194  1  0.60916600  0.51673100  0.02695600  1
  C  195  1  0.63612100  0.51817900  0.02676900  1
  C  196  1  0.65089800  0.50511200  0.00810400  1
  C  197  1  0.63742200  0.49048900  0.98959900  1
  C  198  1  0.61045400  0.48956000  0.98941000  1
  C  199  1  0.50247300  0.40603000  0.00821200  1
  C  200  1  0.51607000  0.39255500  0.02737000  1
  C  201  1  0.48979400  0.39138900  0.98911800  1
  C  202  1  0.49075600  0.36443900  0.98924800  1
  C  203  1  0.50499100  0.35096700  0.00805800  1
  C  204  1  0.51759100  0.36565100  0.02708500  1
  C  235  1  0.50856300  0.95443500  0.93285700  1
  C  236  1  0.50812800  0.93548100  0.95073900  1
  C  237  1  0.50845500  0.94700300  0.97495800  1
  C  239  1  0.50821800  0.97794200  0.94576400  1
  C  240  1  0.50823300  0.00222300  0.93360300  1
  C  241  1  0.50833400  0.02616600  0.94678100  1
  C  243  1  0.50793400  0.05610100  0.97739400  1
  C  244  1  0.50817000  0.06873500  0.95379400  1
  C  245  1  0.50791800  0.05032600  0.93520400  1
  C  246  1  0.50806000  0.06788200  0.00189700  1
  C  247  1  0.50832300  0.05363800  0.02534000  1
  C  249  1  0.50822800  0.02205100  0.05514300  1
  C  250  1  0.50848300  0.04570300  0.06768400  1
  C  251  1  0.50801800  0.06478500  0.04967900  1
  C  252  1  0.50850800  0.99782000  0.06800100  1
  C  253  1  0.50867400  0.97404400  0.05481900  1
  C  255  1  0.50832100  0.94522000  0.02315800  1
  C  256  1  0.50873500  0.93226000  0.04660600  1
  C  257  1  0.50845700  0.94975000  0.06606200  1
  C  258  1  0.50843600  0.93345400  0.99849000  1
  C  259  1  0.50847400  0.90598400  0.99714600  1
  C  260  1  0.48923700  0.89180800  0.00998400  1
  C  261  1  0.48929800  0.86504200  0.01015000  1
  C  262  1  0.50883100  0.85227000  0.99710400  1
  C  263  1  0.52753900  0.86540800  0.98306200  1
  C  264  1  0.52762100  0.89217600  0.98361700  1
  C  265  1  0.50845100  0.99698200  0.09567800  1
  C  266  1  0.48948900  0.01026300  0.10991100  1
  C  267  1  0.48944700  0.01036500  0.13670700  1
  C  268  1  0.50850800  0.99671700  0.14953900  1
  C  269  1  0.52702900  0.98240000  0.13645000  1
  C  270  1  0.52720100  0.98303500  0.10966100  1
  C  271  1  0.50809600  0.09556700  0.00264900  1
  C  272  1  0.52701000  0.10900000  0.01675000  1
  C  273  1  0.52696400  0.13574000  0.01823000  1
  C  274  1  0.50848900  0.14948700  0.00445100  1
  C  275  1  0.48943600  0.13717700  0.99027700  1
  C  276  1  0.48934800  0.11035100  0.98950200  1
  C  277  1  0.50820700  0.00245700  0.90609800  1
  C  278  1  0.52742600  0.01608900  0.89272000  1
  C  279  1  0.48905400  0.98973900  0.89149300  1
  C  280  1  0.48907700  0.99054400  0.86468700  1
  C  281  1  0.50842000  0.00431900  0.85238800  1
  C  282  1  0.52728300  0.01764200  0.86603000  1
  C  313  1  0.93285700  0.50856500  0.95443500  1
  C  314  1  0.95073900  0.50812600  0.93548100  1
  C  315  1  0.97495800  0.50845700  0.94700300  1
  C  317  1  0.94576400  0.50822400  0.97794200  1
  C  318  1  0.93360300  0.50823300  0.00222200  1
  C  319  1  0.94678100  0.50832700  0.02616600  1
  C  321  1  0.97739400  0.50793400  0.05610100  1
  C  322  1  0.95379400  0.50817000  0.06873500  1
  C  323  1  0.93520400  0.50792000  0.05032600  1
  C  324  1  0.00189700  0.50806000  0.06788200  1
  C  325  1  0.02534000  0.50832300  0.05363800  1
  C  327  1  0.05514300  0.50822800  0.02205100  1
  C  328  1  0.06768400  0.50848300  0.04570300  1
  C  329  1  0.04967900  0.50801600  0.06478500  1
  C  330  1  0.06800100  0.50850600  0.99782000  1
  C  331  1  0.05481900  0.50868000  0.97404400  1
  C  333  1  0.02315800  0.50831500  0.94522000  1
  C  334  1  0.04660600  0.50873700  0.93226000  1
  C  335  1  0.06606200  0.50845500  0.94975000  1
  C  336  1  0.99849000  0.50843600  0.93345400  1
  C  337  1  0.99714800  0.50847400  0.90598400  1
  C  338  1  0.00998600  0.48923900  0.89180800  1
  C  339  1  0.01015300  0.48930600  0.86504000  1
  C  340  1  0.99707900  0.50882700  0.85227800  1
  C  341  1  0.98305200  0.52754100  0.86541000  1
  C  342  1  0.98361900  0.52762300  0.89217800  1
  C  343  1  0.09567900  0.50845100  0.99698200  1
  C  344  1  0.10991000  0.48948700  0.01026100  1
  C  345  1  0.13670800  0.48944000  0.01036000  1
  C  346  1  0.14955000  0.50852000  0.99674400  1
  C  347  1  0.13645400  0.52702900  0.98241100  1
  C  348  1  0.10966400  0.52719900  0.98303300  1
  C  349  1  0.00264900  0.50809600  0.09556700  1
  C  350  1  0.01675000  0.52701000  0.10900000  1
  C  351  1  0.01823300  0.52696200  0.13574100  1
  C  352  1  0.00444800  0.50849100  0.14948700  1
  C  353  1  0.99027700  0.48943600  0.13717700  1
  C  354  1  0.98950200  0.48934800  0.11035100  1
  C  355  1  0.90609800  0.50820700  0.00245700  1
  C  356  1  0.89272400  0.52743000  0.01608700  1
  C  357  1  0.89149300  0.48905600  0.98973500  1
  C  358  1  0.86468900  0.48908600  0.99053800  1
  C  359  1  0.85240200  0.50841800  0.00433700  1
  C  360  1  0.86603600  0.52728500  0.01765000  1
  C  391  1  0.95443700  0.93285500  0.50856500  1
  C  392  1  0.93548100  0.95073900  0.50812800  1
  C  393  1  0.94700300  0.97495800  0.50845100  1
  C  395  1  0.97794400  0.94576200  0.50822000  1
  C  396  1  0.00222300  0.93358600  0.50823700  1
  C  397  1  0.02616400  0.94677700  0.50832900  1
  C  399  1  0.05610100  0.97739400  0.50793000  1
  C  400  1  0.06873500  0.95379400  0.50817000  1
  C  401  1  0.05032500  0.93520200  0.50792000  1
  C  402  1  0.06788200  0.00189700  0.50806000  1
  C  403  1  0.05363800  0.02534000  0.50833100  1
  C  405  1  0.02204900  0.05514500  0.50822000  1
  C  406  1  0.04570200  0.06768500  0.50848500  1
  C  407  1  0.06478400  0.04967900  0.50801400  1
  C  408  1  0.99782000  0.06801800  0.50851000  1
  C  409  1  0.97404600  0.05482200  0.50868000  1
  C  411  1  0.94522000  0.02315800  0.50832500  1
  C  412  1  0.93226000  0.04660700  0.50873300  1
  C  413  1  0.94975200  0.06606400  0.50845700  1
  C  414  1  0.93345400  0.99849000  0.50843600  1
  C  415  1  0.90598200  0.99714600  0.50847400  1
  C  416  1  0.89181000  0.00998100  0.48923500  1
  C  417  1  0.86504400  0.01014800  0.48928900  1
  C  418  1  0.85226100  0.99712900  0.50882700  1
  C  419  1  0.86540000  0.98307100  0.52753500  1
  C  420  1  0.89217200  0.98361500  0.52761900  1
  C  421  1  0.99697400  0.09574700  0.50845700  1
  C  422  1  0.01021800  0.11003400  0.48955600  1
  C  423  1  0.01019800  0.13700100  0.48964900  1
  C  424  1  0.99633300  0.15095400  0.50836300  1
  C  425  1  0.98246600  0.13679800  0.52685700  1
  C  426  1  0.98306200  0.10981500  0.52714900  1
  C  427  1  0.09556700  0.00264900  0.50809600  1
  C  428  1  0.10900000  0.01674900  0.52701200  1
  C  429  1  0.13574000  0.01823300  0.52696200  1
  C  430  1  0.14948700  0.00445000  0.50848900  1
  C  431  1  0.13717700  0.99027700  0.48943600  1
  C  432  1  0.11035100  0.98950200  0.48934800  1
  C  433  1  0.00246600  0.90603200  0.50821400  1
  C  434  1  0.01606700  0.89256900  0.52738000  1
  C  435  1  0.98978200  0.89138600  0.48912300  1
  C  436  1  0.99070200  0.86443100  0.48929600  1
  C  437  1  0.00470800  0.85103500  0.50832700  1
  C  438  1  0.01759500  0.86568700  0.52712100  1
  C  469  1  0.99821700  0.49957800  0.27863700  1
  C  470  1  0.97913700  0.48861300  0.26205900  1
  C  471  1  0.98207700  0.49018900  0.23506500  1
  C  472  1  0.00355000  0.50184900  0.22384100  1
  C  473  1  0.02251800  0.51322100  0.24028000  1
  C  475  1  0.01957300  0.51158200  0.26714000  1
  C  477  1  0.04623800  0.52672000  0.23081000  1
  C  481  1  0.95525000  0.47505000  0.27082700  1
  C  485  1  0.99600300  0.49838500  0.30579300  1
  C  487  1  0.00394500  0.50386900  0.19722800  1
  C  489  1  0.00386900  0.49953400  0.72411400  1
  C  490  1  0.02315000  0.48851000  0.74053900  1
  C  491  1  0.02006800  0.49017600  0.76724300  1
  C  492  1  0.99853200  0.50186000  0.77822800  1
  C  493  1  0.97955300  0.51325000  0.76180600  1
  C  495  1  0.98253100  0.51158600  0.73503400  1
  C  497  1  0.95584900  0.52672400  0.77128400  1
  C  501  1  0.04709500  0.47490300  0.73153300  1
  C  505  1  0.00626700  0.49770000  0.69772300  1
  C  507  1  0.99828900  0.50367500  0.80475600  1
  C  509  1  0.27863700  0.99821700  0.49957800  1
  C  510  1  0.26205900  0.97913700  0.48861300  1
  C  511  1  0.23506500  0.98207700  0.49018900  1
  C  512  1  0.22384100  0.00355000  0.50184900  1
  C  513  1  0.24028000  0.02251800  0.51322100  1
  C  515  1  0.26714000  0.01957300  0.51158200  1
  C  517  1  0.23081000  0.04623800  0.52672000  1
  C  521  1  0.27082700  0.95525000  0.47505000  1
  C  525  1  0.30579300  0.99600300  0.49838500  1
  C  527  1  0.19722800  0.00394500  0.50386900  1
  C  529  1  0.72412300  0.00393500  0.49946700  1
  C  530  1  0.74054100  0.02315900  0.48850800  1
  C  531  1  0.76725200  0.02009800  0.49018200  1
  C  532  1  0.77824000  0.99864400  0.50209100  1
  C  533  1  0.76182300  0.97958700  0.51326500  1
  C  535  1  0.73504400  0.98254300  0.51158400  1
  C  537  1  0.77126900  0.95584700  0.52672800  1
  C  541  1  0.73153100  0.04709600  0.47490100  1
  C  545  1  0.69770600  0.00613300  0.49781300  1
  C  547  1  0.80478800  0.99800700  0.50328000  1
  C  549  1  0.49957800  0.27863700  0.99821700  1
  C  550  1  0.48861300  0.26205900  0.97913700  1
  C  551  1  0.49018900  0.23506500  0.98207700  1
  C  552  1  0.50184900  0.22384100  0.00355000  1
  C  553  1  0.51322100  0.24028000  0.02251800  1
  C  555  1  0.51158200  0.26714000  0.01957300  1
  C  557  1  0.52672000  0.23081000  0.04623800  1
  C  561  1  0.47505000  0.27082700  0.95525000  1
  C  565  1  0.49838500  0.30579300  0.99600300  1
  C  567  1  0.50386900  0.19722800  0.00394500  1
  C  569  1  0.49953000  0.72411400  0.00386900  1
  C  570  1  0.48851000  0.74054100  0.02315100  1
  C  571  1  0.49018600  0.76725000  0.02007000  1
  C  572  1  0.50198800  0.77824200  0.99857200  1
  C  573  1  0.51326500  0.76180800  0.97956000  1
  C  575  1  0.51158800  0.73503600  0.98253500  1
  C  577  1  0.52672600  0.77127800  0.95584500  1
  C  581  1  0.47490300  0.73153300  0.04709500  1
  C  585  1  0.49770400  0.69772300  0.00626900  1
  C  587  1  0.50341700  0.80479400  0.99820500  1
  C  589  1  0.49958300  0.99823200  0.72341100  1
  C  590  1  0.48862100  0.97914600  0.74001500  1
  C  591  1  0.49018900  0.98207700  0.76700800  1
  C  592  1  0.50183500  0.00356500  0.77819200  1
  C  593  1  0.51322900  0.02253100  0.76179100  1
  C  595  1  0.51158400  0.01957600  0.73494100  1
  C  597  1  0.52672200  0.04624200  0.77129000  1
  C  601  1  0.47505400  0.95525700  0.73126500  1
  C  605  1  0.49841900  0.99607200  0.69620600  1
  C  607  1  0.50378900  0.00390800  0.80475600  1
  C  609  1  0.49914300  0.00406600  0.27789500  1
  C  610  1  0.48849300  0.02315800  0.26152800  1
  C  611  1  0.49015300  0.02008200  0.23484000  1
  C  612  1  0.50182400  0.99858700  0.22384900  1
  C  613  1  0.51321000  0.97956200  0.24026900  1
  C  615  1  0.51157700  0.98252400  0.26705000  1
  C  617  1  0.52672400  0.95584900  0.23081400  1
  C  621  1  0.47490100  0.04710400  0.27055400  1
  C  625  1  0.49860300  0.00592400  0.30434800  1
  C  627  1  0.50405600  0.99803400  0.19734800  1
  C  629  1  0.99824900  0.27858400  0.50258900  1
  C  630  1  0.97911600  0.26202400  0.51350000  1
  C  631  1  0.98193800  0.23493900  0.51193100  1
  C  632  1  0.00325700  0.22332600  0.49998000  1
  C  633  1  0.02226900  0.23984900  0.48900300  1
  C  635  1  0.01951700  0.26692800  0.49055000  1
  C  637  1  0.04601500  0.23063600  0.47552300  1
  C  641  1  0.95524800  0.27083600  0.52705600  1
  C  645  1  0.99605900  0.30575800  0.50377800  1
  C  647  1  0.00588300  0.19618900  0.49879700  1
  C  649  1  0.00392400  0.72411900  0.50274500  1
  C  650  1  0.02313500  0.74055500  0.51359900  1
  C  651  1  0.02019600  0.76737400  0.51194700  1
  C  652  1  0.99885000  0.77879900  0.49994600  1
  C  653  1  0.97981600  0.76227400  0.48898500  1
  C  655  1  0.98257300  0.73524400  0.49055000  1
  C  657  1  0.95607600  0.77146000  0.47551700  1
  C  661  1  0.04709200  0.73152900  0.52719300  1
  C  665  1  0.00615500  0.69760900  0.50411700  1
  C  667  1  0.99619600  0.80586600  0.49877600  1
  C  669  1  0.27790000  0.49934900  0.00413900  1
  C  670  1  0.26152200  0.48848000  0.02317800  1
  C  671  1  0.23483600  0.49015900  0.02009200  1
  C  672  1  0.22384900  0.50187500  0.99859300  1
  C  673  1  0.24026300  0.51322900  0.97957400  1
  C  675  1  0.26704900  0.51156700  0.98254800  1
  C  677  1  0.23081900  0.52672600  0.95585100  1
  C  681  1  0.27055600  0.47490100  0.04710400  1
  C  685  1  0.30434200  0.49822500  0.00572200  1
  C  687  1  0.19734400  0.50395900  0.99800700  1
  C  689  1  0.72340900  0.49958200  0.99823400  1
  C  690  1  0.74001500  0.48862100  0.97915200  1
  C  691  1  0.76700400  0.49018200  0.98209100  1
  C  692  1  0.77819400  0.50174700  0.00358100  1
  C  693  1  0.76178500  0.51320800  0.02254600  1
  C  695  1  0.73493300  0.51158400  0.01958100  1
  C  697  1  0.77129600  0.52672000  0.04624400  1
  C  701  1  0.73126700  0.47505600  0.95525700  1
  C  705  1  0.69620600  0.49841900  0.99607200  1
  C  707  1  0.80474400  0.50396500  0.00384800  1
  N  4  1  0.00833100  0.47255600  0.47104600  1
  N  8  1  0.00816600  0.53067800  0.47226000  1
  N  14  1  0.00829000  0.52792200  0.52972500  1
  N  20  1  0.00845700  0.47039400  0.52914100  1
  N  75  1  0.00763600  0.49655500  0.67382300  1
  N  76  1  0.00818200  0.67374100  0.50536300  1
  N  77  1  0.00954200  0.50652000  0.32485700  1
  N  78  1  0.00970700  0.32468000  0.49551300  1
  N  82  1  0.47104600  0.00833400  0.47255600  1
  N  86  1  0.47226000  0.00816600  0.53067900  1
  N  92  1  0.52972500  0.00829000  0.52792200  1
  N  98  1  0.52914100  0.00845400  0.47039400  1
  N  153  1  0.67382900  0.00770400  0.49655100  1
  N  154  1  0.50656400  0.00955300  0.67706700  1
  N  155  1  0.32485700  0.00954200  0.50652000  1
  N  156  1  0.49638000  0.00808300  0.32808400  1
  N  160  1  0.47255600  0.47104600  0.00833300  1
  N  164  1  0.53067900  0.47226000  0.00816500  1
  N  170  1  0.52792200  0.52972500  0.00828800  1
  N  176  1  0.47039400  0.52914100  0.00845600  1
  N  231  1  0.49655900  0.67382300  0.00763600  1
  N  232  1  0.67706700  0.50656400  0.00955200  1
  N  233  1  0.50652000  0.32485700  0.00954300  1
  N  234  1  0.32808600  0.49653000  0.00818500  1
  N  238  1  0.50833300  0.97255500  0.97104600  1
  N  242  1  0.50816300  0.03067900  0.97225900  1
  N  248  1  0.50828900  0.02792200  0.02972500  1
  N  254  1  0.50845700  0.97039300  0.02914200  1
  N  309  1  0.50785900  0.99480700  0.17387600  1
  N  310  1  0.50839900  0.17383900  0.00707900  1
  N  311  1  0.50837800  0.00699200  0.82810300  1
  N  312  1  0.50876400  0.82794200  0.99487200  1
  N  316  1  0.97104600  0.50833100  0.97255500  1
  N  320  1  0.97226100  0.50816500  0.03067900  1
  N  326  1  0.02972500  0.50829100  0.02792200  1
  N  332  1  0.02914200  0.50845700  0.97039300  1
  N  387  1  0.17390200  0.50795500  0.99486600  1
  N  388  1  0.00708000  0.50840100  0.17383900  1
  N  389  1  0.82814500  0.50822200  0.00709800  1
  N  390  1  0.99478200  0.50858400  0.82797100  1
  N  394  1  0.97255500  0.97104600  0.50833300  1
  N  398  1  0.03067900  0.97225900  0.50816500  1
  N  404  1  0.02792200  0.02972600  0.50829100  1
  N  410  1  0.97039500  0.02914300  0.50845500  1
  N  465  1  0.99416200  0.17698000  0.50892600  1
  N  466  1  0.17383900  0.00707900  0.50839900  1
  N  467  1  0.00768400  0.82510300  0.50909400  1
  N  468  1  0.82790400  0.99504900  0.50888400  1
