# generated using pymatgen
data_H45(C21N2)4
_symmetry_space_group_name_H-M   'P 1'
_cell_length_a   59.61320000
_cell_length_b   64.18520690
_cell_length_c   64.19135797
_cell_angle_alpha   77.56158418
_cell_angle_beta   62.33249894
_cell_angle_gamma   62.32962012
_symmetry_Int_Tables_number   1
_chemical_formula_structural   H45(C21N2)4
_chemical_formula_sum   'H180 C336 N32'
_cell_volume   192652.09945756
_cell_formula_units_Z   4
loop_
 _symmetry_equiv_pos_site_id
 _symmetry_equiv_pos_as_xyz
  1  'x, y, z'
loop_
 _atom_site_type_symbol
 _atom_site_label
 _atom_site_symmetry_multiplicity
 _atom_site_fract_x
 _atom_site_fract_y
 _atom_site_fract_z
 _atom_site_occupancy
  C  1  1  0.25208050  0.74590350  0.99336950  1
  C  2  1  0.40693300  0.70420450  0.85926550  1
  C  3  1  0.23673050  0.78440300  0.85432300  1
  C  4  1  0.42286150  0.71175850  0.83747450  1
  C  5  1  0.45220750  0.69969800  0.82708900  1
  C  6  1  0.46617750  0.67987450  0.83825750  1
  C  7  1  0.45011450  0.67243050  0.86001250  1
  C  8  1  0.42079400  0.68445350  0.87047950  1
  C  9  1  0.26954250  0.73919150  0.00498650  1
  C  10  1  0.25828300  0.73882000  0.02971800  1
  C  11  1  0.22937700  0.74501000  0.04343600  1
  C  12  1  0.21204900  0.75189850  0.03163450  1
  C  13  1  0.22320900  0.75229700  0.00687200  1
  C  14  1  0.21082350  0.80411200  0.86351600  1
  C  15  1  0.19413400  0.81430400  0.85093700  1
  C  16  1  0.20296150  0.80500800  0.82895900  1
  C  17  1  0.22885550  0.78528300  0.81991700  1
  C  18  1  0.24564500  0.77505850  0.83240750  1
  C  30  1  0.28156750  0.75635400  0.88859500  1
  C  31  1  0.26866700  0.75658450  0.91345250  1
  C  32  1  0.28501850  0.74609450  0.92639950  1
  C  33  1  0.31444150  0.73533800  0.91434300  1
  C  34  1  0.32754700  0.73502000  0.88949200  1
  C  35  1  0.31101500  0.74553900  0.87669100  1
  C  40  1  0.25220150  0.77484250  0.86599450  1
  C  41  1  0.26630700  0.76602050  0.87672850  1
  C  42  1  0.37971050  0.71521850  0.86902550  1
  C  43  1  0.35477850  0.72486700  0.87852200  1
  C  44  1  0.27307600  0.74627600  0.94938200  1
  C  45  1  0.26267100  0.74622900  0.97041500  1
  C  49  1  0.00342750  0.74401600  0.49255200  1
  C  50  1  0.98243300  0.78580050  0.62664850  1
  C  51  1  0.88748250  0.70559900  0.63160500  1
  C  52  1  0.98412300  0.77824350  0.64843950  1
  C  53  1  0.99102350  0.79030400  0.65882600  1
  C  54  1  0.99633800  0.81012750  0.64765850  1
  C  55  1  0.99458650  0.81757300  0.62590400  1
  C  56  1  0.98775800  0.80555100  0.61543500  1
  C  57  1  0.02577950  0.75074800  0.48092700  1
  C  58  1  0.03890100  0.75108400  0.45619500  1
  C  59  1  0.02994300  0.74483350  0.44248550  1
  C  60  1  0.00771800  0.73792500  0.45429500  1
  C  61  1  0.99449150  0.73756400  0.47905600  1
  C  62  1  0.89048000  0.68588850  0.62241150  1
  C  63  1  0.87140600  0.67569450  0.63498950  1
  C  64  1  0.84895800  0.68498850  0.65696850  1
  C  65  1  0.84608350  0.70471450  0.66601050  1
  C  66  1  0.86513650  0.71494100  0.65352000  1
  C  78  1  0.93854550  0.73364450  0.59732950  1
  C  79  1  0.95073900  0.73340200  0.57247400  1
  C  80  1  0.96955300  0.74388600  0.55952200  1
  C  81  1  0.97616000  0.75465050  0.57157450  1
  C  82  1  0.96409100  0.75497900  0.59642400  1
  C  83  1  0.94527100  0.74446650  0.60923050  1
  C  88  1  0.90506300  0.71516050  0.61993450  1
  C  89  1  0.92108100  0.72398100  0.60920000  1
  C  90  1  0.97598500  0.77478600  0.61688700  1
  C  91  1  0.97019700  0.76513600  0.60739300  1
  C  92  1  0.98078400  0.74368950  0.53654050  1
  C  93  1  0.99137550  0.74371650  0.51550650  1
  C  97  1  0.00299050  0.99536900  0.74208200  1
  C  98  1  0.11612200  0.86128500  0.78380200  1
  C  99  1  0.02613150  0.85630200  0.70359700  1
  C  100  1  0.13961050  0.83948950  0.77625050  1
  C  101  1  0.15689300  0.82911400  0.78831100  1
  C  102  1  0.15102750  0.84030100  0.80813100  1
  C  103  1  0.12751450  0.86206200  0.81557300  1
  C  104  1  0.11022200  0.87251700  0.80354900  1
  C  105  1  0.01375100  0.00699100  0.74877700  1
  C  106  1  0.00212700  0.03172500  0.74913700  1
  C  107  1  0.97940900  0.04544000  0.74295200  1
  C  108  1  0.96896000  0.03363300  0.73608000  1
  C  109  1  0.98050850  0.00886850  0.73569450  1
  C  110  1  0.01993100  0.86550050  0.68389550  1
  C  111  1  0.01343300  0.85292650  0.67369450  1
  C  112  1  0.01296800  0.83094550  0.68297250  1
  C  113  1  0.01913800  0.82189950  0.70269050  1
  C  114  1  0.02570300  0.83438500  0.71292400  1
  C  126  1  0.04291900  0.89057600  0.73165600  1
  C  127  1  0.03025100  0.91543550  0.73142150  1
  C  128  1  0.03611000  0.92839100  0.74191000  1
  C  129  1  0.05477250  0.91633900  0.75266700  1
  C  130  1  0.06756100  0.89148550  0.75298550  1
  C  131  1  0.06154900  0.87867700  0.74247000  1
  C  136  1  0.03204350  0.86796950  0.71316450  1
  C  137  1  0.03732800  0.87870400  0.72198900  1
  C  138  1  0.09991700  0.87103450  0.77278650  1
  C  139  1  0.08463550  0.88052100  0.76314000  1
  C  140  1  0.02435100  0.95137450  0.74172450  1
  C  141  1  0.01390100  0.97241100  0.74176500  1
  C  145  1  0.75246150  0.49460950  0.74391550  1
  C  146  1  0.77326050  0.62869350  0.70212550  1
  C  147  1  0.59808400  0.63368950  0.78232850  1
  C  148  1  0.76739600  0.65049050  0.70967850  1
  C  149  1  0.78636000  0.66087000  0.69761800  1
  C  150  1  0.81150150  0.64968800  0.67779600  1
  C  151  1  0.81719500  0.62792550  0.67035350  1
  C  152  1  0.79833800  0.61746550  0.68237850  1
  C  153  1  0.78154150  0.48297800  0.73720900  1
  C  154  1  0.79499750  0.45824300  0.73687600  1
  C  155  1  0.77979200  0.44453600  0.74310100  1
  C  156  1  0.75066250  0.45635200  0.74998100  1
  C  157  1  0.73707450  0.48111800  0.75034100  1
  C  158  1  0.58137500  0.62449450  0.80203150  1
  C  159  1  0.55210250  0.63707150  0.81222950  1
  C  160  1  0.53894000  0.65905100  0.80294900  1
  C  161  1  0.55578650  0.66809500  0.78323100  1
  C  162  1  0.58507000  0.65560650  0.77299950  1
  C  174  1  0.67720200  0.59940700  0.75427900  1
  C  175  1  0.68915600  0.57454700  0.75452200  1
  C  176  1  0.71845700  0.56158850  0.74403950  1
  C  177  1  0.73582950  0.57363550  0.73327650  1
  C  178  1  0.72408750  0.59848950  0.73294650  1
  C  179  1  0.69475100  0.61130150  0.74345950  1
  C  184  1  0.62523000  0.62201950  0.77276450  1
  C  185  1  0.65007250  0.61128300  0.76394200  1
  C  186  1  0.75579400  0.61894000  0.71314200  1
  C  187  1  0.74035300  0.60945200  0.72279200  1
  C  188  1  0.72949200  0.53860350  0.74423750  1
  C  189  1  0.74011000  0.51756750  0.74421150  1
  C  193  1  0.75453000  0.24442200  0.99266500  1
  C  194  1  0.59846000  0.28618700  0.12726900  1
  C  195  1  0.76915650  0.20589400  0.13124300  1
  C  196  1  0.58256800  0.27863100  0.14907600  1
  C  197  1  0.55322750  0.29073400  0.15953300  1
  C  198  1  0.53923550  0.31060250  0.14841750  1
  C  199  1  0.55526800  0.31805550  0.12665150  1
  C  200  1  0.58457950  0.30599000  0.11611400  1
  C  201  1  0.73893400  0.24966400  0.97959200  1
  C  202  1  0.75187850  0.24990400  0.95482200  1
  C  203  1  0.78047050  0.24518100  0.94261600  1
  C  204  1  0.79603650  0.23964650  0.95586150  1
  C  205  1  0.78322300  0.23933550  0.98061150  1
  C  206  1  0.79507950  0.18620700  0.12201300  1
  C  207  1  0.81183900  0.17604650  0.13453250  1
  C  208  1  0.80306700  0.18535400  0.15648700  1
  C  209  1  0.77716600  0.20506500  0.16556100  1
  C  210  1  0.76030900  0.21525500  0.15313100  1
  C  222  1  0.72393600  0.23385000  0.09729500  1
  C  223  1  0.73663250  0.23367050  0.07243450  1
  C  224  1  0.72009900  0.24419100  0.05963900  1
  C  225  1  0.69069950  0.25494850  0.07185050  1
  C  226  1  0.67779850  0.25521350  0.09670450  1
  C  227  1  0.69450450  0.24465650  0.10935350  1
  C  232  1  0.75358950  0.21540400  0.11965200  1
  C  233  1  0.73936050  0.22419350  0.10902250  1
  C  234  1  0.62567100  0.27510600  0.11741800  1
  C  235  1  0.65059000  0.26540300  0.10781400  1
  C  236  1  0.73189300  0.24413700  0.03665700  1
  C  237  1  0.74264650  0.24422750  0.01562550  1
  C  241  1  0.00376450  0.24522250  0.49353250  1
  C  242  1  0.02410950  0.20330850  0.35897950  1
  C  243  1  0.11855350  0.28359400  0.35497900  1
  C  244  1  0.02244350  0.21086850  0.33718150  1
  C  245  1  0.01562700  0.19877550  0.32674750  1
  C  246  1  0.01037300  0.17891800  0.33787700  1
  C  247  1  0.01211700  0.17146100  0.35963400  1
  C  248  1  0.01886350  0.18351500  0.37014800  1
  C  249  1  0.98034350  0.23997250  0.50661250  1
  C  250  1  0.96873050  0.23978200  0.53138200  1
  C  251  1  0.98035500  0.24456700  0.54358200  1
  C  252  1  0.00362750  0.25010750  0.53032950  1
  C  253  1  0.01528000  0.25036900  0.50558000  1
  C  254  1  0.11553400  0.30327850  0.36423650  1
  C  255  1  0.13464050  0.31345250  0.35174050  1
  C  256  1  0.15714200  0.30416700  0.32978300  1
  C  257  1  0.16005050  0.28445800  0.32068400  1
  C  258  1  0.14096650  0.27425100  0.33309100  1
  C  270  1  0.06733950  0.25563450  0.38889750  1
  C  271  1  0.05497400  0.25584350  0.41375650  1
  C  272  1  0.03614800  0.24534150  0.42655850  1
  C  273  1  0.02972000  0.23457400  0.41435500  1
  C  274  1  0.04196000  0.23427850  0.38950150  1
  C  275  1  0.06077550  0.24481750  0.37684450  1
  C  280  1  0.10091250  0.27407300  0.36654900  1
  C  281  1  0.08484350  0.26528350  0.37716650  1
  C  282  1  0.03041550  0.21438300  0.36881100  1
  C  283  1  0.03604400  0.22408550  0.37840050  1
  C  284  1  0.02488200  0.24542750  0.44954050  1
  C  285  1  0.01467150  0.24537350  0.47057150  1
  C  289  1  0.00408900  0.99442200  0.24351100  1
  C  290  1  0.88981800  0.12896750  0.20170950  1
  C  291  1  0.98024650  0.13298800  0.28200700  1
  C  292  1  0.86635100  0.15077850  0.20925350  1
  C  293  1  0.84912400  0.16120050  0.19714350  1
  C  294  1  0.85502350  0.15004850  0.17728650  1
  C  295  1  0.87852350  0.12828000  0.16984800  1
  C  296  1  0.89576300  0.11777650  0.18191850  1
  C  297  1  0.99373600  0.98134150  0.23827550  1
  C  298  1  0.00692150  0.95656800  0.23804400  1
  C  299  1  0.03078700  0.94436750  0.24276950  1
  C  300  1  0.04081600  0.95762200  0.24829900  1
  C  301  1  0.02769050  0.98237400  0.24860300  1
  C  302  1  0.98649700  0.12373350  0.30167950  1
  C  303  1  0.99312200  0.13622700  0.31184500  1
  C  304  1  0.99366900  0.15818250  0.30256150  1
  C  305  1  0.98746350  0.16727950  0.28286650  1
  C  306  1  0.98077350  0.15487400  0.27266700  1
  C  318  1  0.96294000  0.09906900  0.25404700  1
  C  319  1  0.97545050  0.07420650  0.25423450  1
  C  320  1  0.96943500  0.06140300  0.24372100  1
  C  321  1  0.95079650  0.07360800  0.23296500  1
  C  322  1  0.93816800  0.09846450  0.23268950  1
  C  323  1  0.94431800  0.11112250  0.24324050  1
  C  328  1  0.97416700  0.12141850  0.27249150  1
  C  329  1  0.96871150  0.11080100  0.26370100  1
  C  330  1  0.90593850  0.11915000  0.21279600  1
  C  331  1  0.92115050  0.10956500  0.22250100  1
  C  332  1  0.98117000  0.03841900  0.24378200  1
  C  333  1  0.99201000  0.01738500  0.24369900  1
  C  337  1  0.25415900  0.49523250  0.24275850  1
  C  338  1  0.23261750  0.36065200  0.28466200  1
  C  339  1  0.40732450  0.35662300  0.20437200  1
  C  340  1  0.23853550  0.33884300  0.27709300  1
  C  341  1  0.21964650  0.32839400  0.28918300  1
  C  342  1  0.19453000  0.33951850  0.30904750  1
  C  343  1  0.18879300  0.36128500  0.31651300  1
  C  344  1  0.20757400  0.37181550  0.30446150  1
  C  345  1  0.22548250  0.50832250  0.24802450  1
  C  346  1  0.21368650  0.53309500  0.24820500  1
  C  347  1  0.23010800  0.54529000  0.24339400  1
  C  348  1  0.25892650  0.53202650  0.23783850  1
  C  349  1  0.27083350  0.50727350  0.23758650  1
  C  350  1  0.42399800  0.36586300  0.18468900  1
  C  351  1  0.45328000  0.35334850  0.17450750  1
  C  352  1  0.46648950  0.33138700  0.18378800  1
  C  353  1  0.44968000  0.32230550  0.20349650  1
  C  354  1  0.42038700  0.33473300  0.21370900  1
  C  366  1  0.32814500  0.39057900  0.23234300  1
  C  367  1  0.31598700  0.41544000  0.23213800  1
  C  368  1  0.28665550  0.42824950  0.24264450  1
  C  369  1  0.26945950  0.41604950  0.25341050  1
  C  370  1  0.28140600  0.39119400  0.25370100  1
  C  371  1  0.31076450  0.37853100  0.24315800  1
  C  376  1  0.38016300  0.36820950  0.21389650  1
  C  377  1  0.35530150  0.37884050  0.22268950  1
  C  378  1  0.24998100  0.37049700  0.27359000  1
  C  379  1  0.26530050  0.38009400  0.26389200  1
  C  380  1  0.27547300  0.45123500  0.24256100  1
  C  381  1  0.26521100  0.47226850  0.24261350  1
  C  769  1  0.83089300  0.30712850  0.78506250  1
  C  770  1  0.83046350  0.29045650  0.80270650  1
  C  771  1  0.84579850  0.26820000  0.79230000  1
  C  773  1  0.84636950  0.29546600  0.76345200  1
  C  774  1  0.85210600  0.30667900  0.74107900  1
  C  775  1  0.86879200  0.29471750  0.71913550  1
  C  777  1  0.89681250  0.26605850  0.69206750  1
  C  778  1  0.89257850  0.28760750  0.68028350  1
  C  779  1  0.87519000  0.30525550  0.69694850  1
  C  780  1  0.91388800  0.24346350  0.68141350  1
  C  781  1  0.91818100  0.22176650  0.69389850  1
  C  783  1  0.91716950  0.19450100  0.72274400  1
  C  784  1  0.93494400  0.18283750  0.70113250  1
  C  785  1  0.93550350  0.19951050  0.68348950  1
  C  786  1  0.91178850  0.18328950  0.74511750  1
  C  787  1  0.89455250  0.19525150  0.76706050  1
  C  789  1  0.86684700  0.22391050  0.79413050  1
  C  790  1  0.87238950  0.20236000  0.80591300  1
  C  791  1  0.88932150  0.18471300  0.78924700  1
  C  792  1  0.85070100  0.24650350  0.80478550  1
  C  793  1  0.84053700  0.24737100  0.82969000  1
  C  794  1  0.81569550  0.24478100  0.84502300  1
  C  795  1  0.80637900  0.24511950  0.86958750  1
  C  796  1  0.82157400  0.24810350  0.87950750  1
  C  797  1  0.84641800  0.25075050  0.86389250  1
  C  798  1  0.85582200  0.25033300  0.83937900  1
  C  799  1  0.92636800  0.15833600  0.74569600  1
  C  800  1  0.91638200  0.14331150  0.74324050  1
  C  801  1  0.93060350  0.11870850  0.74462750  1
  C  802  1  0.95507950  0.10852050  0.74859550  1
  C  803  1  0.96500550  0.12376750  0.75083850  1
  C  804  1  0.95095400  0.14830150  0.74932150  1
  C  805  1  0.92951900  0.24259350  0.65651350  1
  C  806  1  0.95744600  0.23965200  0.64684500  1
  C  807  1  0.97300050  0.23921400  0.62233500  1
  C  808  1  0.96116600  0.24180850  0.60670250  1
  C  809  1  0.93307650  0.24477100  0.61660100  1
  C  810  1  0.91745950  0.24513500  0.64116400  1
  C  811  1  0.84232000  0.33163400  0.74049500  1
  C  812  1  0.86050450  0.34166100  0.73686600  1
  C  813  1  0.81486100  0.34666200  0.74293500  1
  C  814  1  0.80588100  0.37126300  0.74152600  1
  C  815  1  0.82414850  0.38144450  0.73754550  1
  C  816  1  0.85155350  0.36619350  0.73532950  1
  C  843  1  0.96899000  0.08441200  0.75120500  1
  C  844  1  0.97732200  0.24150700  0.58251000  1
  C  845  1  0.81657750  0.40555050  0.73490850  1
  C  846  1  0.81323150  0.24837700  0.90370400  1
  C  933  1  0.14321650  0.78678400  0.18083800  1
  C  934  1  0.12610850  0.80443450  0.19751450  1
  C  935  1  0.11915150  0.79403200  0.21976200  1
  C  937  1  0.14697800  0.76517650  0.19248850  1
  C  938  1  0.16391250  0.74279650  0.18126850  1
  C  939  1  0.16862700  0.72085550  0.19322150  1
  C  941  1  0.16800800  0.69379000  0.22186800  1
  C  942  1  0.18530350  0.68200000  0.20031700  1
  C  943  1  0.18555250  0.69866050  0.18267650  1
  C  944  1  0.16251050  0.68314250  0.24445650  1
  C  945  1  0.14516450  0.69563650  0.26615550  1
  C  947  1  0.11689300  0.72449250  0.29342850  1
  C  948  1  0.12307650  0.70288500  0.30507900  1
  C  949  1  0.14029100  0.68523400  0.28840300  1
  C  950  1  0.10024700  0.74687100  0.30464800  1
  C  951  1  0.09496850  0.76881150  0.29269350  1
  C  953  1  0.09590300  0.79587550  0.26404950  1
  C  954  1  0.07984050  0.80766850  0.28559850  1
  C  955  1  0.07914400  0.79100550  0.30323950  1
  C  956  1  0.10233950  0.80652550  0.24146150  1
  C  957  1  0.09304300  0.83143150  0.24060350  1
  C  958  1  0.06563500  0.84676650  0.24312850  1
  C  959  1  0.05665600  0.87133450  0.24278950  1
  C  960  1  0.07481500  0.88125200  0.23986500  1
  C  961  1  0.10228450  0.86563300  0.23728200  1
  C  962  1  0.11126950  0.84111750  0.23770050  1
  C  963  1  0.08986250  0.74746350  0.32960050  1
  C  964  1  0.06486800  0.74498500  0.34461900  1
  C  965  1  0.05447050  0.74639050  0.36921950  1
  C  966  1  0.06871850  0.75041700  0.37941000  1
  C  967  1  0.09387800  0.75268200  0.36416900  1
  C  968  1  0.10438600  0.75112900  0.33963700  1
  C  969  1  0.17729450  0.65824000  0.24531300  1
  C  970  1  0.20230450  0.64858000  0.24821500  1
  C  971  1  0.21743050  0.62406950  0.24865050  1
  C  972  1  0.20818200  0.60842450  0.24608650  1
  C  973  1  0.18303550  0.61831550  0.24315850  1
  C  974  1  0.16776850  0.64288000  0.24280200  1
  C  975  1  0.17908800  0.74220900  0.15631800  1
  C  976  1  0.20731250  0.73854300  0.14628900  1
  C  977  1  0.16663050  0.74472150  0.14129050  1
  C  978  1  0.18224200  0.74333550  0.11669050  1
  C  979  1  0.21070050  0.73932600  0.10650700  1
  C  980  1  0.22288300  0.73703250  0.12175750  1
  C  1007  1  0.05848550  0.75307300  0.40351400  1
  C  1008  1  0.22404900  0.58423100  0.24638200  1
  C  1009  1  0.22722000  0.73672700  0.08239700  1
  C  1010  1  0.06674700  0.90545100  0.23958100  1
  H  19  1  0.45968750  0.65811850  0.86844750  1
  H  20  1  0.40978600  0.67855500  0.88629300  1
  H  21  1  0.46330650  0.70543150  0.81126050  1
  H  22  1  0.21002650  0.75732250  0.99889950  1
  H  23  1  0.29055650  0.73460500  0.99565100  1
  H  24  1  0.27147550  0.73418450  0.03753150  1
  H  25  1  0.19104500  0.75663250  0.04104250  1
  H  26  1  0.20379600  0.81122800  0.87940800  1
  H  27  1  0.23572250  0.77817700  0.80408600  1
  H  28  1  0.26432700  0.76074200  0.82532800  1
  H  29  1  0.17541150  0.82852150  0.85799850  1
  H  36  1  0.32639350  0.72765850  0.92371750  1
  H  37  1  0.24726000  0.76440650  0.92217250  1
  H  38  1  0.32046600  0.74529300  0.85861800  1
  H  39  1  0.41334650  0.72602050  0.82893350  1
  H  67  1  0.99828300  0.83188550  0.61747050  1
  H  68  1  0.98666600  0.81145000  0.59962100  1
  H  69  1  0.99202700  0.78457000  0.67465400  1
  H  70  1  0.97837700  0.73252150  0.48703450  1
  H  71  1  0.03284300  0.75537450  0.49025950  1
  H  72  1  0.05526050  0.75573300  0.44837800  1
  H  73  1  0.00088600  0.73314850  0.44488950  1
  H  74  1  0.90646100  0.67877250  0.60651950  1
  H  75  1  0.83001250  0.71182150  0.68184250  1
  H  76  1  0.86242050  0.72925850  0.66060150  1
  H  77  1  0.87396450  0.66147650  0.62792750  1
  H  84  1  0.98981350  0.76232300  0.56219600  1
  H  85  1  0.94587800  0.72557400  0.56375600  1
  H  86  1  0.93639750  0.74472050  0.62730350  1
  H  87  1  0.98032800  0.76398350  0.65698050  1
  H  115  1  0.12276750  0.87050800  0.82988400  1
  H  116  1  0.09330900  0.88833500  0.80944600  1
  H  117  1  0.17372950  0.81328100  0.78258100  1
  H  118  1  0.97234600  0.00089100  0.73068000  1
  H  119  1  0.03018100  0.99765650  0.75335950  1
  H  120  1  0.01069200  0.03954200  0.75376000  1
  H  121  1  0.95268650  0.04303900  0.73135000  1
  H  122  1  0.02001800  0.88139350  0.67679150  1
  H  123  1  0.01890100  0.80606700  0.70978600  1
  H  124  1  0.03007050  0.82730200  0.72723600  1
  H  125  1  0.00892800  0.85999100  0.65948200  1
  H  132  1  0.05904350  0.92572150  0.76034350  1
  H  133  1  0.01666800  0.92415200  0.72360000  1
  H  134  1  0.07075400  0.86060150  0.74271750  1
  H  135  1  0.14436600  0.83093400  0.76199100  1
  H  163  1  0.83520600  0.61948050  0.65604150  1
  H  164  1  0.80314500  0.60164600  0.67648000  1
  H  165  1  0.78163000  0.67670400  0.70334900  1
  H  166  1  0.71591900  0.48910200  0.75536400  1
  H  167  1  0.79323150  0.49230650  0.73260050  1
  H  168  1  0.81600350  0.45042300  0.73224300  1
  H  169  1  0.73905400  0.44695150  0.75473950  1
  H  170  1  0.59024750  0.60860250  0.80913850  1
  H  171  1  0.54681450  0.68392750  0.77613450  1
  H  172  1  0.59666700  0.66268850  0.75868850  1
  H  173  1  0.54044800  0.63000900  0.82644200  1
  H  180  1  0.75715800  0.56425200  0.72560500  1
  H  181  1  0.67646400  0.56583400  0.76235000  1
  H  182  1  0.68612950  0.62937800  0.74320600  1
  H  183  1  0.74933750  0.65904350  0.72393850  1
  H  211  1  0.54567550  0.33239250  0.11824950  1
  H  212  1  0.59556550  0.31188400  0.10028600  1
  H  213  1  0.54214950  0.28498700  0.17536100  1
  H  214  1  0.79511400  0.23529250  0.98963450  1
  H  215  1  0.71809000  0.25333800  0.98788400  1
  H  216  1  0.74014550  0.25377150  0.94571750  1
  H  217  1  0.81693300  0.23555000  0.94763500  1
  H  218  1  0.80205850  0.17907100  0.10614400  1
  H  219  1  0.77032950  0.21217400  0.18138300  1
  H  220  1  0.74161350  0.22955300  0.16024200  1
  H  221  1  0.83055750  0.16183100  0.12745500  1
  H  228  1  0.67862300  0.26268050  0.06258550  1
  H  229  1  0.75802900  0.22588250  0.06360150  1
  H  230  1  0.68519250  0.24488750  0.12742850  1
  H  231  1  0.59209950  0.26432500  0.15756900  1
  H  259  1  0.00844900  0.15713200  0.36804600  1
  H  260  1  0.01992900  0.17762050  0.38597150  1
  H  261  1  0.01461150  0.20452700  0.31092600  1
  H  262  1  0.03214700  0.25441900  0.49654900  1
  H  263  1  0.97149250  0.23625650  0.49832450  1
  H  264  1  0.95176700  0.23590700  0.54049100  1
  H  265  1  0.01217500  0.25424650  0.53854950  1
  H  266  1  0.09950000  0.31039900  0.38010600  1
  H  267  1  0.17615300  0.27736450  0.30485950  1
  H  268  1  0.14369650  0.25995700  0.32596100  1
  H  269  1  0.13204700  0.32766700  0.35883600  1
  H  276  1  0.01609450  0.22685750  0.42362550  1
  H  277  1  0.05974450  0.26364200  0.42258500  1
  H  278  1  0.06978250  0.24456900  0.35877000  1
  H  279  1  0.02617350  0.22516700  0.32867700  1
  H  307  1  0.88328600  0.11985150  0.15551950  1
  H  308  1  0.91265400  0.10194500  0.17603500  1
  H  309  1  0.83228750  0.17703100  0.20288000  1
  H  310  1  0.03553700  0.99140500  0.25264100  1
  H  311  1  0.97656800  0.98962950  0.23460050  1
  H  312  1  0.99905800  0.94745700  0.23418000  1
  H  313  1  0.05761500  0.94939850  0.25239650  1
  H  314  1  0.98633350  0.10786400  0.30879700  1
  H  315  1  0.98774550  0.18310000  0.27577400  1
  H  316  1  0.97636400  0.16200250  0.25838250  1
  H  317  1  0.99763450  0.12913250  0.32605050  1
  H  324  1  0.94645000  0.06433700  0.22523800  1
  H  325  1  0.98905600  0.06537700  0.26202300  1
  H  326  1  0.93524150  0.12919950  0.24300550  1
  H  327  1  0.86156150  0.15929800  0.22354900  1
  H  355  1  0.17079250  0.36969450  0.33084650  1
  H  356  1  0.20272750  0.38764550  0.31036350  1
  H  357  1  0.22439850  0.31256500  0.28342600  1
  H  358  1  0.29175500  0.49823550  0.23352450  1
  H  359  1  0.21290500  0.50004050  0.25175850  1
  H  360  1  0.19284250  0.54221250  0.25209050  1
  H  361  1  0.27162250  0.54024050  0.23368050  1
  H  362  1  0.41509150  0.38173400  0.17757000  1
  H  363  1  0.45868250  0.30647950  0.21058550  1
  H  364  1  0.40881700  0.32761450  0.22800250  1
  H  365  1  0.46490800  0.36043150  0.16029350  1
  H  372  1  0.24811500  0.42532600  0.26113000  1
  H  373  1  0.32855600  0.42426700  0.22434000  1
  H  374  1  0.31952500  0.36045350  0.24340350  1
  H  375  1  0.25656700  0.33034250  0.26278950  1
  H  817  1  0.86546300  0.37279700  0.73238200  1
  H  818  1  0.88054550  0.33114650  0.73495750  1
  H  819  1  0.78602350  0.38164050  0.74293350  1
  H  820  1  0.80137050  0.33977350  0.74543250  1
  H  821  1  0.82161300  0.32485650  0.78787050  1
  H  822  1  0.82076500  0.29427700  0.82024300  1
  H  823  1  0.86550750  0.25997150  0.75723750  1
  H  824  1  0.89465600  0.22999750  0.72896350  1
  H  825  1  0.86879850  0.32282850  0.69320250  1
  H  826  1  0.90078550  0.29034950  0.66253550  1
  H  827  1  0.96663150  0.23789900  0.65759300  1
  H  828  1  0.99317750  0.23709900  0.61603500  1
  H  829  1  0.89719100  0.24740800  0.64778100  1
  H  830  1  0.92360950  0.24676100  0.60602700  1
  H  831  1  0.94718600  0.19569200  0.66595400  1
  H  832  1  0.94625900  0.16511350  0.69832550  1
  H  833  1  0.86563150  0.19961650  0.82365850  1
  H  834  1  0.89678650  0.16714050  0.79299250  1
  H  835  1  0.89850150  0.15020400  0.74074100  1
  H  836  1  0.92253700  0.10833500  0.74320100  1
  H  837  1  0.95856850  0.15881300  0.75124100  1
  H  838  1  0.98257850  0.11715900  0.75377600  1
  H  839  1  0.87398350  0.25212100  0.82864500  1
  H  840  1  0.85815750  0.25288050  0.87020750  1
  H  841  1  0.78834900  0.24309050  0.88015050  1
  H  842  1  0.80434350  0.24248400  0.83839200  1
  H  847  1  0.98067300  0.07901450  0.76006550  1
  H  848  1  0.99706350  0.23881000  0.57692100  1
  H  849  1  0.83173600  0.41093500  0.72605600  1
  H  850  1  0.82464050  0.25112700  0.90930800  1
  H  981  1  0.24340350  0.73406650  0.11515250  1
  H  982  1  0.21685550  0.73658900  0.15680300  1
  H  983  1  0.17273800  0.74480000  0.10631400  1
  H  984  1  0.14624200  0.74724550  0.14817750  1
  H  985  1  0.15169650  0.78958900  0.16311500  1
  H  986  1  0.12027700  0.82196950  0.19370150  1
  H  987  1  0.13055900  0.75897150  0.22797550  1
  H  988  1  0.12972250  0.73069650  0.25794250  1
  H  989  1  0.19672100  0.69491050  0.16510350  1
  H  990  1  0.19624300  0.66424850  0.19756750  1
  H  991  1  0.20973950  0.65933550  0.24995150  1
  H  992  1  0.23550800  0.61777400  0.25074000  1
  H  993  1  0.14975800  0.64948900  0.24055500  1
  H  994  1  0.17555350  0.60773250  0.24118950  1
  H  995  1  0.14815600  0.66769800  0.29221600  1
  H  996  1  0.11664900  0.70008150  0.32280150  1
  H  997  1  0.07026100  0.82542050  0.28834850  1
  H  998  1  0.06895200  0.79475850  0.32081250  1
  H  999  1  0.05389850  0.74245900  0.33772400  1
  H  1000  1  0.03602850  0.74496800  0.37958800  1
  H  1001  1  0.12249200  0.75308000  0.32913000  1
  H  1002  1  0.10481050  0.75566300  0.37078000  1
  H  1003  1  0.13120200  0.83038150  0.23595850  1
  H  1004  1  0.11613750  0.87194850  0.23519450  1
  H  1005  1  0.03661550  0.88189950  0.24476850  1
  H  1006  1  0.05200250  0.84013600  0.24538000  1
  H  1011  1  0.06472600  0.76198050  0.40890750  1
  H  1012  1  0.24112450  0.57864950  0.24902950  1
  H  1013  1  0.24776550  0.72786050  0.07699250  1
  H  1014  1  0.08090700  0.91105550  0.23682650  1
  N  46  1  0.49367550  0.66754200  0.82939700  1
  N  47  1  0.18813400  0.81364500  0.81632200  1
  N  48  1  0.21719050  0.74532950  0.06692350  1
  N  94  1  0.00264200  0.82246000  0.65652200  1
  N  95  1  0.83013500  0.67634900  0.66960600  1
  N  96  1  0.04159300  0.74446950  0.41899850  1
  N  142  1  0.16618800  0.83144900  0.82046700  1
  N  143  1  0.00678150  0.81831150  0.67432450  1
  N  144  1  0.96755200  0.06892900  0.74262000  1
  N  190  1  0.83014200  0.65854250  0.66546050  1
  N  191  1  0.51147150  0.67168800  0.81159500  1
  N  192  1  0.79107650  0.42104650  0.74346050  1
  N  238  1  0.51173550  0.32293600  0.15731000  1
  N  239  1  0.81791750  0.17671100  0.16910500  1
  N  240  1  0.79135050  0.24557250  0.91916350  1
  N  286  1  0.00405950  0.16659850  0.32900750  1
  N  287  1  0.17595100  0.31282950  0.31718550  1
  N  288  1  0.96814900  0.24421700  0.56703600  1
  N  334  1  0.83986650  0.15890850  0.16494750  1
  N  335  1  0.99989600  0.17077750  0.31121550  1
  N  336  1  0.04206050  0.92091150  0.24238550  1
  N  382  1  0.17591500  0.33063450  0.32136550  1
  N  383  1  0.49396150  0.31877200  0.17511900  1
  N  384  1  0.21755750  0.56874700  0.24373200  1
  N  772  1  0.85447350  0.27223800  0.76881700  1
  N  776  1  0.88208150  0.27125800  0.71526500  1
  N  782  1  0.90740200  0.21772850  0.71737950  1
  N  788  1  0.88051300  0.21871100  0.77093300  1
  N  936  1  0.13184050  0.77054850  0.21571650  1
  N  940  1  0.15848750  0.71698950  0.21667750  1
  N  946  1  0.13033750  0.71912000  0.27020200  1
  N  952  1  0.10440550  0.77267600  0.26924000  1
