# generated using pymatgen
data_H12C11N
_symmetry_space_group_name_H-M   'P 1'
_cell_length_a   10.01140000
_cell_length_b   29.19485000
_cell_length_c   29.19480000
_cell_angle_alpha   119.99983004
_cell_angle_beta   90.00000000
_cell_angle_gamma   90.00000000
_symmetry_Int_Tables_number   1
_chemical_formula_structural   H12C11N
_chemical_formula_sum   'H72 C66 N6'
_cell_volume   7389.88945551
_cell_formula_units_Z   6
loop_
 _symmetry_equiv_pos_site_id
 _symmetry_equiv_pos_as_xyz
  1  'x, y, z'
loop_
 _atom_site_type_symbol
 _atom_site_label
 _atom_site_symmetry_multiplicity
 _atom_site_fract_x
 _atom_site_fract_y
 _atom_site_fract_z
 _atom_site_occupancy
  C  1  1  0.90809300  0.62431800  0.28091000  1
  C  2  1  0.90797800  0.61544600  0.32422200  1
  C  3  1  0.90808700  0.65802500  0.37682800  1
  C  4  1  0.90798300  0.71021100  0.38570100  1
  C  5  1  0.90809700  0.72023700  0.34311900  1
  C  6  1  0.90796700  0.67692300  0.29093400  1
  C  10  1  0.90964100  0.57970000  0.22557700  1
  C  13  1  0.90963700  0.77556900  0.35383300  1
  C  16  1  0.90960200  0.64731200  0.42144700  1
  C  19  1  0.93691500  0.36187300  0.72338600  1
  C  20  1  0.93691600  0.38955200  0.69517200  1
  C  21  1  0.93687600  0.36293200  0.63927200  1
  C  22  1  0.93691400  0.30703900  0.61159400  1
  C  23  1  0.93690700  0.27775700  0.63821200  1
  C  24  1  0.93695000  0.30597400  0.69410600  1
  C  28  1  0.93638600  0.39310900  0.78235200  1
  C  31  1  0.93638600  0.21879300  0.61048400  1
  C  34  1  0.93631100  0.39066100  0.60803500  1
  C  37  1  0.03764200  0.54710900  0.14401800  1
  C  38  1  0.02482100  0.49173400  0.11846500  1
  C  39  1  0.01587500  0.46071700  0.06285000  1
  C  40  1  0.02285300  0.48641100  0.03221100  1
  C  41  1  0.04095200  0.54234900  0.05758000  1
  C  42  1  0.04767000  0.57174100  0.11336800  1
  C  44  1  0.00462900  0.45641600  0.97645200  1
  C  45  1  0.87426700  0.45178000  0.95467400  1
  C  46  1  0.85769600  0.42099100  0.89933200  1
  C  47  1  0.96570800  0.39402200  0.86567900  1
  C  48  1  0.09312900  0.39853600  0.88767000  1
  C  49  1  0.11547300  0.43000600  0.94266200  1
  C  53  1  0.75138200  0.47708900  0.98619300  1
  C  57  1  0.25566300  0.43296500  0.96121200  1
  C  61  1  0.05100600  0.57293900  0.02934100  1
  C  65  1  0.99699600  0.40271600  0.04056400  1
  C  73  1  0.03756200  0.59834600  0.45404900  1
  C  74  1  0.02467600  0.62816400  0.50942100  1
  C  75  1  0.01565800  0.60356200  0.54043200  1
  C  76  1  0.02267800  0.54723000  0.51474100  1
  C  77  1  0.04082700  0.51666400  0.45880700  1
  C  78  1  0.04753200  0.54306100  0.42941600  1
  C  80  1  0.00447000  0.52146100  0.54473100  1
  C  81  1  0.87412200  0.50430700  0.54936300  1
  C  82  1  0.85755700  0.47977400  0.58017100  1
  C  83  1  0.96558400  0.47307700  0.60712500  1
  C  84  1  0.09300000  0.49055700  0.60260800  1
  C  85  1  0.11532300  0.51409100  0.57114600  1
  C  89  1  0.75123600  0.51049600  0.52404100  1
  C  93  1  0.25549900  0.52970500  0.56820000  1
  C  97  1  0.05091600  0.45783700  0.42821500  1
  C  101  1  0.99678200  0.63927800  0.59843600  1
  C  109  1  0.03765100  0.85712600  0.40278800  1
  C  110  1  0.02478200  0.88268300  0.37297200  1
  C  111  1  0.01582700  0.93829700  0.39757400  1
  C  112  1  0.02285300  0.96893400  0.45390800  1
  C  113  1  0.04100300  0.94356200  0.48447000  1
  C  114  1  0.04772100  0.88777400  0.45806800  1
  C  116  1  0.00462000  0.02469400  0.47967600  1
  C  117  1  0.87426600  0.04647100  0.49683700  1
  C  118  1  0.85768100  0.10181200  0.52139500  1
  C  119  1  0.96567400  0.13546800  0.52806600  1
  C  120  1  0.09308900  0.11347900  0.51056900  1
  C  121  1  0.11544700  0.05848900  0.48704600  1
  C  125  1  0.75139100  0.01494800  0.49064300  1
  C  129  1  0.25563300  0.03994000  0.47143200  1
  C  133  1  0.05110600  0.97179600  0.54329700  1
  C  137  1  0.99689300  0.96058400  0.36186300  1
  H  7  1  0.90870700  0.74142100  0.42365000  1
  H  8  1  0.90872600  0.68366800  0.25972500  1
  H  9  1  0.90869800  0.57749400  0.31748000  1
  H  11  1  0.82530800  0.58482800  0.20467700  1
  H  12  1  0.89570200  0.54177200  0.22406100  1
  H  14  1  0.82531700  0.79647000  0.37986800  1
  H  15  1  0.89567200  0.77708500  0.31742300  1
  H  17  1  0.82526200  0.62128700  0.41631300  1
  H  18  1  0.89565300  0.68372300  0.45937300  1
  H  25  1  0.93747600  0.28763000  0.57119200  1
  H  26  1  0.93754600  0.28498000  0.71351700  1
  H  27  1  0.93748600  0.42995400  0.71616400  1
  H  29  1  0.84391600  0.41618900  0.79494100  1
  H  30  1  0.02014700  0.42089300  0.79437500  1
  H  32  1  0.84393100  0.20620100  0.62098600  1
  H  33  1  0.02016700  0.20676900  0.62623300  1
  H  35  1  0.84383200  0.38016500  0.58495600  1
  H  36  1  0.02006200  0.37490600  0.58024800  1
  H  43  1  0.05749400  0.61205500  0.13232100  1
  H  50  1  0.76495600  0.41715500  0.88297800  1
  H  51  1  0.17132500  0.37907700  0.86282100  1
  H  52  1  0.01842900  0.47406700  0.14111600  1
  H  54  1  0.76856700  0.49994800  0.02867800  1
  H  55  1  0.67763100  0.44668900  0.97913600  1
  H  56  1  0.70879600  0.50378500  0.97403000  1
  H  58  1  0.26785000  0.45839000  0.00375100  1
  H  59  1  0.32042800  0.44839100  0.94196300  1
  H  60  1  0.29016400  0.39346000  0.95085300  1
  H  62  1  0.96861000  0.60112200  0.04132300  1
  H  63  1  0.04791500  0.54837800  0.98642800  1
  H  64  1  0.14504900  0.59479800  0.03961100  1
  H  66  1  0.08120100  0.38669300  0.05184800  1
  H  67  1  0.98965100  0.38046000  0.99760700  1
  H  68  1  0.90543100  0.39562200  0.05639100  1
  H  70  1  0.86955800  0.33787700  0.80253700  1
  H  72  1  0.11480400  0.56791600  0.21511400  1
  H  79  1  0.05745000  0.52170100  0.38910300  1
  H  86  1  0.76484100  0.46721900  0.58397900  1
  H  87  1  0.17119800  0.48518600  0.62207600  1
  H  88  1  0.01829400  0.66848000  0.52709000  1
  H  90  1  0.76841700  0.53010400  0.50116700  1
  H  91  1  0.67747200  0.53384100  0.55443200  1
  H  92  1  0.70867100  0.47162600  0.49735100  1
  H  94  1  0.26767000  0.54683000  0.54278600  1
  H  95  1  0.32029000  0.49503700  0.55277000  1
  H  96  1  0.28997900  0.55884900  0.60771100  1
  H  98  1  0.96854400  0.44162500  0.40002300  1
  H  99  1  0.04781900  0.43948300  0.45277500  1
  H  100  1  0.14497000  0.44625700  0.40636800  1
  H  102  1  0.08100400  0.66657300  0.61446200  1
  H  103  1  0.98939400  0.61857100  0.62068600  1
  H  104  1  0.90524000  0.66220500  0.60552600  1
  H  106  1  0.86945700  0.46607500  0.66327300  1
  H  108  1  0.11475400  0.64863400  0.43324700  1
  H  115  1  0.05758000  0.86882000  0.47942900  1
  H  122  1  0.76494200  0.11816300  0.53392500  1
  H  123  1  0.17127800  0.13832900  0.51595100  1
  H  124  1  0.01835500  0.86003300  0.33265500  1
  H  126  1  0.76858700  0.97246200  0.47101000  1
  H  127  1  0.67761000  0.02200500  0.46730800  1
  H  128  1  0.70884600  0.02711000  0.52951000  1
  H  130  1  0.26782900  0.99739800  0.45431400  1
  H  131  1  0.32042300  0.05918900  0.50610200  1
  H  132  1  0.29009300  0.05030200  0.44228500  1
  H  134  1  0.96874000  0.95981500  0.55951200  1
  H  135  1  0.04801500  0.01471300  0.56165600  1
  H  136  1  0.14516900  0.96152700  0.55487200  1
  H  138  1  0.08107200  0.94930400  0.33454500  1
  H  139  1  0.98954400  0.00354600  0.38257200  1
  H  140  1  0.90531000  0.94476000  0.33895700  1
  H  142  1  0.86949200  0.19860900  0.53507400  1
  H  144  1  0.11479400  0.78603000  0.35248800  1
  N  69  1  0.95020000  0.36246600  0.81025300  1
  N  71  1  0.03776100  0.57923600  0.19966200  1
  N  105  1  0.95010100  0.44920900  0.63868000  1
  N  107  1  0.03771100  0.62186000  0.42192100  1
  N  141  1  0.95015900  0.19088800  0.55193400  1
  N  143  1  0.03777100  0.80148200  0.37927100  1
