# generated using pymatgen
data_LiH2(C2O)2
_symmetry_space_group_name_H-M   'P 1'
_cell_length_a   9.65547000
_cell_length_b   9.65534000
_cell_length_c   12.89429000
_cell_angle_alpha   90.07555000
_cell_angle_beta   90.07605000
_cell_angle_gamma   85.40271000
_symmetry_Int_Tables_number   1
_chemical_formula_structural   LiH2(C2O)2
_chemical_formula_sum   'Li8 H16 C32 O16'
_cell_volume   1198.22451051
_cell_formula_units_Z   8
loop_
 _symmetry_equiv_pos_site_id
 _symmetry_equiv_pos_as_xyz
  1  'x, y, z'
loop_
 _atom_site_type_symbol
 _atom_site_label
 _atom_site_symmetry_multiplicity
 _atom_site_fract_x
 _atom_site_fract_y
 _atom_site_fract_z
 _atom_site_occupancy
  Li  Li1  1  0.87615000  0.04563000  0.09936000  1.0
  Li  Li2  1  0.12454000  0.95487000  0.59809000  1.0
  Li  Li3  1  0.04512000  0.87545000  0.40191000  1.0
  Li  Li4  1  0.95437000  0.12385000  0.90064000  1.0
  Li  Li5  1  0.06908000  0.06988000  0.25096000  1.0
  Li  Li6  1  0.93012000  0.93091000  0.74904000  1.0
  Li  Li7  1  0.25750000  0.25779000  0.24957000  1.0
  Li  Li8  1  0.74220000  0.74250000  0.75042000  1.0
  H  H1  1  0.63895000  0.00440000  0.65610000  1.0
  H  H2  1  0.82401000  0.01962000  0.52572000  1.0
  H  H3  1  0.51878000  0.06153000  0.28322000  1.0
  H  H4  1  0.39161000  0.00407000  0.60045000  1.0
  H  H5  1  0.35949000  0.99551000  0.15537000  1.0
  H  H6  1  0.17529000  0.98009000  0.02419000  1.0
  H  H7  1  0.48165000  0.93858000  0.78293000  1.0
  H  H8  1  0.60723000  0.99612000  0.10094000  1.0
  H  H9  1  0.00449000  0.64051000  0.84463000  1.0
  H  H10  1  0.01990000  0.82471000  0.97581000  1.0
  H  H11  1  0.06141000  0.51835000  0.21706000  1.0
  H  H12  1  0.00388000  0.39278000  0.89906000  1.0
  H  H13  1  0.99559000  0.36104000  0.34390000  1.0
  H  H14  1  0.98038000  0.17597000  0.47428000  1.0
  H  H15  1  0.93846000  0.48121000  0.71678000  1.0
  H  H16  1  0.99593000  0.60838000  0.39954000  1.0
  C  C1  1  0.61166000  0.01299000  0.57421000  1.0
  C  C2  1  0.71642000  0.02300000  0.50059000  1.0
  C  C3  1  0.68339000  0.04003000  0.39515000  1.0
  C  C4  1  0.54360000  0.04778000  0.36497000  1.0
  C  C5  1  0.43825000  0.03374000  0.43821000  1.0
  C  C6  1  0.47299000  0.01549000  0.54344000  1.0
  C  C7  1  0.79675000  0.05090000  0.31602000  1.0
  C  C8  1  0.29038000  0.03444000  0.40453000  1.0
  C  C9  1  0.38742000  0.98690000  0.07363000  1.0
  C  C10  1  0.28295000  0.97679000  0.99951000  1.0
  C  C11  1  0.31627000  0.95985000  0.89416000  1.0
  C  C12  1  0.45628000  0.95214000  0.86460000  1.0
  C  C13  1  0.56154000  0.96605000  0.93826000  1.0
  C  C14  1  0.52627000  0.98440000  0.04344000  1.0
  C  C15  1  0.20307000  0.94910000  0.81448000  1.0
  C  C16  1  0.70963000  0.96563000  0.90492000  1.0
  C  C17  1  0.01309000  0.61259000  0.92637000  1.0
  C  C18  1  0.02321000  0.71705000  0.00049000  1.0
  C  C19  1  0.04015000  0.68373000  0.10584000  1.0
  C  C20  1  0.04786000  0.54372000  0.13539000  1.0
  C  C21  1  0.03395000  0.43846000  0.06174000  1.0
  C  C22  1  0.01560000  0.47373000  0.95656000  1.0
  C  C23  1  0.05090000  0.79692000  0.18552000  1.0
  C  C24  1  0.03436000  0.29037000  0.09508000  1.0
  C  C25  1  0.98701000  0.38833000  0.42578000  1.0
  C  C26  1  0.97700000  0.28357000  0.49941000  1.0
  C  C27  1  0.95996000  0.31660000  0.60484000  1.0
  C  C28  1  0.95222000  0.45640000  0.63503000  1.0
  C  C29  1  0.96626000  0.56175000  0.56179000  1.0
  C  C30  1  0.98451000  0.52700000  0.45656000  1.0
  C  C31  1  0.94909000  0.20324000  0.68398000  1.0
  C  C32  1  0.96555000  0.70961000  0.59547000  1.0
  O  O1  1  0.76366000  0.07636000  0.22236000  1.0
  O  O2  1  0.92280000  0.03490000  0.34930000  1.0
  O  O3  1  0.25623000  0.09065000  0.31640000  1.0
  O  O4  1  0.20300000  0.97836000  0.46078000  1.0
  O  O5  1  0.23668000  0.92387000  0.72086000  1.0
  O  O6  1  0.07682000  0.96499000  0.84705000  1.0
  O  O7  1  0.74358000  0.91061000  0.81608000  1.0
  O  O8  1  0.79686000  0.02098000  0.96214000  1.0
  O  O9  1  0.07613000  0.76331000  0.27914000  1.0
  O  O10  1  0.03501000  0.92318000  0.15294000  1.0
  O  O11  1  0.08938000  0.25641000  0.18392000  1.0
  O  O12  1  0.97901000  0.20313000  0.03785000  1.0
  O  O13  1  0.92363000  0.23634000  0.77764000  1.0
  O  O14  1  0.96509000  0.07719000  0.65070000  1.0
  O  O15  1  0.90935000  0.74376000  0.68359000  1.0
  O  O16  1  0.02164000  0.79700000  0.53921000  1.0
