# generated using pymatgen
data_H19C36(NO)8
_symmetry_space_group_name_H-M   'P 1'
_cell_length_a   18.74640000
_cell_length_b   54.74790000
_cell_length_c   54.74790000
_cell_angle_alpha   60.00000000
_cell_angle_beta   89.99490000
_cell_angle_gamma   89.98980000
_symmetry_Int_Tables_number   1
_chemical_formula_structural   H19C36(NO)8
_chemical_formula_sum   'H114 C216 N48 O48'
_cell_volume   48661.26951536
_cell_formula_units_Z   6
loop_
 _symmetry_equiv_pos_site_id
 _symmetry_equiv_pos_as_xyz
  1  'x, y, z'
loop_
 _atom_site_type_symbol
 _atom_site_label
 _atom_site_symmetry_multiplicity
 _atom_site_fract_x
 _atom_site_fract_y
 _atom_site_fract_z
 _atom_site_occupancy
  C  1  1  0.98224800  0.01030800  0.45868000  1
  C  2  1  0.98057800  0.03937400  0.44336600  1
  C  3  1  0.97324800  0.04933350  0.46228100  1
  C  5  1  0.97564400  0.00193300  0.48724500  1
  C  6  1  0.97511100  0.97352900  0.50970450  1
  C  7  1  0.97112500  0.96498300  0.53874250  1
  C  9  1  0.96903900  0.96641050  0.57877850  1
  C  10  1  0.96657500  0.93811700  0.58583800  1
  C  11  1  0.96853700  0.93722800  0.56111250  1
  C  12  1  0.97075200  0.97669200  0.59794750  1
  C  13  1  0.97344600  0.00559450  0.59024450  1
  C  15  1  0.97540200  0.05299700  0.56527900  1
  C  16  1  0.98230600  0.04463000  0.59383150  1
  C  17  1  0.98088600  0.01556200  0.60914900  1
  C  18  1  0.97447500  0.08140200  0.54282300  1
  C  19  1  0.97029800  0.08993850  0.51379350  1
  C  21  1  0.96838300  0.08850650  0.47375950  1
  C  22  1  0.96565200  0.11679850  0.46669950  1
  C  23  1  0.96755600  0.11769050  0.49142350  1
  C  24  1  0.97036800  0.07822900  0.45458800  1
  C  25  1  0.96828100  0.09851650  0.42541350  1
  C  26  1  0.03044800  0.11320900  0.41093750  1
  C  27  1  0.02653400  0.13449650  0.38244750  1
  C  28  1  0.96045200  0.14120100  0.36810100  1
  C  29  1  0.89887500  0.12604050  0.38247950  1
  C  30  1  0.90256100  0.10490300  0.41094700  1
  C  31  1  0.98707100  0.10283900  0.54965800  1
  C  32  1  0.05814000  0.11042950  0.55125450  1
  C  33  1  0.07239800  0.13128150  0.55832150  1
  C  34  1  0.01611600  0.14487800  0.56388300  1
  C  35  1  0.94487900  0.13737500  0.56222650  1
  C  36  1  0.93042300  0.11641700  0.55516800  1
  C  37  1  0.96871900  0.95641200  0.62712550  1
  C  38  1  0.90303200  0.95004700  0.64161550  1
  C  39  1  0.89944800  0.92899700  0.67011850  1
  C  40  1  0.96112300  0.91394700  0.68453350  1
  C  41  1  0.02715200  0.92060900  0.67015100  1
  C  42  1  0.03095000  0.94178900  0.64161450  1
  C  43  1  0.98789000  0.95210800  0.50286100  1
  C  44  1  0.93134100  0.93833800  0.49756250  1
  C  45  1  0.05902400  0.94469100  0.50109350  1
  C  46  1  0.07344800  0.92379850  0.49409450  1
  C  47  1  0.01726800  0.90999500  0.48876600  1
  C  48  1  0.94596200  0.91733900  0.49057650  1
  C  79  1  0.31584800  0.45885100  0.61273800  1
  C  80  1  0.31414300  0.44353900  0.59898450  1
  C  81  1  0.30685400  0.46245850  0.57010900  1
  C  83  1  0.30921600  0.48741550  0.59255200  1
  C  84  1  0.30865600  0.50987350  0.59849750  1
  C  85  1  0.30457000  0.53891000  0.57801100  1
  C  87  1  0.30238400  0.57895000  0.53655250  1
  C  88  1  0.29996600  0.58600300  0.55779250  1
  C  89  1  0.30203200  0.56127750  0.58340200  1
  C  90  1  0.30407000  0.59812600  0.50710250  1
  C  91  1  0.30658600  0.59043600  0.48589250  1
  C  93  1  0.30839000  0.56547950  0.46344350  1
  C  94  1  0.31524700  0.59403550  0.44325900  1
  C  95  1  0.31388400  0.60934600  0.45701750  1
  C  96  1  0.30739800  0.54302300  0.45749750  1
  C  97  1  0.30355200  0.51398600  0.47799000  1
  C  99  1  0.30203600  0.47394400  0.51945400  1
  C  100  1  0.29926800  0.46688800  0.49822150  1
  C  101  1  0.30082000  0.49161750  0.47260450  1
  C  102  1  0.30403200  0.45477000  0.54890200  1
  C  103  1  0.30191400  0.42559550  0.55778600  1
  C  104  1  0.36405400  0.41110850  0.55755500  1
  C  105  1  0.36009600  0.38261900  0.56476100  1
  C  106  1  0.29402400  0.36827000  0.57246100  1
  C  107  1  0.23246900  0.38266850  0.57323850  1
  C  108  1  0.23619400  0.41113400  0.56591000  1
  C  109  1  0.32012000  0.54986000  0.42922950  1
  C  110  1  0.39121600  0.55136000  0.42009600  1
  C  111  1  0.40557200  0.55843450  0.39217950  1
  C  112  1  0.34936800  0.56410200  0.37297050  1
  C  113  1  0.27810200  0.56254200  0.38207600  1
  C  114  1  0.26355000  0.55547550  0.41008900  1
  C  115  1  0.30201000  0.62730150  0.49822100  1
  C  116  1  0.23627400  0.64176550  0.49016650  1
  C  117  1  0.23257500  0.67022200  0.48287200  1
  C  118  1  0.29416800  0.68460900  0.48361950  1
  C  119  1  0.36026600  0.67026700  0.49123050  1
  C  120  1  0.36418800  0.64178100  0.49841750  1
  C  121  1  0.32141100  0.50302900  0.62676250  1
  C  122  1  0.26484600  0.49776600  0.64581700  1
  C  123  1  0.39254000  0.50125600  0.63595300  1
  C  124  1  0.40693600  0.49428500  0.66383750  1
  C  125  1  0.35073400  0.48899500  0.68295350  1
  C  126  1  0.27943400  0.49080500  0.67379650  1
  C  157  1  0.64896100  0.61301000  0.01001650  1
  C  158  1  0.64735500  0.59925850  0.03908350  1
  C  159  1  0.64000000  0.57038500  0.04904400  1
  C  161  1  0.64212800  0.59282800  0.00164200  1
  C  162  1  0.64130100  0.59877400  0.97323950  1
  C  163  1  0.63740200  0.57828200  0.96469250  1
  C  165  1  0.63567400  0.53681700  0.96611800  1
  C  166  1  0.63317300  0.55804700  0.93782600  1
  C  167  1  0.63488900  0.58366450  0.93693550  1
  C  168  1  0.63762200  0.50736700  0.97639550  1
  C  169  1  0.64023900  0.48616150  0.00529500  1
  C  171  1  0.64218700  0.46371600  0.05270000  1
  C  172  1  0.64895700  0.44352900  0.04432850  1
  C  173  1  0.64751600  0.45728300  0.01526050  1
  C  174  1  0.64132800  0.45777050  0.08110100  1
  C  175  1  0.63740700  0.47826700  0.08964300  1
  C  177  1  0.63548300  0.51973100  0.08821550  1
  C  178  1  0.63280400  0.49849600  0.11650600  1
  C  179  1  0.63458000  0.47288100  0.11739500  1
  C  180  1  0.63727400  0.54918000  0.07794100  1
  C  181  1  0.63512900  0.55806200  0.09823250  1
  C  182  1  0.69723300  0.55780000  0.11297800  1
  C  183  1  0.69322600  0.56495100  0.13430100  1
  C  184  1  0.62710100  0.57257500  0.14099900  1
  C  185  1  0.56558700  0.57340400  0.12578500  1
  C  186  1  0.56938300  0.56615650  0.10459050  1
  C  187  1  0.65392800  0.42949700  0.10253900  1
  C  188  1  0.72498700  0.42029600  0.11014450  1
  C  189  1  0.73922400  0.39236500  0.13098100  1
  C  190  1  0.68293200  0.37320900  0.14454000  1
  C  191  1  0.61170200  0.38238400  0.13702000  1
  C  192  1  0.59726700  0.41041100  0.11608050  1
  C  193  1  0.63555600  0.49847900  0.95610900  1
  C  194  1  0.56983800  0.49040100  0.94972250  1
  C  195  1  0.56618800  0.48300550  0.92863250  1
  C  196  1  0.62780500  0.48370950  0.91352200  1
  C  197  1  0.69388100  0.49135900  0.92022150  1
  C  198  1  0.69774900  0.49864600  0.94144850  1
  C  199  1  0.65421500  0.62702500  0.95181300  1
  C  200  1  0.59773700  0.64612850  0.93800900  1
  C  201  1  0.72538200  0.63614000  0.94436550  1
  C  202  1  0.73990300  0.66399450  0.92340900  1
  C  203  1  0.68379100  0.68315700  0.90956750  1
  C  204  1  0.61245800  0.67407800  0.91694650  1
  C  235  1  0.71440000  0.30161900  0.19871100  1
  C  236  1  0.69431500  0.28460000  0.22720200  1
  C  237  1  0.74115600  0.26397000  0.24707800  1
  C  238  1  0.80931900  0.26033400  0.23804700  1
  C  239  1  0.82952000  0.27656450  0.20933950  1
  C  240  1  0.78141900  0.29684650  0.18998150  1
  C  242  1  0.85892800  0.24114400  0.25799300  1
  C  243  1  0.86511500  0.21351600  0.26212400  1
  C  244  1  0.91223400  0.19424900  0.28303500  1
  C  245  1  0.95282300  0.20208300  0.29974150  1
  C  246  1  0.94786700  0.22991400  0.29472700  1
  C  247  1  0.90105800  0.24963100  0.27399800  1
  C  263  1  0.98848300  0.18204100  0.32323700  1
  C  264  1  0.67177600  0.32394900  0.18036150  1
  C  267  1  0.04765800  0.19902800  0.58133100  1
  C  268  1  0.02757800  0.22751300  0.56991050  1
  C  269  1  0.07443600  0.24736300  0.57069700  1
  C  270  1  0.14260800  0.23830900  0.58334550  1
  C  271  1  0.16280000  0.20960250  0.59577400  1
  C  272  1  0.11468400  0.19027200  0.59481650  1
  C  274  1  0.19225000  0.25823100  0.58260700  1
  C  275  1  0.19851000  0.26232200  0.60612550  1
  C  276  1  0.24570000  0.28320150  0.60450300  1
  C  277  1  0.28628400  0.29991600  0.57996250  1
  C  278  1  0.28124400  0.29494500  0.55712000  1
  C  279  1  0.23437000  0.27424700  0.55811150  1
  C  295  1  0.32202000  0.32338600  0.57654000  1
  C  296  1  0.00502400  0.18071700  0.57730200  1
  C  299  1  0.38106000  0.58164800  0.30135150  1
  C  300  1  0.36100200  0.57022700  0.28428600  1
  C  301  1  0.40789200  0.57100250  0.26365950  1
  C  302  1  0.47606500  0.58364250  0.26007500  1
  C  303  1  0.49622900  0.59607250  0.27635150  1
  C  304  1  0.44808600  0.59512200  0.29663400  1
  C  306  1  0.52573200  0.58288450  0.24090350  1
  C  307  1  0.53186300  0.60635650  0.21325950  1
  C  308  1  0.57894500  0.60468300  0.19399800  1
  C  309  1  0.61955900  0.58013900  0.20185700  1
  C  310  1  0.61466700  0.55734800  0.22970400  1
  C  311  1  0.56789000  0.55838900  0.24941400  1
  C  327  1  0.65506300  0.57662700  0.18182100  1
  C  328  1  0.33841200  0.57761250  0.32368950  1
  C  331  1  0.71579500  0.75450500  0.85487500  1
  C  332  1  0.69551000  0.77142100  0.82639350  1
  C  333  1  0.74234700  0.79192400  0.80638300  1
  C  334  1  0.81072100  0.79553600  0.81526750  1
  C  335  1  0.83115200  0.77940900  0.84395750  1
  C  336  1  0.78305100  0.75924800  0.86345050  1
  C  338  1  0.86028200  0.81460400  0.79519300  1
  C  339  1  0.86669900  0.84230400  0.79085050  1
  C  340  1  0.91369600  0.86145500  0.76979450  1
  C  341  1  0.95393300  0.85343700  0.75314850  1
  C  342  1  0.94875700  0.82554000  0.75837000  1
  C  343  1  0.90206500  0.80593500  0.77924850  1
  C  359  1  0.98944400  0.87336000  0.72953350  1
  C  360  1  0.67307900  0.73228800  0.87335500  1
  C  363  1  0.04913000  0.85534700  0.47206150  1
  C  364  1  0.02899200  0.82683200  0.48378800  1
  C  365  1  0.07590800  0.80679500  0.48338100  1
  C  366  1  0.14421400  0.81568400  0.47081350  1
  C  367  1  0.16448000  0.84440200  0.45808450  1
  C  368  1  0.11630000  0.86392200  0.45866300  1
  C  370  1  0.19384000  0.79558600  0.47190550  1
  C  371  1  0.20005400  0.79103300  0.44867450  1
  C  372  1  0.24691900  0.76987900  0.45071450  1
  C  373  1  0.28723400  0.75335600  0.47538250  1
  C  374  1  0.28230000  0.75878950  0.49792200  1
  C  375  1  0.23572600  0.77976450  0.49651500  1
  C  391  1  0.32235000  0.72959500  0.47928650  1
  C  392  1  0.00640200  0.87386800  0.47573800  1
  C  395  1  0.38252400  0.47237500  0.75428650  1
  C  396  1  0.36233600  0.48407900  0.77109150  1
  C  397  1  0.40920700  0.48365600  0.79155200  1
  C  398  1  0.47752700  0.47109550  0.79523000  1
  C  399  1  0.49785600  0.45839200  0.77922000  1
  C  400  1  0.44971200  0.45898300  0.75911000  1
  C  402  1  0.52711500  0.47216100  0.81425600  1
  C  403  1  0.53345100  0.44887700  0.84200350  1
  C  404  1  0.58040400  0.45085600  0.86112350  1
  C  405  1  0.62068400  0.47552300  0.85302300  1
  C  406  1  0.61560500  0.49812200  0.82508200  1
  C  407  1  0.56895100  0.49677200  0.80550900  1
  C  423  1  0.65601800  0.47933100  0.87290350  1
  C  424  1  0.33981400  0.47604350  0.73208900  1
  H  49  1  0.90445700  0.90755350  0.48682500  1
  H  50  1  0.87948600  0.94351300  0.49874300  1
  H  51  1  0.12550200  0.91878800  0.49289050  1
  H  52  1  0.10075800  0.95447700  0.50479750  1
  H  53  1  0.98751100  0.99764150  0.45001200  1
  H  54  1  0.98507300  0.05104300  0.42190700  1
  H  55  1  0.96279300  0.02666500  0.50530700  1
  H  56  1  0.96220700  0.02824900  0.54725100  1
  H  57  1  0.96800500  0.91915900  0.55996750  1
  H  58  1  0.96502700  0.92076300  0.60557400  1
  H  59  1  0.85723600  0.96022550  0.63139850  1
  H  60  1  0.85092000  0.92425000  0.68004950  1
  H  61  1  0.07891200  0.94603550  0.63134150  1
  H  62  1  0.07246200  0.90983900  0.68009700  1
  H  63  1  0.98558500  0.00389900  0.63060050  1
  H  64  1  0.98753800  0.05729900  0.60249600  1
  H  65  1  0.96420200  0.13415250  0.44696400  1
  H  66  1  0.96696500  0.13576150  0.49256650  1
  H  67  1  0.09994400  0.10077250  0.54741000  1
  H  68  1  0.12440200  0.13639300  0.55943500  1
  H  69  1  0.87862100  0.11110300  0.55413100  1
  H  70  1  0.90331000  0.14699000  0.56617500  1
  H  71  1  0.85681600  0.09466800  0.42115450  1
  H  72  1  0.85030200  0.13083100  0.37258000  1
  H  73  1  0.07175800  0.14536800  0.37253700  1
  H  74  1  0.07840400  0.10898550  0.42120950  1
  H  127  1  0.23791800  0.48707900  0.68732500  1
  H  128  1  0.21299600  0.49895400  0.63945850  1
  H  129  1  0.45897800  0.49307900  0.67005500  1
  H  130  1  0.43428600  0.50494100  0.62247050  1
  H  131  1  0.32115200  0.45018150  0.63407050  1
  H  132  1  0.31878200  0.42208500  0.60876750  1
  H  133  1  0.29641400  0.50548500  0.54975600  1
  H  134  1  0.29551800  0.54743150  0.50623750  1
  H  135  1  0.30163600  0.56013000  0.60261800  1
  H  136  1  0.29855800  0.60573800  0.55541750  1
  H  137  1  0.19050600  0.63154750  0.49018450  1
  H  138  1  0.18399800  0.68011900  0.47777950  1
  H  139  1  0.41216000  0.63151300  0.50444150  1
  H  140  1  0.40550200  0.68018550  0.49216200  1
  H  141  1  0.31875700  0.63079100  0.44723950  1
  H  142  1  0.32049400  0.60270200  0.42192500  1
  H  143  1  0.29754600  0.44715500  0.50060050  1
  H  144  1  0.29992400  0.49276900  0.45338900  1
  H  145  1  0.43296800  0.54744600  0.43363350  1
  H  146  1  0.45759800  0.55948050  0.38599400  1
  H  147  1  0.21172900  0.55451050  0.41639800  1
  H  148  1  0.23658400  0.56656700  0.36847550  1
  H  149  1  0.19046800  0.42135000  0.56595350  1
  H  150  1  0.18391200  0.37276100  0.57841800  1
  H  151  1  0.40531300  0.37268800  0.56382050  1
  H  152  1  0.41200400  0.42137700  0.55147450  1
  H  205  1  0.57100100  0.68763550  0.90712800  1
  H  206  1  0.54586100  0.63982100  0.94319000  1
  H  207  1  0.79197500  0.67015200  0.91837100  1
  H  208  1  0.76706100  0.62261800  0.95416450  1
  H  209  1  0.65429000  0.63434100  0.99734850  1
  H  210  1  0.65222200  0.60903200  0.05075500  1
  H  211  1  0.62901000  0.55004650  0.02637850  1
  H  212  1  0.62945900  0.50651500  0.02795550  1
  H  213  1  0.63429200  0.60287650  0.91886700  1
  H  214  1  0.63172600  0.55566800  0.92046950  1
  H  215  1  0.52407900  0.49039950  0.95993950  1
  H  216  1  0.51763100  0.47786550  0.92386300  1
  H  217  1  0.74572100  0.50466500  0.94569150  1
  H  218  1  0.73913500  0.49225300  0.90939250  1
  H  219  1  0.65229600  0.44750100  0.00359450  1
  H  220  1  0.65419900  0.42219500  0.05699750  1
  H  221  1  0.63098100  0.50087300  0.13386000  1
  H  222  1  0.63378100  0.45366450  0.13546050  1
  H  223  1  0.76679900  0.43379300  0.10050900  1
  H  224  1  0.79122500  0.38612700  0.13609950  1
  H  225  1  0.54547100  0.41676900  0.11074700  1
  H  226  1  0.57012500  0.36881950  0.14660050  1
  H  227  1  0.52367500  0.56621000  0.09432200  1
  H  228  1  0.51700500  0.57854200  0.13053800  1
  H  229  1  0.73840700  0.56395700  0.14520900  1
  H  230  1  0.74521400  0.55174500  0.10877400  1
  H  241  1  0.79709200  0.30897300  0.16939200  1
  H  248  1  0.91441600  0.17394000  0.28683800  1
  H  249  1  0.97572700  0.23568500  0.30715000  1
  H  250  1  0.64624200  0.28787600  0.23400200  1
  H  265  1  0.61894100  0.32229250  0.18146750  1
  H  266  1  0.03790000  0.18553650  0.32729450  1
  H  273  1  0.13035000  0.16968500  0.60324100  1
  H  280  1  0.24793600  0.28697600  0.62102750  1
  H  281  1  0.30910000  0.30737450  0.53892600  1
  H  282  1  0.97950000  0.23433300  0.55984300  1
  H  297  1  0.95219500  0.18172900  0.57801000  1
  H  298  1  0.37137200  0.32742400  0.56891450  1
  H  305  1  0.46373700  0.60354100  0.30880100  1
  H  312  1  0.58106000  0.62116400  0.17367400  1
  H  313  1  0.64252300  0.53914700  0.23548900  1
  H  314  1  0.31292700  0.56016300  0.28753200  1
  H  329  1  0.28559600  0.57846150  0.32190950  1
  H  330  1  0.70473300  0.56932450  0.18523950  1
  H  337  1  0.79887800  0.74719600  0.88402950  1
  H  344  1  0.91603700  0.88181200  0.76584400  1
  H  345  1  0.97635300  0.81963300  0.74599550  1
  H  346  1  0.64726100  0.76815900  0.81970250  1
  H  361  1  0.62026400  0.73407750  0.87235300  1
  H  362  1  0.03878000  0.86975700  0.72549350  1
  H  369  1  0.13201400  0.88452400  0.45002450  1
  H  376  1  0.24905600  0.76575600  0.43441950  1
  H  377  1  0.30991600  0.74648750  0.51621600  1
  H  378  1  0.98081300  0.82014100  0.49379950  1
  H  393  1  0.95357500  0.87272050  0.47520000  1
  H  394  1  0.37233800  0.72587100  0.48624000  1
  H  401  1  0.46547000  0.45035700  0.74713750  1
  H  408  1  0.58265500  0.43451500  0.88151400  1
  H  409  1  0.64321600  0.51640800  0.81912050  1
  H  410  1  0.31413700  0.49408000  0.76777650  1
  H  425  1  0.28698400  0.47556700  0.73375900  1
  H  426  1  0.70564500  0.48667200  0.86944150  1
  N  4  1  0.96992500  0.02608500  0.48821100  1
  N  8  1  0.97134300  0.98167400  0.55036000  1
  N  14  1  0.96987300  0.02883600  0.56431750  1
  N  20  1  0.97077400  0.07324900  0.50217600  1
  N  75  1  0.03540100  0.16406800  0.57038900  1
  N  76  1  0.95121700  0.89322600  0.71060600  1
  N  77  1  0.03669500  0.89069100  0.48243550  1
  N  78  1  0.95039000  0.16207600  0.34211700  1
  N  82  1  0.30350800  0.48838500  0.56743100  1
  N  86  1  0.30472600  0.55053350  0.54970150  1
  N  92  1  0.30287400  0.56451500  0.48856800  1
  N  98  1  0.30422400  0.50236300  0.50629850  1
  N  153  1  0.36873800  0.57061050  0.34727950  1
  N  154  1  0.28413000  0.71060300  0.47847600  1
  N  155  1  0.37013000  0.48268300  0.70858500  1
  N  156  1  0.28393800  0.34227400  0.57761600  1
  N  160  1  0.63647400  0.56770700  0.02579650  1
  N  164  1  0.63785500  0.54997300  0.98138150  1
  N  170  1  0.63666100  0.48884000  0.02854050  1
  N  176  1  0.63784100  0.50657600  0.07295400  1
  N  231  1  0.70219400  0.34749600  0.16370250  1
  N  232  1  0.61782400  0.47844350  0.89275100  1
  N  233  1  0.70330200  0.70875000  0.89019200  1
  N  234  1  0.61695500  0.57764100  0.16189750  1
  N  251  1  0.89438100  0.27737900  0.26949200  1
  N  252  1  0.82254100  0.20540500  0.24598500  1
  N  253  1  0.72170800  0.24730050  0.27584450  1
  N  254  1  0.89797500  0.27286700  0.20067300  1
  N  283  1  0.22762800  0.26978000  0.53484800  1
  N  284  1  0.15594400  0.24617500  0.63037850  1
  N  285  1  0.05500800  0.27612900  0.55864400  1
  N  286  1  0.23126000  0.20091300  0.60812050  1
  N  315  1  0.56123900  0.53516800  0.27717200  1
  N  316  1  0.48925700  0.63060800  0.20512700  1
  N  317  1  0.38849900  0.55894300  0.24695250  1
  N  318  1  0.56468500  0.60841700  0.27269600  1
  N  347  1  0.89514700  0.77812000  0.78396150  1
  N  348  1  0.82446300  0.85059700  0.80693100  1
  N  349  1  0.72268700  0.80848500  0.77762950  1
  N  350  1  0.89980500  0.78308500  0.85247750  1
  N  379  1  0.22897200  0.78467800  0.51949450  1
  N  380  1  0.15771600  0.80698800  0.42430750  1
  N  381  1  0.05639400  0.77801200  0.49573300  1
  N  382  1  0.23306400  0.85292400  0.44581250  1
  N  411  1  0.56210600  0.51980050  0.77764950  1
  N  412  1  0.49115600  0.42450700  0.85037700  1
  N  413  1  0.38963200  0.49597900  0.80800450  1
  N  414  1  0.56645900  0.44613300  0.78296150  1
  O  255  1  0.95249200  0.29049800  0.26173700  1
  O  256  1  0.93443500  0.29505400  0.19090050  1
  O  257  1  0.70915400  0.26223600  0.28684500  1
  O  258  1  0.78136200  0.18545100  0.26137400  1
  O  259  1  0.87345800  0.27729600  0.29134300  1
  O  260  1  0.89365400  0.26549800  0.18236500  1
  O  261  1  0.66768600  0.23251500  0.27873000  1
  O  262  1  0.86041100  0.19809500  0.23179400  1
  O  287  1  0.28569800  0.26201700  0.52945750  1
  O  288  1  0.26770000  0.19117300  0.59566700  1
  O  289  1  0.04244000  0.28716850  0.53270550  1
  O  290  1  0.11482800  0.26156150  0.63497700  1
  O  291  1  0.20671700  0.29165500  0.51309900  1
  O  292  1  0.22695600  0.18257200  0.63378750  1
  O  293  1  0.00099700  0.27899600  0.57056700  1
  O  294  1  0.19382400  0.23194900  0.65186600  1
  O  319  1  0.61936500  0.52980900  0.29028500  1
  O  320  1  0.60110300  0.59596900  0.29489400  1
  O  321  1  0.37593800  0.53300450  0.26185750  1
  O  322  1  0.44804800  0.63514300  0.18519000  1
  O  323  1  0.54030200  0.51338800  0.27711900  1
  O  324  1  0.56036900  0.63408700  0.26535750  1
  O  325  1  0.33450200  0.57086350  0.23215450  1
  O  326  1  0.52710500  0.65211600  0.19778400  1
  O  351  1  0.95323500  0.76497500  0.79169100  1
  O  352  1  0.93607800  0.76084400  0.86231350  1
  O  353  1  0.70971900  0.79344400  0.76678050  1
  O  354  1  0.78326000  0.87053300  0.79151300  1
  O  355  1  0.87386500  0.77804800  0.76223000  1
  O  356  1  0.89590900  0.79060600  0.87068150  1
  O  357  1  0.66884900  0.82337000  0.77472850  1
  O  358  1  0.86263100  0.85802250  0.82095000  1
  O  383  1  0.28713200  0.79245400  0.52479650  1
  O  384  1  0.26932900  0.86290700  0.45807950  1
  O  385  1  0.04353900  0.76728200  0.52161850  1
  O  386  1  0.11638200  0.79148300  0.41997250  1
  O  387  1  0.20770400  0.76304200  0.54139450  1
  O  388  1  0.22901000  0.87101300  0.42005700  1
  O  389  1  0.00254100  0.77498600  0.48384550  1
  O  390  1  0.19579500  0.82087200  0.40280350  1
  O  415  1  0.62022100  0.52514350  0.76453300  1
  O  416  1  0.60274100  0.45842500  0.76071550  1
  O  417  1  0.37674400  0.52186600  0.79286750  1
  O  418  1  0.44990600  0.42010100  0.87026400  1
  O  419  1  0.54085000  0.54166400  0.77746750  1
  O  420  1  0.56245000  0.42038300  0.79060050  1
  O  421  1  0.33577200  0.48407500  0.82290750  1
  O  422  1  0.52927400  0.40302700  0.85791000  1
