# generated using pymatgen
data_VH16C23N4O9
_symmetry_space_group_name_H-M   'P 1'
_cell_length_a   7.18005000
_cell_length_b   17.30869000
_cell_length_c   28.12082000
_cell_angle_alpha   78.41989000
_cell_angle_beta   90.00044000
_cell_angle_gamma   90.00013000
_symmetry_Int_Tables_number   1
_chemical_formula_structural   VH16C23N4O9
_chemical_formula_sum   'V4 H64 C92 N16 O36'
_cell_volume   3423.64221177
_cell_formula_units_Z   4
loop_
 _symmetry_equiv_pos_site_id
 _symmetry_equiv_pos_as_xyz
  1  'x, y, z'
loop_
 _atom_site_type_symbol
 _atom_site_label
 _atom_site_symmetry_multiplicity
 _atom_site_fract_x
 _atom_site_fract_y
 _atom_site_fract_z
 _atom_site_occupancy
  V  V0  1  0.12210000  0.75483000  0.00423000  1
  V  V1  1  0.87790000  0.24517000  0.99577000  1
  V  V2  1  0.62210000  0.74517000  0.99577000  1
  V  V3  1  0.37790000  0.25483000  0.00423000  1
  H  H4  1  0.61481000  0.80450000  0.84602000  1
  H  H5  1  0.78768000  0.20120000  0.14571000  1
  H  H6  1  0.11479000  0.69551000  0.15398000  1
  H  H7  1  0.28768000  0.29877000  0.85429000  1
  H  H8  1  0.62071000  0.85138000  0.75824000  1
  H  H9  1  0.75815000  0.15672000  0.23314000  1
  H  H10  1  0.12070000  0.64864000  0.24176000  1
  H  H11  1  0.25811000  0.34327000  0.76686000  1
  H  H12  1  0.83744000  0.75711000  0.60681000  1
  H  H13  1  0.87674000  0.25036000  0.38794000  1
  H  H14  1  0.33742000  0.74288000  0.39319000  1
  H  H15  1  0.37671000  0.24963000  0.61206000  1
  H  H16  1  0.05272000  0.83632000  0.45571000  1
  H  H17  1  0.00708000  0.17218000  0.54619000  1
  H  H18  1  0.55273000  0.66367000  0.54429000  1
  H  H19  1  0.50716000  0.32783000  0.45382000  1
  H  H20  1  0.64339000  0.50524000  0.02745000  1
  H  H21  1  0.79547000  0.44412000  0.06079000  1
  H  H22  1  0.35604000  0.49473000  0.97200000  1
  H  H23  1  0.20376000  0.55627000  0.93909000  1
  H  H24  1  0.14337000  0.99476000  0.97256000  1
  H  H25  1  0.29546000  0.05585000  0.93921000  1
  H  H26  1  0.85602000  0.00527000  0.02802000  1
  H  H27  1  0.70374000  0.94373000  0.06091000  1
  H  H28  1  0.34875000  0.06470000  0.11824000  1
  H  H29  1  0.46376000  0.03735000  0.17715000  1
  H  H30  1  0.59219000  0.08314000  0.12429000  1
  H  H31  1  0.16995000  0.93666000  0.88870000  1
  H  H32  1  0.30648000  0.96163000  0.83297000  1
  H  H33  1  0.41343000  0.91365000  0.88866000  1
  H  H34  1  0.84881000  0.43529000  0.88178000  1
  H  H35  1  0.96354000  0.46268000  0.82283000  1
  H  H36  1  0.09223000  0.41692000  0.87565000  1
  H  H37  1  0.80610000  0.53823000  0.16701000  1
  H  H38  1  0.91317000  0.58615000  0.11133000  1
  H  H39  1  0.66956000  0.56328000  0.11130000  1
  H  H40  1  0.38432000  0.05883000  0.27123000  1
  H  H41  1  0.39643000  0.15374000  0.27808000  1
  H  H42  1  0.25504000  0.94678000  0.73844000  1
  H  H43  1  0.27234000  0.85247000  0.73067000  1
  H  H44  1  0.88429000  0.44113000  0.72876000  1
  H  H45  1  0.89636000  0.34621000  0.72192000  1
  H  H46  1  0.75500000  0.55317000  0.26156000  1
  H  H47  1  0.77239000  0.64748000  0.26933000  1
  H  H48  1  0.81837000  0.84003000  0.34894000  1
  H  H49  1  0.93628000  0.76980000  0.39669000  1
  H  H50  1  0.99204000  0.77425000  0.33422000  1
  H  H51  1  0.71570000  0.16851000  0.64262000  1
  H  H52  1  0.85586000  0.23878000  0.60008000  1
  H  H53  1  0.87406000  0.23392000  0.66403000  1
  H  H54  1  0.31831000  0.66008000  0.65096000  1
  H  H55  1  0.43669000  0.73029000  0.60327000  1
  H  H56  1  0.49206000  0.72575000  0.66578000  1
  H  H57  1  0.21578000  0.33102000  0.35779000  1
  H  H58  1  0.35752000  0.26083000  0.40000000  1
  H  H59  1  0.37424000  0.26606000  0.33596000  1
  H  H60  1  0.90119000  0.74821000  0.50809000  1
  H  H61  1  0.73506000  0.81537000  0.48147000  1
  H  H62  1  0.88068000  0.25966000  0.48816000  1
  H  H63  1  0.70784000  0.19153000  0.50811000  1
  H  H64  1  0.40119000  0.75178000  0.49191000  1
  H  H65  1  0.23506000  0.68462000  0.51853000  1
  H  H66  1  0.38072000  0.24033000  0.51183000  1
  H  H67  1  0.20786000  0.30846000  0.49188000  1
  C  C68  1  0.40247000  0.70796000  0.08956000  1
  C  C69  1  0.59776000  0.29140000  0.91045000  1
  C  C70  1  0.90247000  0.79203000  0.91044000  1
  C  C71  1  0.09776000  0.20860000  0.08955000  1
  C  C72  1  0.40365000  0.89461000  0.00082000  1
  C  C73  1  0.59634000  0.10536000  0.99928000  1
  C  C74  1  0.90365000  0.60539000  0.99918000  1
  C  C75  1  0.09634000  0.39464000  0.00072000  1
  C  C76  1  0.91809000  0.51796000  0.00476000  1
  C  C77  1  0.08180000  0.48208000  0.99507000  1
  C  C78  1  0.41809000  0.98204000  0.99524000  1
  C  C79  1  0.58180000  0.01792000  0.00494000  1
  C  C80  1  0.03976000  0.02825000  0.31709000  1
  C  C81  1  0.93093000  0.97960000  0.68304000  1
  C  C82  1  0.53972000  0.47174000  0.68291000  1
  C  C83  1  0.43090000  0.52040000  0.31696000  1
  C  C84  1  0.98535000  0.16067000  0.32550000  1
  C  C85  1  0.89530000  0.84708000  0.67266000  1
  C  C86  1  0.48528000  0.33932000  0.67450000  1
  C  C87  1  0.39529000  0.65292000  0.32734000  1
  C  C88  1  0.89432000  0.15733000  0.21662000  1
  C  C89  1  0.74895000  0.84966000  0.77855000  1
  C  C90  1  0.39429000  0.34266000  0.78339000  1
  C  C91  1  0.24894000  0.65036000  0.22145000  1
  C  C92  1  0.91204000  0.18218000  0.16651000  1
  C  C93  1  0.74665000  0.82303000  0.82883000  1
  C  C94  1  0.41202000  0.31780000  0.83350000  1
  C  C95  1  0.24664000  0.67697000  0.17117000  1
  C  C96  1  0.24537000  0.15783000  0.17270000  1
  C  C97  1  0.08046000  0.84509000  0.83184000  1
  C  C98  1  0.74534000  0.34216000  0.82730000  1
  C  C99  1  0.58046000  0.65489000  0.16816000  1
  C  C100  1  0.22778000  0.13585000  0.22366000  1
  C  C101  1  0.08267000  0.86929000  0.78081000  1
  C  C102  1  0.72774000  0.36414000  0.77634000  1
  C  C103  1  0.58266000  0.63069000  0.21919000  1
  C  C104  1  0.05045000  0.13373000  0.24558000  1
  C  C105  1  0.91541000  0.87333000  0.75418000  1
  C  C106  1  0.55041000  0.36625000  0.75442000  1
  C  C107  1  0.41540000  0.62667000  0.24582000  1
  C  C108  1  0.97489000  0.05532000  0.39723000  1
  C  C109  1  0.91666000  0.95275000  0.60128000  1
  C  C110  1  0.47485000  0.44467000  0.60277000  1
  C  C111  1  0.41665000  0.54724000  0.39872000  1
  C  C112  1  0.01746000  0.00051000  0.36768000  1
  C  C113  1  0.93582000  0.00757000  0.63211000  1
  C  C114  1  0.51743000  0.49948000  0.63232000  1
  C  C115  1  0.43581000  0.49243000  0.36789000  1
  C  C116  1  0.03754000  0.92006000  0.38951000  1
  C  C117  1  0.96149000  0.08816000  0.61119000  1
  C  C118  1  0.53752000  0.57993000  0.61049000  1
  C  C119  1  0.46150000  0.41184000  0.38880000  1
  C  C120  1  0.95747000  0.13578000  0.37580000  1
  C  C121  1  0.89505000  0.87214000  0.62186000  1
  C  C122  1  0.45742000  0.36421000  0.62420000  1
  C  C123  1  0.39504000  0.62786000  0.37814000  1
  C  C124  1  0.08646000  0.18280000  0.14353000  1
  C  C125  1  0.91113000  0.82003000  0.85646000  1
  C  C126  1  0.58644000  0.31720000  0.85647000  1
  C  C127  1  0.41113000  0.67997000  0.14354000  1
  C  C128  1  0.91440000  0.92207000  0.51942000  1
  C  C129  1  0.91905000  0.08597000  0.47791000  1
  C  C130  1  0.41438000  0.57792000  0.48058000  1
  C  C131  1  0.41903000  0.41402000  0.52209000  1
  C  C132  1  0.93100000  0.05988000  0.52930000  1
  C  C133  1  0.95557000  0.94826000  0.46913000  1
  C  C134  1  0.43099000  0.44011000  0.47070000  1
  C  C135  1  0.45555000  0.55173000  0.53087000  1
  C  C136  1  0.91991000  0.97830000  0.54990000  1
  C  C137  1  0.94914000  0.02981000  0.44817000  1
  C  C138  1  0.41989000  0.52170000  0.45010000  1
  C  C139  1  0.44912000  0.47019000  0.55183000  1
  C  C140  1  0.86956000  0.84227000  0.54103000  1
  C  C141  1  0.87961000  0.16554000  0.45456000  1
  C  C142  1  0.36954000  0.65772000  0.45897000  1
  C  C143  1  0.37959000  0.33446000  0.54543000  1
  C  C144  1  0.86736000  0.81837000  0.59147000  1
  C  C145  1  0.90512000  0.18939000  0.40454000  1
  C  C146  1  0.36734000  0.68162000  0.40853000  1
  C  C147  1  0.40509000  0.31060000  0.59546000  1
  C  C148  1  0.01497000  0.89604000  0.43979000  1
  C  C149  1  0.96641000  0.11226000  0.56056000  1
  C  C150  1  0.51495000  0.60396000  0.56021000  1
  C  C151  1  0.46642000  0.38774000  0.43944000  1
  C  C152  1  0.45552000  0.08218000  0.14280000  1
  C  C153  1  0.28367000  0.91708000  0.86691000  1
  C  C154  1  0.95548000  0.41784000  0.85718000  1
  C  C155  1  0.78341000  0.58279000  0.13307000  1
  C  C156  1  0.95311000  0.81057000  0.36100000  1
  C  C157  1  0.85408000  0.19782000  0.63599000  1
  C  C158  1  0.45321000  0.68948000  0.63896000  1
  C  C159  1  0.35459000  0.30195000  0.36414000  1
  N  N160  1  0.02718000  0.10714000  0.29732000  1
  N  N161  1  0.91429000  0.90059000  0.70212000  1
  N  N162  1  0.52713000  0.39285000  0.70269000  1
  N  N163  1  0.41428000  0.59941000  0.29788000  1
  N  N164  1  0.76080000  0.47064000  0.02512000  1
  N  N165  1  0.23902000  0.52940000  0.97466000  1
  N  N166  1  0.26081000  0.02936000  0.97488000  1
  N  N167  1  0.73901000  0.97060000  0.02535000  1
  N  N168  1  0.39223000  0.11733000  0.25259000  1
  N  N169  1  0.25722000  0.88785000  0.75651000  1
  N  N170  1  0.89218000  0.38263000  0.74740000  1
  N  N171  1  0.75722000  0.61210000  0.24349000  1
  N  N172  1  0.79622000  0.78697000  0.51401000  1
  N  N173  1  0.78478000  0.22037000  0.47826000  1
  N  N174  1  0.29621000  0.71303000  0.48599000  1
  N  N175  1  0.28479000  0.27962000  0.52174000  1
  O  O176  1  0.56349000  0.85792000  0.99930000  1
  O  O177  1  0.43651000  0.14208000  0.00070000  1
  O  O178  1  0.06349000  0.64208000  0.00070000  1
  O  O179  1  0.93651000  0.35792000  0.99930000  1
  O  O180  1  0.23362000  0.72189000  0.06992000  1
  O  O181  1  0.76638000  0.27811000  0.93008000  1
  O  O182  1  0.73362000  0.77811000  0.93008000  1
  O  O183  1  0.26638000  0.22189000  0.06992000  1
  O  O184  1  0.23377000  0.86231000  0.00382000  1
  O  O185  1  0.76623000  0.13769000  0.99618000  1
  O  O186  1  0.73377000  0.63769000  0.99618000  1
  O  O187  1  0.26623000  0.36231000  0.00382000  1
  O  O188  1  0.06354000  0.78350000  0.93413000  1
  O  O189  1  0.93646000  0.21650000  0.06587000  1
  O  O190  1  0.56354000  0.71650000  0.06587000  1
  O  O191  1  0.43646000  0.28350000  0.93413000  1
  O  O192  1  0.39698000  0.72398000  0.97721000  1
  O  O193  1  0.60302000  0.27602000  0.02279000  1
  O  O194  1  0.89698000  0.77602000  0.02279000  1
  O  O195  1  0.10302000  0.22398000  0.97721000  1
  O  O196  1  0.07150000  0.97699000  0.28764000  1
  O  O197  1  0.94148000  0.03069000  0.71340000  1
  O  O198  1  0.57147000  0.52299000  0.71236000  1
  O  O199  1  0.44140000  0.46931000  0.28660000  1
  O  O200  1  0.87763000  0.76969000  0.69249000  1
  O  O201  1  0.97066000  0.23786000  0.30490000  1
  O  O202  1  0.37764000  0.73031000  0.30751000  1
  O  O203  1  0.47057000  0.26214000  0.69510000  1
  O  O204  1  0.42009000  0.15802000  0.15200000  1
  O  O205  1  0.24682000  0.84184000  0.85695000  1
  O  O206  1  0.92006000  0.34199000  0.84799000  1
  O  O207  1  0.74681000  0.65805000  0.14304000  1
  O  O208  1  0.09645000  0.86588000  0.36253000  1
  O  O209  1  0.00031000  0.14234000  0.64004000  1
  O  O210  1  0.59644000  0.63411000  0.63748000  1
  O  O211  1  0.50037000  0.35768000  0.35994000  1
