# generated using pymatgen
data_Cu3H12C40N3(Cl3O4)3
_symmetry_space_group_name_H-M   'P 1'
_cell_length_a   18.32483000
_cell_length_b   18.32237000
_cell_length_c   18.32586000
_cell_angle_alpha   75.36576000
_cell_angle_beta   75.37585000
_cell_angle_gamma   75.32777000
_symmetry_Int_Tables_number   1
_chemical_formula_structural   Cu3H12C40N3(Cl3O4)3
_chemical_formula_sum   'Cu12 H48 C160 N12 Cl36 O48'
_cell_volume   5641.26050088
_cell_formula_units_Z   4
loop_
 _symmetry_equiv_pos_site_id
 _symmetry_equiv_pos_as_xyz
  1  'x, y, z'
loop_
 _atom_site_type_symbol
 _atom_site_label
 _atom_site_symmetry_multiplicity
 _atom_site_fract_x
 _atom_site_fract_y
 _atom_site_fract_z
 _atom_site_occupancy
  Cu  Cu0  1  0.40726000  0.26764000  0.84233000  1
  Cu  Cu1  1  0.84255000  0.40780000  0.26804000  1
  Cu  Cu2  1  0.26758000  0.84284000  0.40748000  1
  Cu  Cu3  1  0.23264000  0.09312000  0.65760000  1
  Cu  Cu4  1  0.09466000  0.65894000  0.23076000  1
  Cu  Cu5  1  0.65818000  0.23124000  0.09413000  1
  Cu  Cu6  1  0.59281000  0.73238000  0.15770000  1
  Cu  Cu7  1  0.15744000  0.59219000  0.73198000  1
  Cu  Cu8  1  0.73254000  0.15714000  0.59262000  1
  Cu  Cu9  1  0.76751000  0.90667000  0.34206000  1
  Cu  Cu10  1  0.90529000  0.34100000  0.76930000  1
  Cu  Cu11  1  0.34183000  0.76881000  0.90570000  1
  H  H12  1  0.44706000  0.29660000  0.97989000  1
  H  H13  1  0.38119000  0.36544000  0.08738000  1
  H  H14  1  0.17222000  0.41479000  0.99772000  1
  H  H15  1  0.24847000  0.34373000  0.89322000  1
  H  H16  1  0.98056000  0.44722000  0.29644000  1
  H  H17  1  0.08809000  0.38086000  0.36499000  1
  H  H18  1  0.99704000  0.17264000  0.41507000  1
  H  H19  1  0.89295000  0.24929000  0.34367000  1
  H  H20  1  0.29614000  0.98077000  0.44731000  1
  H  H21  1  0.36498000  0.08806000  0.38115000  1
  H  H22  1  0.41508000  0.99701000  0.17290000  1
  H  H23  1  0.34345000  0.89307000  0.24942000  1
  H  H24  1  0.20488000  0.05373000  0.51971000  1
  H  H25  1  0.13546000  0.11873000  0.41257000  1
  H  H26  1  0.08412000  0.32782000  0.50246000  1
  H  H27  1  0.15644000  0.25259000  0.60620000  1
  H  H28  1  0.05384000  0.52038000  0.20404000  1
  H  H29  1  0.11887000  0.41269000  0.13515000  1
  H  H30  1  0.32826000  0.50183000  0.08430000  1
  H  H31  1  0.25293000  0.60620000  0.15586000  1
  H  H32  1  0.51989000  0.20393000  0.05372000  1
  H  H33  1  0.41223000  0.13521000  0.11909000  1
  H  H34  1  0.50230000  0.08417000  0.32804000  1
  H  H35  1  0.60610000  0.15631000  0.25258000  1
  H  H36  1  0.55302000  0.70345000  0.02018000  1
  H  H37  1  0.61882000  0.63460000  0.91267000  1
  H  H38  1  0.82786000  0.58520000  0.00221000  1
  H  H39  1  0.75168000  0.65626000  0.10674000  1
  H  H40  1  0.01945000  0.55280000  0.70358000  1
  H  H41  1  0.91194000  0.61914000  0.63501000  1
  H  H42  1  0.00297000  0.82738000  0.58488000  1
  H  H43  1  0.10704000  0.75076000  0.65633000  1
  H  H44  1  0.70391000  0.01928000  0.55269000  1
  H  H45  1  0.63513000  0.91193000  0.61882000  1
  H  H46  1  0.58496000  0.00294000  0.82711000  1
  H  H47  1  0.65653000  0.10694000  0.75061000  1
  H  H48  1  0.79512000  0.94619000  0.48014000  1
  H  H49  1  0.86451000  0.88126000  0.58733000  1
  H  H50  1  0.91593000  0.67210000  0.49757000  1
  H  H51  1  0.84373000  0.74727000  0.39373000  1
  H  H52  1  0.94612000  0.47950000  0.79600000  1
  H  H53  1  0.88115000  0.58726000  0.86482000  1
  H  H54  1  0.67169000  0.49823000  0.91573000  1
  H  H55  1  0.74696000  0.39378000  0.84426000  1
  H  H56  1  0.48012000  0.79608000  0.94625000  1
  H  H57  1  0.58782000  0.86475000  0.88089000  1
  H  H58  1  0.49777000  0.91586000  0.67193000  1
  H  H59  1  0.39393000  0.84377000  0.74737000  1
  C  C60  1  0.27022000  0.90079000  0.93397000  1
  C  C61  1  0.25192000  0.97416000  0.96425000  1
  C  C62  1  0.18569000  0.99238000  0.01956000  1
  C  C63  1  0.16223000  0.06673000  0.03928000  1
  C  C64  1  0.38598000  0.32246000  0.98729000  1
  C  C65  1  0.34871000  0.36125000  0.04677000  1
  C  C66  1  0.27043000  0.39594000  0.05103000  1
  C  C67  1  0.23261000  0.38788000  0.99671000  1
  C  C68  1  0.27442000  0.34902000  0.93842000  1
  C  C69  1  0.34438000  0.14808000  0.93376000  1
  C  C70  1  0.28387000  0.09874000  0.95693000  1
  C  C71  1  0.29985000  0.02805000  0.93342000  1
  C  C72  1  0.21386000  0.11846000  0.00627000  1
  C  C73  1  0.93329000  0.27004000  0.90163000  1
  C  C74  1  0.96380000  0.25195000  0.97478000  1
  C  C75  1  0.01900000  0.18558000  0.99303000  1
  C  C76  1  0.03887000  0.16228000  0.06725000  1
  C  C77  1  0.98774000  0.38614000  0.32232000  1
  C  C78  1  0.04717000  0.34859000  0.36111000  1
  C  C79  1  0.05103000  0.27042000  0.39611000  1
  C  C80  1  0.99640000  0.23295000  0.38812000  1
  C  C81  1  0.93829000  0.27496000  0.34906000  1
  C  C82  1  0.93377000  0.34530000  0.14790000  1
  C  C83  1  0.95676000  0.28427000  0.09908000  1
  C  C84  1  0.93310000  0.30011000  0.02850000  1
  C  C85  1  0.00600000  0.21410000  0.11888000  1
  C  C86  1  0.90111000  0.93308000  0.27005000  1
  C  C87  1  0.97410000  0.96398000  0.25216000  1
  C  C88  1  0.99241000  0.01915000  0.18585000  1
  C  C89  1  0.06672000  0.03888000  0.16256000  1
  C  C90  1  0.32205000  0.98793000  0.38625000  1
  C  C91  1  0.36095000  0.04726000  0.34880000  1
  C  C92  1  0.39593000  0.05105000  0.27066000  1
  C  C93  1  0.38798000  0.99643000  0.23314000  1
  C  C94  1  0.34884000  0.93842000  0.27508000  1
  C  C95  1  0.14759000  0.93388000  0.34522000  1
  C  C96  1  0.09843000  0.95699000  0.28452000  1
  C  C97  1  0.02780000  0.93344000  0.30038000  1
  C  C98  1  0.11838000  0.00597000  0.21432000  1
  C  C99  1  0.59998000  0.22967000  0.56533000  1
  C  C100  1  0.52642000  0.24806000  0.53508000  1
  C  C101  1  0.50790000  0.31417000  0.47961000  1
  C  C102  1  0.43357000  0.33704000  0.45971000  1
  C  C103  1  0.17840000  0.11469000  0.51244000  1
  C  C104  1  0.13923000  0.15152000  0.45311000  1
  C  C105  1  0.10384000  0.22963000  0.44895000  1
  C  C106  1  0.11161000  0.26760000  0.50330000  1
  C  C107  1  0.15104000  0.22628000  0.56132000  1
  C  C108  1  0.35346000  0.15391000  0.56602000  1
  C  C109  1  0.40246000  0.21481000  0.54195000  1
  C  C110  1  0.47288000  0.19965000  0.56581000  1
  C  C111  1  0.38246000  0.28470000  0.49245000  1
  C  C112  1  0.22933000  0.56532000  0.59927000  1
  C  C113  1  0.24755000  0.53539000  0.52561000  1
  C  C114  1  0.31359000  0.47976000  0.50728000  1
  C  C115  1  0.33681000  0.45993000  0.43297000  1
  C  C116  1  0.11482000  0.51283000  0.17774000  1
  C  C117  1  0.15163000  0.45326000  0.13889000  1
  C  C118  1  0.22980000  0.44881000  0.10377000  1
  C  C119  1  0.26795000  0.50300000  0.11153000  1
  C  C120  1  0.22661000  0.56131000  0.15053000  1
  C  C121  1  0.15522000  0.56907000  0.35080000  1
  C  C122  1  0.21532000  0.54344000  0.40089000  1
  C  C123  1  0.19947000  0.56656000  0.47178000  1
  C  C124  1  0.28493000  0.49323000  0.38144000  1
  C  C125  1  0.56572000  0.59946000  0.22958000  1
  C  C126  1  0.53559000  0.52600000  0.24772000  1
  C  C127  1  0.48026000  0.50756000  0.31389000  1
  C  C128  1  0.46006000  0.43345000  0.33668000  1
  C  C129  1  0.51243000  0.17778000  0.11472000  1
  C  C130  1  0.45295000  0.13891000  0.15172000  1
  C  C131  1  0.44881000  0.10373000  0.22984000  1
  C  C132  1  0.50319000  0.11147000  0.26779000  1
  C  C133  1  0.56123000  0.15075000  0.22636000  1
  C  C134  1  0.56800000  0.35231000  0.15431000  1
  C  C135  1  0.54317000  0.40160000  0.21508000  1
  C  C136  1  0.56678000  0.47217000  0.19969000  1
  C  C137  1  0.49287000  0.38217000  0.28451000  1
  C  C138  1  0.72978000  0.09963000  0.06573000  1
  C  C139  1  0.74820000  0.02594000  0.03588000  1
  C  C140  1  0.81442000  0.00767000  0.98054000  1
  C  C141  1  0.83783000  0.93333000  0.96079000  1
  C  C142  1  0.61410000  0.67757000  0.01275000  1
  C  C143  1  0.65133000  0.63878000  0.95326000  1
  C  C144  1  0.72961000  0.60407000  0.94896000  1
  C  C145  1  0.76747000  0.61213000  0.00326000  1
  C  C146  1  0.72570000  0.65098000  0.06157000  1
  C  C147  1  0.65572000  0.85195000  0.06624000  1
  C  C148  1  0.71619000  0.90133000  0.04314000  1
  C  C149  1  0.70024000  0.97204000  0.06666000  1
  C  C150  1  0.78619000  0.88162000  0.99377000  1
  C  C151  1  0.06655000  0.72991000  0.09860000  1
  C  C152  1  0.03626000  0.74804000  0.02533000  1
  C  C153  1  0.98107000  0.81441000  0.00705000  1
  C  C154  1  0.96119000  0.83771000  0.93283000  1
  C  C155  1  0.01227000  0.61389000  0.67770000  1
  C  C156  1  0.95284000  0.65143000  0.63889000  1
  C  C157  1  0.94898000  0.72959000  0.60388000  1
  C  C158  1  0.00361000  0.76708000  0.61186000  1
  C  C159  1  0.06171000  0.72507000  0.65094000  1
  C  C160  1  0.06620000  0.65467000  0.85220000  1
  C  C161  1  0.04327000  0.71569000  0.90103000  1
  C  C162  1  0.06695000  0.69987000  0.97161000  1
  C  C163  1  0.99405000  0.78587000  0.88121000  1
  C  C164  1  0.09898000  0.06686000  0.72993000  1
  C  C165  1  0.02598000  0.03595000  0.74784000  1
  C  C166  1  0.00766000  0.98079000  0.81417000  1
  C  C167  1  0.93335000  0.96106000  0.83747000  1
  C  C168  1  0.67799000  0.01210000  0.61375000  1
  C  C169  1  0.63912000  0.95274000  0.65118000  1
  C  C170  1  0.60415000  0.94893000  0.72932000  1
  C  C171  1  0.61207000  0.00354000  0.76686000  1
  C  C172  1  0.65117000  0.06158000  0.72494000  1
  C  C173  1  0.85240000  0.06610000  0.65494000  1
  C  C174  1  0.90162000  0.04295000  0.71555000  1
  C  C175  1  0.97226000  0.06650000  0.69965000  1
  C  C176  1  0.88167000  0.99398000  0.78574000  1
  C  C177  1  0.40022000  0.77045000  0.43468000  1
  C  C178  1  0.47377000  0.75213000  0.46492000  1
  C  C179  1  0.49228000  0.68599000  0.52035000  1
  C  C180  1  0.56656000  0.66307000  0.54034000  1
  C  C181  1  0.82166000  0.88525000  0.48741000  1
  C  C182  1  0.86079000  0.84845000  0.54678000  1
  C  C183  1  0.89619000  0.77035000  0.55099000  1
  C  C184  1  0.88847000  0.73234000  0.49666000  1
  C  C185  1  0.84909000  0.77363000  0.43859000  1
  C  C186  1  0.64704000  0.84586000  0.43362000  1
  C  C187  1  0.59784000  0.78513000  0.45792000  1
  C  C188  1  0.52730000  0.80054000  0.43422000  1
  C  C189  1  0.61772000  0.71533000  0.50760000  1
  C  C190  1  0.77070000  0.43470000  0.40073000  1
  C  C191  1  0.75248000  0.46462000  0.47441000  1
  C  C192  1  0.68643000  0.52024000  0.49274000  1
  C  C193  1  0.66320000  0.54004000  0.56706000  1
  C  C194  1  0.88515000  0.48709000  0.82230000  1
  C  C195  1  0.84836000  0.54670000  0.86110000  1
  C  C196  1  0.77019000  0.55119000  0.89623000  1
  C  C197  1  0.73200000  0.49701000  0.88851000  1
  C  C198  1  0.77332000  0.43866000  0.84955000  1
  C  C199  1  0.84482000  0.43086000  0.64924000  1
  C  C200  1  0.78469000  0.45652000  0.59917000  1
  C  C201  1  0.80053000  0.43344000  0.52826000  1
  C  C202  1  0.71507000  0.50672000  0.61861000  1
  C  C203  1  0.43430000  0.40057000  0.77040000  1
  C  C204  1  0.46442000  0.47407000  0.75222000  1
  C  C205  1  0.51978000  0.49249000  0.68605000  1
  C  C206  1  0.53997000  0.56660000  0.66329000  1
  C  C207  1  0.48760000  0.82222000  0.88524000  1
  C  C208  1  0.54711000  0.86107000  0.84826000  1
  C  C209  1  0.55126000  0.89625000  0.77013000  1
  C  C210  1  0.49688000  0.88854000  0.73217000  1
  C  C211  1  0.43882000  0.84929000  0.77360000  1
  C  C212  1  0.43197000  0.64774000  0.84568000  1
  C  C213  1  0.45683000  0.59845000  0.78491000  1
  C  C214  1  0.43323000  0.52789000  0.80028000  1
  C  C215  1  0.50715000  0.61785000  0.71549000  1
  C  C216  1  0.08933000  0.08930000  0.08972000  1
  C  C217  1  0.41008000  0.41013000  0.40980000  1
  C  C218  1  0.91073000  0.91069000  0.91034000  1
  C  C219  1  0.58996000  0.58992000  0.59020000  1
  N  N220  1  0.34968000  0.31745000  0.93402000  1
  N  N221  1  0.93421000  0.35015000  0.31737000  1
  N  N222  1  0.31704000  0.93448000  0.35020000  1
  N  N223  1  0.18325000  0.15115000  0.56563000  1
  N  N224  1  0.15144000  0.56600000  0.18241000  1
  N  N225  1  0.56565000  0.18264000  0.15119000  1
  N  N226  1  0.65044000  0.68255000  0.06602000  1
  N  N227  1  0.06579000  0.64989000  0.68265000  1
  N  N228  1  0.68298000  0.06554000  0.64982000  1
  N  N229  1  0.81688000  0.84876000  0.43420000  1
  N  N230  1  0.84849000  0.43393000  0.81767000  1
  N  N231  1  0.43438000  0.81739000  0.84876000  1
  Cl  Cl232  1  0.38212000  0.00717000  0.86533000  1
  Cl  Cl233  1  0.12925000  0.92397000  0.05615000  1
  Cl  Cl234  1  0.19558000  0.20539000  0.03548000  1
  Cl  Cl235  1  0.86509000  0.38249000  0.00739000  1
  Cl  Cl236  1  0.05497000  0.12869000  0.92494000  1
  Cl  Cl237  1  0.03534000  0.19579000  0.20574000  1
  Cl  Cl238  1  0.00664000  0.86577000  0.38295000  1
  Cl  Cl239  1  0.92427000  0.05537000  0.12899000  1
  Cl  Cl240  1  0.20544000  0.03492000  0.19594000  1
  Cl  Cl241  1  0.49390000  0.11762000  0.63428000  1
  Cl  Cl242  1  0.57548000  0.37162000  0.44356000  1
  Cl  Cl243  1  0.29610000  0.30172000  0.46239000  1
  Cl  Cl244  1  0.11725000  0.63487000  0.49283000  1
  Cl  Cl245  1  0.37056000  0.44325000  0.57527000  1
  Cl  Cl246  1  0.30217000  0.46328000  0.29503000  1
  Cl  Cl247  1  0.63575000  0.49274000  0.11805000  1
  Cl  Cl248  1  0.44447000  0.57497000  0.37154000  1
  Cl  Cl249  1  0.46238000  0.29608000  0.30132000  1
  Cl  Cl250  1  0.61794000  0.99291000  0.13472000  1
  Cl  Cl251  1  0.87087000  0.07606000  0.94385000  1
  Cl  Cl252  1  0.80446000  0.79469000  0.96457000  1
  Cl  Cl253  1  0.13494000  0.61748000  0.99273000  1
  Cl  Cl254  1  0.94506000  0.87132000  0.07512000  1
  Cl  Cl255  1  0.96474000  0.80417000  0.79433000  1
  Cl  Cl256  1  0.99341000  0.13417000  0.61707000  1
  Cl  Cl257  1  0.07581000  0.94459000  0.87101000  1
  Cl  Cl258  1  0.79461000  0.96503000  0.80413000  1
  Cl  Cl259  1  0.50628000  0.88264000  0.36582000  1
  Cl  Cl260  1  0.42467000  0.62857000  0.55631000  1
  Cl  Cl261  1  0.70412000  0.69815000  0.53761000  1
  Cl  Cl262  1  0.88277000  0.36513000  0.50723000  1
  Cl  Cl263  1  0.62950000  0.55683000  0.42471000  1
  Cl  Cl264  1  0.69780000  0.53663000  0.70504000  1
  Cl  Cl265  1  0.36428000  0.50728000  0.88192000  1
  Cl  Cl266  1  0.55562000  0.42501000  0.62847000  1
  Cl  Cl267  1  0.53761000  0.70394000  0.69869000  1
  O  O268  1  0.34538000  0.19253000  0.86604000  1
  O  O269  1  0.30543000  0.83998000  0.97499000  1
  O  O270  1  0.25396000  0.90310000  0.87136000  1
  O  O271  1  0.38640000  0.14180000  0.97927000  1
  O  O272  1  0.86574000  0.34721000  0.19187000  1
  O  O273  1  0.97436000  0.30478000  0.84050000  1
  O  O274  1  0.87043000  0.25408000  0.90429000  1
  O  O275  1  0.97960000  0.38696000  0.14162000  1
  O  O276  1  0.19196000  0.86612000  0.34623000  1
  O  O277  1  0.83966000  0.97427000  0.30435000  1
  O  O278  1  0.90447000  0.86997000  0.25435000  1
  O  O279  1  0.14151000  0.97937000  0.38722000  1
  O  O280  1  0.30920000  0.15339000  0.63368000  1
  O  O281  1  0.66122000  0.19576000  0.52350000  1
  O  O282  1  0.59695000  0.24437000  0.62884000  1
  O  O283  1  0.35957000  0.11109000  0.52109000  1
  O  O284  1  0.15643000  0.63643000  0.30602000  1
  O  O285  1  0.19555000  0.52322000  0.66028000  1
  O  O286  1  0.24417000  0.62866000  0.59669000  1
  O  O287  1  0.11100000  0.52575000  0.35639000  1
  O  O288  1  0.63473000  0.30643000  0.15628000  1
  O  O289  1  0.52386000  0.66064000  0.19567000  1
  O  O290  1  0.62904000  0.59650000  0.24467000  1
  O  O291  1  0.52502000  0.35957000  0.10937000  1
  O  O292  1  0.65473000  0.80746000  0.13394000  1
  O  O293  1  0.69446000  0.16019000  0.02452000  1
  O  O294  1  0.74593000  0.09811000  0.12819000  1
  O  O295  1  0.61374000  0.85820000  0.02068000  1
  O  O296  1  0.13424000  0.65265000  0.80825000  1
  O  O297  1  0.02548000  0.69496000  0.15958000  1
  O  O298  1  0.12929000  0.74603000  0.09613000  1
  O  O299  1  0.02026000  0.61313000  0.85845000  1
  O  O300  1  0.80794000  0.13381000  0.65411000  1
  O  O301  1  0.16039000  0.02570000  0.69551000  1
  O  O302  1  0.09560000  0.12993000  0.74572000  1
  O  O303  1  0.85845000  0.02070000  0.61286000  1
  O  O304  1  0.69093000  0.84642000  0.36571000  1
  O  O305  1  0.33899000  0.80432000  0.47654000  1
  O  O306  1  0.40316000  0.75569000  0.37121000  1
  O  O307  1  0.64127000  0.88858000  0.47843000  1
  O  O308  1  0.84345000  0.36356000  0.69411000  1
  O  O309  1  0.80447000  0.47681000  0.33974000  1
  O  O310  1  0.75586000  0.37135000  0.40329000  1
  O  O311  1  0.88916000  0.47409000  0.64351000  1
  O  O312  1  0.36524000  0.69362000  0.84364000  1
  O  O313  1  0.47618000  0.33939000  0.80431000  1
  O  O314  1  0.37098000  0.40344000  0.75537000  1
  O  O315  1  0.47495000  0.64047000  0.89060000  1
