# generated using pymatgen
data_ZnH2(C5O4)2
_symmetry_space_group_name_H-M   'P 1'
_cell_length_a   8.07552000
_cell_length_b   8.07776000
_cell_length_c   15.35073000
_cell_angle_alpha   90.30467000
_cell_angle_beta   90.40151000
_cell_angle_gamma   98.53357000
_symmetry_Int_Tables_number   1
_chemical_formula_structural   ZnH2(C5O4)2
_chemical_formula_sum   'Zn2 H4 C20 O16'
_cell_volume   990.22979654
_cell_formula_units_Z   2
loop_
 _symmetry_equiv_pos_site_id
 _symmetry_equiv_pos_as_xyz
  1  'x, y, z'
loop_
 _atom_site_type_symbol
 _atom_site_label
 _atom_site_symmetry_multiplicity
 _atom_site_fract_x
 _atom_site_fract_y
 _atom_site_fract_z
 _atom_site_occupancy
  Zn  Zn0  1  0.99533000  0.00378000  0.75133000  1
  Zn  Zn1  1  0.00240000  0.99591000  0.25119000  1
  H  H2  1  0.12070000  0.23125000  0.49466000  1
  H  H3  1  0.76465000  0.87574000  0.00833000  1
  H  H4  1  0.87940000  0.76711000  0.50786000  1
  H  H5  1  0.23158000  0.12193000  0.99287000  1
  C  C6  1  0.98272000  0.58030000  0.58137000  1
  C  C7  1  0.04501000  0.42459000  0.57769000  1
  C  C8  1  0.07538000  0.35142000  0.49728000  1
  C  C9  1  0.97010000  0.67751000  0.66552000  1
  C  C10  1  0.07362000  0.32656000  0.65863000  1
  C  C11  1  0.41898000  0.01805000  0.92029000  1
  C  C12  1  0.57399000  0.95494000  0.92465000  1
  C  C13  1  0.64522000  0.92250000  0.00528000  1
  C  C14  1  0.32270000  0.03047000  0.83593000  1
  C  C15  1  0.67392000  0.92669000  0.84445000  1
  C  C16  1  0.01865000  0.41891000  0.42125000  1
  C  C17  1  0.95633000  0.57455000  0.42500000  1
  C  C18  1  0.92569000  0.64746000  0.50538000  1
  C  C19  1  0.03071000  0.32283000  0.33672000  1
  C  C20  1  0.92704000  0.67372000  0.34455000  1
  C  C21  1  0.57747000  0.97981000  0.08098000  1
  C  C22  1  0.42280000  0.04411000  0.07650000  1
  C  C23  1  0.35110000  0.07536000  0.99587000  1
  C  C24  1  0.67296000  0.96592000  0.16571000  1
  C  C25  1  0.32342000  0.07641000  0.15623000  1
  O  O26  1  0.00773000  0.83628000  0.65856000  1
  O  O27  1  0.91615000  0.59176000  0.72892000  1
  O  O28  1  0.97537000  0.19120000  0.67090000  1
  O  O29  1  0.20027000  0.39198000  0.69953000  1
  O  O30  1  0.16489000  0.98386000  0.84135000  1
  O  O31  1  0.40844000  0.09259000  0.77428000  1
  O  O32  1  0.80971000  0.02445000  0.83288000  1
  O  O33  1  0.60812000  0.79981000  0.80388000  1
  O  O34  1  0.98393000  0.16497000  0.34169000  1
  O  O35  1  0.09222000  0.40877000  0.27495000  1
  O  O36  1  0.02431000  0.80987000  0.33266000  1
  O  O37  1  0.79988000  0.60791000  0.30414000  1
  O  O38  1  0.83220000  0.99955000  0.15903000  1
  O  O39  1  0.58467000  0.91583000  0.22886000  1
  O  O40  1  0.18432000  0.98339000  0.16704000  1
  O  O41  1  0.39228000  0.20167000  0.19692000  1
