# generated using pymatgen
data_Na2Cd5H48C84(NO6)4
_symmetry_space_group_name_H-M   'P 1'
_cell_length_a   11.94506000
_cell_length_b   25.53470000
_cell_length_c   26.26155000
_cell_angle_alpha   116.65236000
_cell_angle_beta   90.00000000
_cell_angle_gamma   90.00000000
_symmetry_Int_Tables_number   1
_chemical_formula_structural   Na2Cd5H48C84(NO6)4
_chemical_formula_sum   'Na4 Cd10 H96 C168 N8 O48'
_cell_volume   7159.00917226
_cell_formula_units_Z   2
loop_
 _symmetry_equiv_pos_site_id
 _symmetry_equiv_pos_as_xyz
  1  'x, y, z'
loop_
 _atom_site_type_symbol
 _atom_site_label
 _atom_site_symmetry_multiplicity
 _atom_site_fract_x
 _atom_site_fract_y
 _atom_site_fract_z
 _atom_site_occupancy
  Na  Na0  1  0.49980000  0.02372000  0.07312000  1
  Na  Na1  1  0.49979000  0.97628000  0.42685000  1
  Na  Na2  1  0.50021000  0.97628000  0.92690000  1
  Na  Na3  1  0.50022000  0.02372000  0.57311000  1
  Cd  Cd4  1  0.83357000  0.52758000  0.90658000  1
  Cd  Cd5  1  0.26560000  0.93129000  0.48436000  1
  Cd  Cd6  1  0.83357000  0.47242000  0.59343000  1
  Cd  Cd7  1  0.26561000  0.06870000  0.01564000  1
  Cd  Cd8  1  0.16643000  0.47242000  0.09342000  1
  Cd  Cd9  1  0.73441000  0.06870000  0.51565000  1
  Cd  Cd10  1  0.16643000  0.52758000  0.40658000  1
  Cd  Cd11  1  0.73441000  0.93129000  0.98436000  1
  Cd  Cd12  1  0.77146000  0.50000000  0.75000000  1
  Cd  Cd13  1  0.22854000  0.50000000  0.25000000  1
  H  H14  1  0.06705000  0.61143000  0.07265000  1
  H  H15  1  0.19950000  0.68587000  0.13848000  1
  H  H16  1  0.20350000  0.77021000  0.02786000  1
  H  H17  1  0.07489000  0.69351000  0.96129000  1
  H  H18  1  0.45486000  0.81726000  0.19545000  1
  H  H19  1  0.44982000  0.86279000  0.30122000  1
  H  H20  1  0.09624000  0.83391000  0.29711000  1
  H  H21  1  0.09864000  0.78926000  0.19086000  1
  H  H22  1  0.44462000  0.93791000  0.11988000  1
  H  H23  1  0.30668000  0.89172000  0.15825000  1
  H  H24  1  0.43239000  0.72140000  0.04338000  1
  H  H25  1  0.57162000  0.76818000  0.00500000  1
  H  H26  1  0.50922000  0.54606000  0.77004000  1
  H  H27  1  0.35142000  0.60647000  0.76576000  1
  H  H28  1  0.36373000  0.70850000  0.94819000  1
  H  H29  1  0.52187000  0.64691000  0.95249000  1
  H  H30  1  0.14922000  0.60560000  0.85161000  1
  H  H31  1  0.00817000  0.54624000  0.78174000  1
  H  H32  1  0.02394000  0.66108000  0.70158000  1
  H  H33  1  0.16622000  0.72223000  0.77332000  1
  H  H34  1  0.08364000  0.77061000  0.88962000  1
  H  H35  1  0.09423000  0.87923000  0.93966000  1
  H  H36  1  0.45390000  0.86918000  0.93898000  1
  H  H37  1  0.44478000  0.76209000  0.88451000  1
  H  H38  1  0.06705000  0.38857000  0.42735000  1
  H  H39  1  0.19950000  0.31413000  0.36153000  1
  H  H40  1  0.20350000  0.22979000  0.47214000  1
  H  H41  1  0.07489000  0.30648000  0.53872000  1
  H  H42  1  0.45486000  0.18274000  0.30455000  1
  H  H43  1  0.44982000  0.13721000  0.19879000  1
  H  H44  1  0.09624000  0.16609000  0.20289000  1
  H  H45  1  0.09864000  0.21073000  0.30915000  1
  H  H46  1  0.44462000  0.06208000  0.38012000  1
  H  H47  1  0.30668000  0.10828000  0.34176000  1
  H  H48  1  0.43240000  0.27859000  0.45662000  1
  H  H49  1  0.57162000  0.23182000  0.49500000  1
  H  H50  1  0.50922000  0.45393000  0.72996000  1
  H  H51  1  0.35142000  0.39352000  0.73425000  1
  H  H52  1  0.36373000  0.29150000  0.55182000  1
  H  H53  1  0.52187000  0.35309000  0.54752000  1
  H  H54  1  0.14922000  0.39440000  0.64840000  1
  H  H55  1  0.00817000  0.45376000  0.71827000  1
  H  H56  1  0.02394000  0.33891000  0.79843000  1
  H  H57  1  0.16622000  0.27777000  0.72668000  1
  H  H58  1  0.08364000  0.22938000  0.61038000  1
  H  H59  1  0.09423000  0.12076000  0.56035000  1
  H  H60  1  0.45390000  0.13082000  0.56103000  1
  H  H61  1  0.44478000  0.23791000  0.61550000  1
  H  H62  1  0.93295000  0.38857000  0.92735000  1
  H  H63  1  0.80050000  0.31413000  0.86153000  1
  H  H64  1  0.79650000  0.22979000  0.97214000  1
  H  H65  1  0.92511000  0.30648000  0.03872000  1
  H  H66  1  0.54514000  0.18274000  0.80455000  1
  H  H67  1  0.55018000  0.13720000  0.69879000  1
  H  H68  1  0.90376000  0.16609000  0.70289000  1
  H  H69  1  0.90136000  0.21073000  0.80915000  1
  H  H70  1  0.55537000  0.06208000  0.88012000  1
  H  H71  1  0.69331000  0.10828000  0.84176000  1
  H  H72  1  0.56760000  0.27859000  0.95663000  1
  H  H73  1  0.42838000  0.23182000  0.99501000  1
  H  H74  1  0.49078000  0.45393000  0.22996000  1
  H  H75  1  0.64858000  0.39352000  0.23424000  1
  H  H76  1  0.63626000  0.29150000  0.05182000  1
  H  H77  1  0.47813000  0.35309000  0.04752000  1
  H  H78  1  0.85078000  0.39440000  0.14840000  1
  H  H79  1  0.99183000  0.45376000  0.21826000  1
  H  H80  1  0.97606000  0.33891000  0.29843000  1
  H  H81  1  0.83378000  0.27777000  0.22668000  1
  H  H82  1  0.91636000  0.22938000  0.11038000  1
  H  H83  1  0.90577000  0.12077000  0.06034000  1
  H  H84  1  0.54610000  0.13082000  0.06103000  1
  H  H85  1  0.55522000  0.23791000  0.11550000  1
  H  H86  1  0.93295000  0.61143000  0.57265000  1
  H  H87  1  0.80050000  0.68586000  0.63848000  1
  H  H88  1  0.79650000  0.77020000  0.52787000  1
  H  H89  1  0.92511000  0.69351000  0.46128000  1
  H  H90  1  0.54514000  0.81725000  0.69545000  1
  H  H91  1  0.55018000  0.86279000  0.80122000  1
  H  H92  1  0.90376000  0.83390000  0.79711000  1
  H  H93  1  0.90136000  0.78926000  0.69086000  1
  H  H94  1  0.55537000  0.93792000  0.61988000  1
  H  H95  1  0.69331000  0.89172000  0.65825000  1
  H  H96  1  0.56760000  0.72140000  0.54338000  1
  H  H97  1  0.42838000  0.76817000  0.50500000  1
  H  H98  1  0.49078000  0.54606000  0.27004000  1
  H  H99  1  0.64858000  0.60647000  0.26576000  1
  H  H100  1  0.63627000  0.70850000  0.44818000  1
  H  H101  1  0.47813000  0.64691000  0.45248000  1
  H  H102  1  0.85078000  0.60560000  0.35161000  1
  H  H103  1  0.99183000  0.54624000  0.28174000  1
  H  H104  1  0.97606000  0.66108000  0.20158000  1
  H  H105  1  0.83378000  0.72223000  0.27332000  1
  H  H106  1  0.91636000  0.77061000  0.38962000  1
  H  H107  1  0.90577000  0.87923000  0.43966000  1
  H  H108  1  0.54610000  0.86918000  0.43898000  1
  H  H109  1  0.55522000  0.76209000  0.38450000  1
  C  C110  1  0.98033000  0.60515000  0.97367000  1
  C  C111  1  0.06183000  0.64828000  0.01297000  1
  C  C112  1  0.09730000  0.64631000  0.06313000  1
  C  C113  1  0.17129000  0.68825000  0.10019000  1
  C  C114  1  0.20960000  0.73370000  0.08816000  1
  C  C115  1  0.17517000  0.73517000  0.03749000  1
  C  C116  1  0.10295000  0.69255000  0.00027000  1
  C  C117  1  0.27707000  0.80043000  0.18577000  1
  C  C118  1  0.37620000  0.82125000  0.21761000  1
  C  C119  1  0.37339000  0.84697000  0.27662000  1
  C  C120  1  0.27283000  0.85194000  0.30601000  1
  C  C121  1  0.17428000  0.82991000  0.27429000  1
  C  C122  1  0.17577000  0.80479000  0.21495000  1
  C  C123  1  0.27282000  0.88021000  0.36920000  1
  C  C124  1  0.59781000  0.88516000  0.03786000  1
  C  C125  1  0.51674000  0.85614000  0.06006000  1
  C  C126  1  0.44178000  0.89056000  0.10336000  1
  C  C127  1  0.36457000  0.86486000  0.12473000  1
  C  C128  1  0.36102000  0.80365000  0.10297000  1
  C  C129  1  0.43546000  0.76878000  0.05953000  1
  C  C130  1  0.51281000  0.79484000  0.03824000  1
  C  C131  1  0.62002000  0.55515000  0.86362000  1
  C  C132  1  0.52519000  0.59182000  0.86179000  1
  C  C133  1  0.47625000  0.58084000  0.80924000  1
  C  C134  1  0.38831000  0.61513000  0.80662000  1
  C  C135  1  0.34764000  0.66161000  0.85678000  1
  C  C136  1  0.39610000  0.67286000  0.90947000  1
  C  C137  1  0.48413000  0.63842000  0.91182000  1
  C  C138  1  0.16851000  0.66722000  0.81633000  1
  C  C139  1  0.12201000  0.61798000  0.81897000  1
  C  C140  1  0.04224000  0.58448000  0.77931000  1
  C  C141  1  0.00697000  0.59911000  0.73621000  1
  C  C142  1  0.05052000  0.64989000  0.73513000  1
  C  C143  1  0.13002000  0.68396000  0.77507000  1
  C  C144  1  0.26348000  0.75852000  0.88343000  1
  C  C145  1  0.16467000  0.79226000  0.89956000  1
  C  C146  1  0.17044000  0.85311000  0.92815000  1
  C  C147  1  0.27438000  0.88181000  0.94328000  1
  C  C148  1  0.37255000  0.84787000  0.92795000  1
  C  C149  1  0.36776000  0.78727000  0.89751000  1
  C  C150  1  0.28205000  0.94679000  0.97314000  1
  C  C151  1  0.93241000  0.55884000  0.69037000  1
  C  C152  1  0.98033000  0.39484000  0.52633000  1
  C  C153  1  0.06183000  0.35172000  0.48703000  1
  C  C154  1  0.09730000  0.35368000  0.43688000  1
  C  C155  1  0.17129000  0.31175000  0.39981000  1
  C  C156  1  0.20960000  0.26630000  0.41184000  1
  C  C157  1  0.17517000  0.26483000  0.46251000  1
  C  C158  1  0.10295000  0.30744000  0.49973000  1
  C  C159  1  0.27707000  0.19956000  0.31423000  1
  C  C160  1  0.37620000  0.17875000  0.28239000  1
  C  C161  1  0.37339000  0.15302000  0.22338000  1
  C  C162  1  0.27283000  0.14806000  0.19400000  1
  C  C163  1  0.17428000  0.17009000  0.22571000  1
  C  C164  1  0.17577000  0.19521000  0.28505000  1
  C  C165  1  0.27282000  0.11979000  0.13080000  1
  C  C166  1  0.59781000  0.11484000  0.46215000  1
  C  C167  1  0.51674000  0.14385000  0.43995000  1
  C  C168  1  0.44178000  0.10944000  0.39665000  1
  C  C169  1  0.36457000  0.13513000  0.37527000  1
  C  C170  1  0.36102000  0.19635000  0.39703000  1
  C  C171  1  0.43546000  0.23121000  0.44047000  1
  C  C172  1  0.51281000  0.20516000  0.46176000  1
  C  C173  1  0.62002000  0.44484000  0.63639000  1
  C  C174  1  0.52519000  0.40817000  0.63822000  1
  C  C175  1  0.47625000  0.41915000  0.69076000  1
  C  C176  1  0.38831000  0.38487000  0.69338000  1
  C  C177  1  0.34764000  0.33838000  0.64322000  1
  C  C178  1  0.39610000  0.32713000  0.59054000  1
  C  C179  1  0.48413000  0.36157000  0.58819000  1
  C  C180  1  0.16851000  0.33278000  0.68367000  1
  C  C181  1  0.12200000  0.38201000  0.68104000  1
  C  C182  1  0.04224000  0.41551000  0.72069000  1
  C  C183  1  0.00697000  0.40089000  0.76380000  1
  C  C184  1  0.05052000  0.35010000  0.76487000  1
  C  C185  1  0.13002000  0.31603000  0.72494000  1
  C  C186  1  0.26348000  0.24147000  0.61658000  1
  C  C187  1  0.16467000  0.20773000  0.60044000  1
  C  C188  1  0.17044000  0.14688000  0.57186000  1
  C  C189  1  0.27438000  0.11818000  0.55673000  1
  C  C190  1  0.37255000  0.15213000  0.57206000  1
  C  C191  1  0.36776000  0.21273000  0.60250000  1
  C  C192  1  0.28205000  0.05320000  0.52686000  1
  C  C193  1  0.93241000  0.44115000  0.80963000  1
  C  C194  1  0.01967000  0.39485000  0.02633000  1
  C  C195  1  0.93817000  0.35172000  0.98703000  1
  C  C196  1  0.90270000  0.35368000  0.93688000  1
  C  C197  1  0.82871000  0.31175000  0.89982000  1
  C  C198  1  0.79040000  0.26630000  0.91184000  1
  C  C199  1  0.82483000  0.26483000  0.96251000  1
  C  C200  1  0.89705000  0.30744000  0.99973000  1
  C  C201  1  0.72293000  0.19956000  0.81423000  1
  C  C202  1  0.62380000  0.17874000  0.78239000  1
  C  C203  1  0.62660000  0.15302000  0.72338000  1
  C  C204  1  0.72717000  0.14806000  0.69400000  1
  C  C205  1  0.82572000  0.17009000  0.72572000  1
  C  C206  1  0.82423000  0.19520000  0.78505000  1
  C  C207  1  0.72718000  0.11979000  0.63080000  1
  C  C208  1  0.40220000  0.11483000  0.96214000  1
  C  C209  1  0.48326000  0.14385000  0.93995000  1
  C  C210  1  0.55822000  0.10944000  0.89665000  1
  C  C211  1  0.63543000  0.13513000  0.87528000  1
  C  C212  1  0.63897000  0.19635000  0.89703000  1
  C  C213  1  0.56454000  0.23121000  0.94047000  1
  C  C214  1  0.48718000  0.20516000  0.96177000  1
  C  C215  1  0.37998000  0.44484000  0.13639000  1
  C  C216  1  0.47481000  0.40817000  0.13822000  1
  C  C217  1  0.52375000  0.41915000  0.19076000  1
  C  C218  1  0.61169000  0.38487000  0.19338000  1
  C  C219  1  0.65236000  0.33838000  0.14322000  1
  C  C220  1  0.60390000  0.32713000  0.09054000  1
  C  C221  1  0.51587000  0.36157000  0.08819000  1
  C  C222  1  0.83149000  0.33278000  0.18367000  1
  C  C223  1  0.87799000  0.38201000  0.18104000  1
  C  C224  1  0.95776000  0.41551000  0.22069000  1
  C  C225  1  0.99303000  0.40089000  0.26379000  1
  C  C226  1  0.94948000  0.35010000  0.26487000  1
  C  C227  1  0.86998000  0.31603000  0.22494000  1
  C  C228  1  0.73652000  0.24147000  0.11658000  1
  C  C229  1  0.83533000  0.20773000  0.10044000  1
  C  C230  1  0.82956000  0.14688000  0.07185000  1
  C  C231  1  0.72561000  0.11818000  0.05672000  1
  C  C232  1  0.62745000  0.15213000  0.07205000  1
  C  C233  1  0.63224000  0.21273000  0.10250000  1
  C  C234  1  0.71793000  0.05320000  0.02687000  1
  C  C235  1  0.06759000  0.44115000  0.30963000  1
  C  C236  1  0.01967000  0.60515000  0.47367000  1
  C  C237  1  0.93817000  0.64828000  0.51298000  1
  C  C238  1  0.90270000  0.64631000  0.56313000  1
  C  C239  1  0.82871000  0.68825000  0.60019000  1
  C  C240  1  0.79040000  0.73370000  0.58817000  1
  C  C241  1  0.82483000  0.73517000  0.53750000  1
  C  C242  1  0.89705000  0.69255000  0.50027000  1
  C  C243  1  0.72293000  0.80043000  0.68577000  1
  C  C244  1  0.62380000  0.82125000  0.71762000  1
  C  C245  1  0.62660000  0.84697000  0.77662000  1
  C  C246  1  0.72717000  0.85194000  0.80601000  1
  C  C247  1  0.82572000  0.82991000  0.77429000  1
  C  C248  1  0.82423000  0.80479000  0.71495000  1
  C  C249  1  0.72718000  0.88021000  0.86920000  1
  C  C250  1  0.40220000  0.88516000  0.53786000  1
  C  C251  1  0.48326000  0.85614000  0.56006000  1
  C  C252  1  0.55822000  0.89056000  0.60336000  1
  C  C253  1  0.63543000  0.86486000  0.62473000  1
  C  C254  1  0.63897000  0.80365000  0.60298000  1
  C  C255  1  0.56454000  0.76878000  0.55953000  1
  C  C256  1  0.48718000  0.79484000  0.53824000  1
  C  C257  1  0.37998000  0.55515000  0.36361000  1
  C  C258  1  0.47481000  0.59182000  0.36178000  1
  C  C259  1  0.52375000  0.58084000  0.30924000  1
  C  C260  1  0.61169000  0.61513000  0.30662000  1
  C  C261  1  0.65236000  0.66161000  0.35678000  1
  C  C262  1  0.60390000  0.67286000  0.40946000  1
  C  C263  1  0.51587000  0.63842000  0.41181000  1
  C  C264  1  0.83149000  0.66722000  0.31633000  1
  C  C265  1  0.87799000  0.61798000  0.31896000  1
  C  C266  1  0.95776000  0.58449000  0.27931000  1
  C  C267  1  0.99303000  0.59911000  0.23621000  1
  C  C268  1  0.94948000  0.64989000  0.23513000  1
  C  C269  1  0.86998000  0.68396000  0.27507000  1
  C  C270  1  0.73652000  0.75853000  0.38343000  1
  C  C271  1  0.83533000  0.79226000  0.39956000  1
  C  C272  1  0.82956000  0.85311000  0.42815000  1
  C  C273  1  0.72562000  0.88181000  0.44328000  1
  C  C274  1  0.62745000  0.84787000  0.42795000  1
  C  C275  1  0.63224000  0.78727000  0.39751000  1
  C  C276  1  0.71793000  0.94679000  0.47314000  1
  C  C277  1  0.06759000  0.55884000  0.19037000  1
  N  N278  1  0.28282000  0.77763000  0.12582000  1
  N  N279  1  0.25835000  0.69682000  0.85364000  1
  N  N280  1  0.28283000  0.22237000  0.37418000  1
  N  N281  1  0.25835000  0.30317000  0.64637000  1
  N  N282  1  0.71717000  0.22237000  0.87419000  1
  N  N283  1  0.74165000  0.30317000  0.14636000  1
  N  N284  1  0.71717000  0.77763000  0.62582000  1
  N  N285  1  0.74165000  0.69682000  0.35364000  1
  O  O286  1  0.89430000  0.51189000  0.69301000  1
  O  O287  1  0.91128000  0.56608000  0.64670000  1
  O  O288  1  0.93677000  0.56741000  0.98784000  1
  O  O289  1  0.95506000  0.60652000  0.92692000  1
  O  O290  1  0.66570000  0.56736000  0.91161000  1
  O  O291  1  0.65095000  0.51148000  0.81665000  1
  O  O292  1  0.19390000  0.97709000  0.97710000  1
  O  O293  1  0.37754000  0.97066000  0.99228000  1
  O  O294  1  0.66638000  0.85391000  0.99860000  1
  O  O295  1  0.59587000  0.94125000  0.05818000  1
  O  O296  1  0.18491000  0.87810000  0.39592000  1
  O  O297  1  0.36233000  0.90675000  0.39599000  1
  O  O298  1  0.89430000  0.48810000  0.80700000  1
  O  O299  1  0.91128000  0.43391000  0.85331000  1
  O  O300  1  0.93677000  0.43258000  0.51216000  1
  O  O301  1  0.95506000  0.39348000  0.57309000  1
  O  O302  1  0.66570000  0.43263000  0.58839000  1
  O  O303  1  0.65095000  0.48851000  0.68336000  1
  O  O304  1  0.19390000  0.02290000  0.52291000  1
  O  O305  1  0.37754000  0.02934000  0.50773000  1
  O  O306  1  0.66639000  0.14609000  0.50140000  1
  O  O307  1  0.59586000  0.05875000  0.44183000  1
  O  O308  1  0.18491000  0.12190000  0.10408000  1
  O  O309  1  0.36233000  0.09324000  0.10401000  1
  O  O310  1  0.10570000  0.48810000  0.30700000  1
  O  O311  1  0.08872000  0.43391000  0.35331000  1
  O  O312  1  0.06323000  0.43258000  0.01216000  1
  O  O313  1  0.04494000  0.39348000  0.07309000  1
  O  O314  1  0.33430000  0.43263000  0.08839000  1
  O  O315  1  0.34905000  0.48851000  0.18336000  1
  O  O316  1  0.80609000  0.02290000  0.02291000  1
  O  O317  1  0.62244000  0.02934000  0.00776000  1
  O  O318  1  0.33362000  0.14608000  0.00140000  1
  O  O319  1  0.40415000  0.05874000  0.94183000  1
  O  O320  1  0.81510000  0.12190000  0.60409000  1
  O  O321  1  0.63767000  0.09325000  0.60401000  1
  O  O322  1  0.10570000  0.51189000  0.19300000  1
  O  O323  1  0.08872000  0.56608000  0.14669000  1
  O  O324  1  0.06323000  0.56741000  0.48784000  1
  O  O325  1  0.04494000  0.60652000  0.42692000  1
  O  O326  1  0.33430000  0.56736000  0.41161000  1
  O  O327  1  0.34905000  0.51148000  0.31664000  1
  O  O328  1  0.80609000  0.97709000  0.47709000  1
  O  O329  1  0.62244000  0.97066000  0.49226000  1
  O  O330  1  0.33361000  0.85391000  0.49860000  1
  O  O331  1  0.40415000  0.94125000  0.55818000  1
  O  O332  1  0.81510000  0.87810000  0.89592000  1
  O  O333  1  0.63767000  0.90675000  0.89599000  1
