# generated using pymatgen
data_AlH4C8O5
_symmetry_space_group_name_H-M   'P 1'
_cell_length_a   11.77400000
_cell_length_b   11.99836637
_cell_length_c   11.99836637
_cell_angle_alpha   76.06992485
_cell_angle_beta   60.61667842
_cell_angle_gamma   60.61667842
_symmetry_Int_Tables_number   1
_chemical_formula_structural   AlH4C8O5
_chemical_formula_sum   'Al4 H16 C32 O20'
_cell_volume   1286.94560895
_cell_formula_units_Z   4
loop_
 _symmetry_equiv_pos_site_id
 _symmetry_equiv_pos_as_xyz
  1  'x, y, z'
loop_
 _atom_site_type_symbol
 _atom_site_label
 _atom_site_symmetry_multiplicity
 _atom_site_fract_x
 _atom_site_fract_y
 _atom_site_fract_z
 _atom_site_occupancy
  Al  Al1  1  0.19243000  0.00000000  0.61514000  1.0
  Al  Al3  1  0.80757000  0.00000000  0.38486000  1.0
  Al  Al5  1  0.94243000  0.11514000  0.50000000  1.0
  Al  Al7  1  0.55757000  0.88486000  0.50000000  1.0
  C  C1  1  0.89725000  0.04300000  0.76850000  1.0
  C  C2  1  0.78467000  0.02612000  0.88764000  1.0
  C  C3  1  0.66640000  0.02612000  0.88764000  1.0
  C  C7  1  0.70875000  0.95700000  0.23150000  1.0
  C  C8  1  0.69843000  0.97388000  0.11236000  1.0
  C  C9  1  0.58016000  0.97388000  0.11236000  1.0
  C  C13  1  0.69025000  0.26850000  0.45700000  1.0
  C  C14  1  0.56079000  0.38764000  0.47388000  1.0
  C  C15  1  0.44252000  0.38764000  0.47388000  1.0
  C  C19  1  0.41575000  0.73150000  0.54300000  1.0
  C  C20  1  0.42231000  0.61236000  0.52612000  1.0
  C  C21  1  0.30404000  0.61236000  0.52612000  1.0
  C  C25  1  0.85275000  0.73150000  0.45700000  1.0
  C  C26  1  0.96533000  0.61236000  0.47388000  1.0
  C  C27  1  0.08360000  0.61236000  0.47388000  1.0
  C  C31  1  0.04125000  0.26850000  0.54300000  1.0
  C  C32  1  0.05157000  0.38764000  0.52612000  1.0
  C  C33  1  0.16984000  0.38764000  0.52612000  1.0
  C  C37  1  0.05975000  0.04300000  0.23150000  1.0
  C  C38  1  0.18921000  0.02612000  0.11236000  1.0
  C  C39  1  0.30748000  0.02612000  0.11236000  1.0
  C  C43  1  0.33425000  0.95700000  0.76850000  1.0
  C  C44  1  0.32769000  0.97388000  0.88764000  1.0
  C  C45  1  0.44596000  0.97388000  0.88764000  1.0
  C  C49  1  0.80069000  0.00000000  0.00000000  1.0
  C  C50  1  0.56414000  0.00000000  0.00000000  1.0
  C  C53  1  0.55069000  0.50000000  0.50000000  1.0
  C  C54  1  0.31414000  0.50000000  0.50000000  1.0
  C  C57  1  0.94931000  0.50000000  0.50000000  1.0
  C  C58  1  0.18586000  0.50000000  0.50000000  1.0
  C  C61  1  0.19931000  0.00000000  0.00000000  1.0
  C  C62  1  0.43586000  0.00000000  0.00000000  1.0
  H  H1  1  0.65432000  0.04581000  0.80293000  1.0
  H  H3  1  0.50306000  0.95419000  0.19707000  1.0
  H  H5  1  0.45013000  0.30293000  0.45419000  1.0
  H  H7  1  0.20725000  0.69707000  0.54581000  1.0
  H  H9  1  0.09568000  0.69707000  0.45419000  1.0
  H  H11  1  0.24694000  0.30293000  0.54581000  1.0
  H  H13  1  0.29987000  0.04581000  0.19707000  1.0
  H  H15  1  0.54275000  0.95419000  0.80293000  1.0
  H  H17  1  0.18994000  0.93506000  0.43506000  1.0
  H  H19  1  0.56006000  0.06494000  0.56494000  1.0
  H  H21  1  0.87500000  0.93506000  0.56494000  1.0
  H  H23  1  0.37500000  0.06494000  0.43506000  1.0
  H  H25  1  0.88987000  0.00000000  0.00000000  1.0
  H  H27  1  0.63987000  0.50000000  0.50000000  1.0
  H  H29  1  0.86013000  0.50000000  0.50000000  1.0
  H  H31  1  0.11013000  0.00000000  0.00000000  1.0
  O  O1  1  0.02503000  0.99484000  0.75516000  1.0
  O  O2  1  0.86691000  0.10578000  0.67874000  1.0
  O  O5  1  0.77503000  0.00516000  0.24484000  1.0
  O  O6  1  0.65143000  0.89422000  0.32126000  1.0
  O  O9  1  0.76987000  0.25516000  0.50516000  1.0
  O  O10  1  0.72269000  0.17874000  0.39422000  1.0
  O  O13  1  0.53019000  0.74484000  0.49484000  1.0
  O  O14  1  0.29565000  0.82126000  0.60578000  1.0
  O  O17  1  0.72497000  0.74484000  0.50516000  1.0
  O  O18  1  0.88309000  0.82126000  0.39422000  1.0
  O  O21  1  0.97497000  0.25516000  0.49484000  1.0
  O  O22  1  0.09857000  0.17874000  0.60578000  1.0
  O  O25  1  0.98013000  0.99484000  0.24484000  1.0
  O  O26  1  0.02731000  0.10578000  0.32126000  1.0
  O  O29  1  0.21981000  0.00516000  0.75516000  1.0
  O  O30  1  0.45435000  0.89422000  0.67874000  1.0
  O  O33  1  0.12750000  0.99750000  0.49750000  1.0
  O  O35  1  0.62250000  0.00250000  0.50250000  1.0
  O  O37  1  0.87500000  0.99750000  0.50250000  1.0
  O  O39  1  0.37500000  0.00250000  0.49750000  1.0
