# generated using pymatgen
data_H13C20N6O7
_symmetry_space_group_name_H-M   'P 1'
_cell_length_a   37.91465000
_cell_length_b   37.91460000
_cell_length_c   54.36700000
_cell_angle_alpha   90.00000000
_cell_angle_beta   90.00000000
_cell_angle_gamma   119.99986913
_symmetry_Int_Tables_number   1
_chemical_formula_structural   H13C20N6O7
_chemical_formula_sum   'H156 C240 N72 O84'
_cell_volume   67683.07839402
_cell_formula_units_Z   12
loop_
 _symmetry_equiv_pos_site_id
 _symmetry_equiv_pos_as_xyz
  1  'x, y, z'
loop_
 _atom_site_type_symbol
 _atom_site_label
 _atom_site_symmetry_multiplicity
 _atom_site_fract_x
 _atom_site_fract_y
 _atom_site_fract_z
 _atom_site_occupancy
  H  7  1  0.67894300  0.21165800  0.01042300  1
  H  16  1  0.79378700  0.32359600  0.99139000  1
  H  17  1  0.62694600  0.19983100  0.92539900  1
  H  18  1  0.79656100  0.39285100  0.06828500  1
  H  19  1  0.74357200  0.30977200  0.96210900  1
  H  20  1  0.68743800  0.26733700  0.03409900  1
  H  35  1  0.53370100  0.32237400  0.34366100  1
  H  44  1  0.53132000  0.20786000  0.32449000  1
  H  45  1  0.57293100  0.37431000  0.25854900  1
  H  46  1  0.59879700  0.20553000  0.40101400  1
  H  47  1  0.56751500  0.25821000  0.29520200  1
  H  48  1  0.58124800  0.31420600  0.36720700  1
  H  63  1  0.78959400  0.46674300  0.67699900  1
  H  72  1  0.67766500  0.46965100  0.65795300  1
  H  73  1  0.80154400  0.42675100  0.59195300  1
  H  74  1  0.60837800  0.40313300  0.73483400  1
  H  75  1  0.69152900  0.43331300  0.62865600  1
  H  76  1  0.73389700  0.41952100  0.70065000  1
  H  91  1  0.32591000  0.79106300  0.01122600  1
  H  100  1  0.20944300  0.68007100  0.99303500  1
  H  101  1  0.37512800  0.79920900  0.92568900  1
  H  102  1  0.20404500  0.61231900  0.07100000  1
  H  103  1  0.25923600  0.69129900  0.96440700  1
  H  104  1  0.31510800  0.73600000  0.03636100  1
  H  119  1  0.46726100  0.67584900  0.34454800  1
  H  128  1  0.47250400  0.79224200  0.32646300  1
  H  129  1  0.42626600  0.62674600  0.25898300  1
  H  130  1  0.40987600  0.79726700  0.40440000  1
  H  131  1  0.43401800  0.74246600  0.29779300  1
  H  132  1  0.42286700  0.68645600  0.36968400  1
  H  147  1  0.21028000  0.53447600  0.67789900  1
  H  156  1  0.32127700  0.52903200  0.65964100  1
  H  157  1  0.20215700  0.57573700  0.59240000  1
  H  158  1  0.38903200  0.59122100  0.73763300  1
  H  159  1  0.31004900  0.56766000  0.63106700  1
  H  160  1  0.26533200  0.57865300  0.70306100  1
  H  175  1  0.77537200  0.33071200  0.88816700  1
  H  182  1  0.70932200  0.34509700  0.76255300  1
  H  183  1  0.75876000  0.43632000  0.83258800  1
  H  184  1  0.67435600  0.35701700  0.85138100  1
  H  186  1  0.70463500  0.29458700  0.81864400  1
  H  187  1  0.69571400  0.28936000  0.78867000  1
  H  189  1  0.81623600  0.35607700  0.85200200  1
  H  190  1  0.80245400  0.37333500  0.82799400  1
  H  198  1  0.70564100  0.32324700  0.92950000  1
  H  200  1  0.75254900  0.44280900  0.74449600  1
  H  207  1  0.55640700  0.22661200  0.22128900  1
  H  214  1  0.63741900  0.29186300  0.09577200  1
  H  215  1  0.67903100  0.24282200  0.16607800  1
  H  216  1  0.68413900  0.32710800  0.18467200  1
  H  218  1  0.59134800  0.29674400  0.15171000  1
  H  219  1  0.59514600  0.30552100  0.12171800  1
  H  221  1  0.54097400  0.18558700  0.18520500  1
  H  222  1  0.57216300  0.19914900  0.16127900  1
  H  230  1  0.61871800  0.29642400  0.26261400  1
  H  232  1  0.69204800  0.24870700  0.07797800  1
  H  239  1  0.67071000  0.44440200  0.55474100  1
  H  246  1  0.65608600  0.36422900  0.42904600  1
  H  247  1  0.56498800  0.32215500  0.49914700  1
  H  248  1  0.64421700  0.31708700  0.51785500  1
  H  250  1  0.70665600  0.41001500  0.48512900  1
  H  251  1  0.71183900  0.40639300  0.45514200  1
  H  253  1  0.64534600  0.45999700  0.51861300  1
  H  254  1  0.62803100  0.42899600  0.49458900  1
  H  262  1  0.67808900  0.38199900  0.59600900  1
  H  264  1  0.55833500  0.30958800  0.41108800  1
  H  271  1  0.22513900  0.66788900  0.89067900  1
  H  278  1  0.29206200  0.65259200  0.76509300  1
  H  279  1  0.23728100  0.56097500  0.83470600  1
  H  280  1  0.32501600  0.64036200  0.85342400  1
  H  282  1  0.29802400  0.70359400  0.82119900  1
  H  283  1  0.30774600  0.70879000  0.79130900  1
  H  285  1  0.18377900  0.64255100  0.85469500  1
  H  286  1  0.19707400  0.62499800  0.83061100  1
  H  294  1  0.29549300  0.67575200  0.93165600  1
  H  296  1  0.24538100  0.55491000  0.74659800  1
  H  303  1  0.44451000  0.77663700  0.22402100  1
  H  310  1  0.36252100  0.70933400  0.09843700  1
  H  311  1  0.32532200  0.76388100  0.16800700  1
  H  312  1  0.31730400  0.67624400  0.18680900  1
  H  314  1  0.40744500  0.70338700  0.15459400  1
  H  315  1  0.40302400  0.69370700  0.12470100  1
  H  317  1  0.46035700  0.81787200  0.18799500  1
  H  318  1  0.42950500  0.80438200  0.16390500  1
  H  326  1  0.38221600  0.70616000  0.26504600  1
  H  328  1  0.31140000  0.75595000  0.07992600  1
  H  335  1  0.33346800  0.55704200  0.55737000  1
  H  342  1  0.34866800  0.63875900  0.43174200  1
  H  343  1  0.44034900  0.67632200  0.50136500  1
  H  344  1  0.36101900  0.68444500  0.52010400  1
  H  346  1  0.29776400  0.59394900  0.48790900  1
  H  347  1  0.29253500  0.59826000  0.45799900  1
  H  349  1  0.35880300  0.54100700  0.52139400  1
  H  350  1  0.37636800  0.57185000  0.49730900  1
  H  358  1  0.32560900  0.61952900  0.59834500  1
  H  360  1  0.44641200  0.69009300  0.41326600  1
  H  367  1  0.92822100  0.40332600  0.03926900  1
  H  374  1  0.12035300  0.56047100  0.98514300  1
  H  375  1  0.99769900  0.55177200  0.01835000  1
  H  376  1  0.96210300  0.48865300  0.96670100  1
  H  378  1  0.03197200  0.46360600  0.97567500  1
  H  379  1  0.08173500  0.49185800  0.97121100  1
  H  381  1  0.99374800  0.44812900  0.05591500  1
  H  382  1  0.02799500  0.48975200  0.04150900  1
  H  390  1  0.86292400  0.35202400  0.00197300  1
  H  392  1  0.13926800  0.65196100  0.00418900  1
  H  399  1  0.47670700  0.07373700  0.37231300  1
  H  406  1  0.44189800  0.88131600  0.31871000  1
  H  407  1  0.55586100  0.00394600  0.35194000  1
  H  408  1  0.52896400  0.03951900  0.30025300  1
  H  410  1  0.43351800  0.96974400  0.30917200  1
  H  411  1  0.41197800  0.91997200  0.30472400  1
  H  413  1  0.45565900  0.00821200  0.38910200  1
  H  414  1  0.46315700  0.97389200  0.37489700  1
  H  422  1  0.49049500  0.13844000  0.33572400  1
  H  424  1  0.51449300  0.86238400  0.33780100  1
  H  431  1  0.59797900  0.52437700  0.70586600  1
  H  438  1  0.44090500  0.55950400  0.65172500  1
  H  439  1  0.44955400  0.44552400  0.68494000  1
  H  440  1  0.51268000  0.47306000  0.63328000  1
  H  442  1  0.53776700  0.56796700  0.64228100  1
  H  443  1  0.50952500  0.58948900  0.63780800  1
  H  445  1  0.55320300  0.54512800  0.72252100  1
  H  446  1  0.51160100  0.53780200  0.70811500  1
  H  454  1  0.64927300  0.51039000  0.66856600  1
  H  456  1  0.34939600  0.48693400  0.67075800  1
  H  463  1  0.52484100  0.59609200  0.29770300  1
  H  470  1  0.56167000  0.44072800  0.34995400  1
  H  471  1  0.44340900  0.44726900  0.32273100  1
  H  472  1  0.47489300  0.51329900  0.37129200  1
  H  474  1  0.57160600  0.53840900  0.35863900  1
  H  475  1  0.59369200  0.51045400  0.36200500  1
  H  477  1  0.54348500  0.54983300  0.28103500  1
  H  478  1  0.53590100  0.50838400  0.29574100  1
  H  486  1  0.50926200  0.64748700  0.33885300  1
  H  488  1  0.48689800  0.34804200  0.33625800  1
  H  495  1  0.40583000  0.92812300  0.96413900  1
  H  502  1  0.55927500  0.12131500  0.01561000  1
  H  503  1  0.55476500  0.99657100  0.99044900  1
  H  504  1  0.48779400  0.96199800  0.03813600  1
  H  506  1  0.46187200  0.03315500  0.02425400  1
  H  507  1  0.48932300  0.08331400  0.02717200  1
  H  509  1  0.45208800  0.99289500  0.94733800  1
  H  510  1  0.49331200  0.02701600  0.96210600  1
  H  518  1  0.35421200  0.86144500  0.00547500  1
  H  520  1  0.65292800  0.13881500  0.00246200  1
  H  527  1  0.07325000  0.47737600  0.63079800  1
  H  534  1  0.87997600  0.43750300  0.68219900  1
  H  535  1  0.00471800  0.55779800  0.65709900  1
  H  536  1  0.03927800  0.52540200  0.70478800  1
  H  538  1  0.96815800  0.42830700  0.69087500  1
  H  539  1  0.91799600  0.40557600  0.69377200  1
  H  541  1  0.00848600  0.45884300  0.61397800  1
  H  542  1  0.97433600  0.46591800  0.62873600  1
  H  550  1  0.13988700  0.49242200  0.67213200  1
  H  552  1  0.86244200  0.51363400  0.66906800  1
  C  1  1  0.71547500  0.26449200  0.98946200  1
  C  2  1  0.68480900  0.22338000  0.99298000  1
  C  3  1  0.66073600  0.19847300  0.97335100  1
  C  4  1  0.66874100  0.21492600  0.94920400  1
  C  5  1  0.69990500  0.25567700  0.94495500  1
  C  6  1  0.72215700  0.27993900  0.96519400  1
  C  9  1  0.73755500  0.29044000  0.00977700  1
  C  10  1  0.71789500  0.28783200  0.03236000  1
  C  11  1  0.73835000  0.31406100  0.05229500  1
  C  12  1  0.77948500  0.34514600  0.04918500  1
  C  13  1  0.80037400  0.34871800  0.02682200  1
  C  14  1  0.77904000  0.32090900  0.00763200  1
  C  21  1  0.84097600  0.38120700  0.02298700  1
  C  22  1  0.70852300  0.27299000  0.92100300  1
  C  23  1  0.71685900  0.30952200  0.07459000  1
  C  24  1  0.62664300  0.15933900  0.97843000  1
  C  29  1  0.55017400  0.28607100  0.32261500  1
  C  30  1  0.53945400  0.31652700  0.32619100  1
  C  31  1  0.53828400  0.34046100  0.30658200  1
  C  32  1  0.54668000  0.33251400  0.28240400  1
  C  33  1  0.55659600  0.30159300  0.27810900  1
  C  34  1  0.55890300  0.27946900  0.29832300  1
  C  37  1  0.55430400  0.26408600  0.34288900  1
  C  38  1  0.57141100  0.28377800  0.36545800  1
  C  39  1  0.57752800  0.26343300  0.38532600  1
  C  40  1  0.56775400  0.22238400  0.38215300  1
  C  41  1  0.55032500  0.20147100  0.35981800  1
  C  42  1  0.54349400  0.22266500  0.34070500  1
  C  49  1  0.54250200  0.16100000  0.35589300  1
  C  50  1  0.56535600  0.29309700  0.25414000  1
  C  51  1  0.59450900  0.28494800  0.40761500  1
  C  52  1  0.53289100  0.37434000  0.31168800  1
  C  57  1  0.73677500  0.45045500  0.65602300  1
  C  58  1  0.77788900  0.46091300  0.65955300  1
  C  59  1  0.80282700  0.46180000  0.63992700  1
  C  60  1  0.78639900  0.45338800  0.61577300  1
  C  61  1  0.74564900  0.44379100  0.61151300  1
  C  62  1  0.72135700  0.44173100  0.63174900  1
  C  65  1  0.71080400  0.44655200  0.67633300  1
  C  66  1  0.71340000  0.42948000  0.69891300  1
  C  67  1  0.68716600  0.42369600  0.71884600  1
  C  68  1  0.65608600  0.43375500  0.71573800  1
  C  69  1  0.65252500  0.45108700  0.69337900  1
  C  70  1  0.68033800  0.45757200  0.67419000  1
  C  77  1  0.62005000  0.45922400  0.68954900  1
  C  78  1  0.72836400  0.43514600  0.58755300  1
  C  79  1  0.69173300  0.40678300  0.74115200  1
  C  80  1  0.84196500  0.46685600  0.64501300  1
  C  85  1  0.28825200  0.73766800  0.99106900  1
  C  86  1  0.31956000  0.77869200  0.99396600  1
  C  87  1  0.34323400  0.80269100  0.97391900  1
  C  88  1  0.33428700  0.78521100  0.95002000  1
  C  89  1  0.30286800  0.74438400  0.94643400  1
  C  90  1  0.28101600  0.72113400  0.96705700  1
  C  93  1  0.26551600  0.71292800  0.01166000  1
  C  94  1  0.28455400  0.71597100  0.03455100  1
  C  95  1  0.26338100  0.69046100  0.05463700  1
  C  96  1  0.22213100  0.65968200  0.05138100  1
  C  97  1  0.20184600  0.65576400  0.02873000  1
  C  98  1  0.22383600  0.68301600  0.00945300  1
  C  105  1  0.16167900  0.62277200  0.02431300  1
  C  106  1  0.29319800  0.72618100  0.92272500  1
  C  107  1  0.28443500  0.69485300  0.07710800  1
  C  108  1  0.37703900  0.84252700  0.97790900  1
  C  113  1  0.45145400  0.71347800  0.32442300  1
  C  114  1  0.46121300  0.68219600  0.32729300  1
  C  115  1  0.46161700  0.65859300  0.30722700  1
  C  116  1  0.45305600  0.66755500  0.28333800  1
  C  117  1  0.44356600  0.69892600  0.27978100  1
  C  118  1  0.44212900  0.72072300  0.30042000  1
  C  121  1  0.44935200  0.73612000  0.34503500  1
  C  122  1  0.43328600  0.71699200  0.36789300  1
  C  123  1  0.42886000  0.73807500  0.38799700  1
  C  124  1  0.43926100  0.77931200  0.38478000  1
  C  125  1  0.45566000  0.79968000  0.36215400  1
  C  126  1  0.46104800  0.77779200  0.34286700  1
  C  133  1  0.46275500  0.83982800  0.35777100  1
  C  134  1  0.43497000  0.70858100  0.25608200  1
  C  135  1  0.41219100  0.71696000  0.41045000  1
  C  136  1  0.46768200  0.62480100  0.31118700  1
  C  141  1  0.26367900  0.55025000  0.65773200  1
  C  142  1  0.22265600  0.54053600  0.66063800  1
  C  143  1  0.19866300  0.54026500  0.64060200  1
  C  144  1  0.21614300  0.54884300  0.61670300  1
  C  145  1  0.25697100  0.55825400  0.61310900  1
  C  146  1  0.28021500  0.55960200  0.63372300  1
  C  149  1  0.28841300  0.55220100  0.67831400  1
  C  150  1  0.28536500  0.56813600  0.70122500  1
  C  151  1  0.31088000  0.57242900  0.72130000  1
  C  152  1  0.34166900  0.56198100  0.71801300  1
  C  153  1  0.34558900  0.54567000  0.69534100  1
  C  154  1  0.31833200  0.54044400  0.67607600  1
  C  161  1  0.37858600  0.53851500  0.69089700  1
  C  162  1  0.27517100  0.56682000  0.58939800  1
  C  163  1  0.30649100  0.58904500  0.74379000  1
  C  164  1  0.15882900  0.53423300  0.64460300  1
  C  169  1  0.71851500  0.32685000  0.89350200  1
  C  170  1  0.68936900  0.33531600  0.88305300  1
  C  171  1  0.69608000  0.35196200  0.85913500  1
  C  172  1  0.73141800  0.36073100  0.84567100  1
  C  173  1  0.76129600  0.35319700  0.85627600  1
  C  174  1  0.75417300  0.33629800  0.88018900  1
  C  176  1  0.73435500  0.37505800  0.82125700  1
  C  177  1  0.72007200  0.34800800  0.80083500  1
  C  178  1  0.72019000  0.36422800  0.77741300  1
  C  179  1  0.73336700  0.40593200  0.77398100  1
  C  180  1  0.74886200  0.43293300  0.79434600  1
  C  181  1  0.74891400  0.41703300  0.81775100  1
  C  201  1  0.60949800  0.28338800  0.22664200  1
  C  202  1  0.64724000  0.31236200  0.21624800  1
  C  203  1  0.65726500  0.30549300  0.19239100  1
  C  204  1  0.63067100  0.27015600  0.17893600  1
  C  205  1  0.59313800  0.24043100  0.18949600  1
  C  206  1  0.58326900  0.24771800  0.21334300  1
  C  208  1  0.64214500  0.26709600  0.15456500  1
  C  209  1  0.62942700  0.28126100  0.13406200  1
  C  210  1  0.64563600  0.28107000  0.11068900  1
  C  211  1  0.67422200  0.26793900  0.10738200  1
  C  212  1  0.68568300  0.25255900  0.12782600  1
  C  213  1  0.66962100  0.25257800  0.15118400  1
  C  233  1  0.67450400  0.39136000  0.56002200  1
  C  234  1  0.66598200  0.35374700  0.54954300  1
  C  235  1  0.64931600  0.34387000  0.52562800  1
  C  236  1  0.64057700  0.37048600  0.51219500  1
  C  237  1  0.64816600  0.40789700  0.52283200  1
  C  238  1  0.66508900  0.41762100  0.54674000  1
  C  240  1  0.62621200  0.35913700  0.48778300  1
  C  241  1  0.65322500  0.37199100  0.46734300  1
  C  242  1  0.63698100  0.35590500  0.44392200  1
  C  243  1  0.59529000  0.32731000  0.44050700  1
  C  244  1  0.56832300  0.31572300  0.46089400  1
  C  245  1  0.58424800  0.33165700  0.48429800  1
  C  265  1  0.28184500  0.67130700  0.89574600  1
  C  266  1  0.31067900  0.66252300  0.88515900  1
  C  267  1  0.30350100  0.64562000  0.86129500  1
  C  268  1  0.26804200  0.63698000  0.84801100  1
  C  269  1  0.23848700  0.64486100  0.85875300  1
  C  270  1  0.24604300  0.66194300  0.88262600  1
  C  272  1  0.26475800  0.62262900  0.82357800  1
  C  273  1  0.28059100  0.64980900  0.80327600  1
  C  274  1  0.28007500  0.63339300  0.77985700  1
  C  275  1  0.26503900  0.59134300  0.77631100  1
  C  276  1  0.24793400  0.56427900  0.79654200  1
  C  277  1  0.24824900  0.58037000  0.81994900  1
  C  297  1  0.39138300  0.71980700  0.22912500  1
  C  298  1  0.35382200  0.69081900  0.21854900  1
  C  299  1  0.34403300  0.69785900  0.19466800  1
  C  300  1  0.37073400  0.73333500  0.18135700  1
  C  301  1  0.40811000  0.76304200  0.19208800  1
  C  302  1  0.41770200  0.75562200  0.21597700  1
  C  304  1  0.35961600  0.73650900  0.15691900  1
  C  305  1  0.37106500  0.72074000  0.13663000  1
  C  306  1  0.35522100  0.72126000  0.11319300  1
  C  307  1  0.32816900  0.73624200  0.10961300  1
  C  308  1  0.31808900  0.75326400  0.12983700  1
  C  309  1  0.33380800  0.75294300  0.15326100  1
  C  329  1  0.33006600  0.61034100  0.56243300  1
  C  330  1  0.33886100  0.64796100  0.55184200  1
  C  331  1  0.35576200  0.65767600  0.52797900  1
  C  332  1  0.36438600  0.63084300  0.51469700  1
  C  333  1  0.35650100  0.59341200  0.52544200  1
  C  334  1  0.33941900  0.58389100  0.54931700  1
  C  336  1  0.37870500  0.64188100  0.49025600  1
  C  337  1  0.35150800  0.63032400  0.46995100  1
  C  338  1  0.36788400  0.64612500  0.44650800  1
  C  339  1  0.40990600  0.67324700  0.44294000  1
  C  340  1  0.43699200  0.68343500  0.46318000  1
  C  341  1  0.42094000  0.66775100  0.48660800  1
  C  361  1  0.90701300  0.41029300  0.00486800  1
  C  362  1  0.91680400  0.43486400  0.98347800  1
  C  363  1  0.95532200  0.47037900  0.98190200  1
  C  364  1  0.98400300  0.48184300  0.00117200  1
  C  365  1  0.97465800  0.45678300  0.02243000  1
  C  366  1  0.93599600  0.42120000  0.02384100  1
  C  368  1  0.02117500  0.51930800  0.99921900  1
  C  369  1  0.05687000  0.52165100  0.98913400  1
  C  370  1  0.09412100  0.55861900  0.99166000  1
  C  371  1  0.09676700  0.59247500  0.00424600  1
  C  372  1  0.06068000  0.59046800  0.01328100  1
  C  373  1  0.02338000  0.55382300  0.01068700  1
  C  393  1  0.50540000  0.09483400  0.33803300  1
  C  394  1  0.52044600  0.08495900  0.31679600  1
  C  395  1  0.51732700  0.04638100  0.31535200  1
  C  396  1  0.49977000  0.01773500  0.33461500  1
  C  397  1  0.48382600  0.02718200  0.35572400  1
  C  398  1  0.48697400  0.06588900  0.35698900  1
  C  400  1  0.49994200  0.98049300  0.33278700  1
  C  401  1  0.46658800  0.94480300  0.32269800  1
  C  402  1  0.46626800  0.90753800  0.32524900  1
  C  403  1  0.49745500  0.90487400  0.33785300  1
  C  404  1  0.53153400  0.94095600  0.34689800  1
  C  405  1  0.53221400  0.97826500  0.34429000  1
  C  425  1  0.59101000  0.49623500  0.67145400  1
  C  426  1  0.56644900  0.48149300  0.65005800  1
  C  427  1  0.53094900  0.48452500  0.64848400  1
  C  428  1  0.51949400  0.50173800  0.66776400  1
  C  429  1  0.54454500  0.51741400  0.68902700  1
  C  430  1  0.58011200  0.51430300  0.69043600  1
  C  432  1  0.48204100  0.50146700  0.66581200  1
  C  433  1  0.47971000  0.53482500  0.65572500  1
  C  434  1  0.44274600  0.53511700  0.65824100  1
  C  435  1  0.40887900  0.50390800  0.67082100  1
  C  436  1  0.41087500  0.46982300  0.67986100  1
  C  437  1  0.44751400  0.46915900  0.67727500  1
  C  457  1  0.49758200  0.59059700  0.33228300  1
  C  458  1  0.48353400  0.56683000  0.35403700  1
  C  459  1  0.48590900  0.53096300  0.35581900  1
  C  460  1  0.50216300  0.51849200  0.33650800  1
  C  461  1  0.51727700  0.54274400  0.31490800  1
  C  462  1  0.51473600  0.57860300  0.31328400  1
  C  464  1  0.50188700  0.48106100  0.33885100  1
  C  465  1  0.53659000  0.47937900  0.34712700  1
  C  466  1  0.53642900  0.44215700  0.34477600  1
  C  467  1  0.50330800  0.40730600  0.33418100  1
  C  468  1  0.46813900  0.40877800  0.32683700  1
  C  469  1  0.46798700  0.44571100  0.32923300  1
  C  489  1  0.41106600  0.90673500  0.99890500  1
  C  490  1  0.43460000  0.91675600  0.02077100  1
  C  491  1  0.47032100  0.95511100  0.02256200  1
  C  492  1  0.48287300  0.98366700  0.00315300  1
  C  493  1  0.45887600  0.97421600  0.98142400  1
  C  494  1  0.42315400  0.93570700  0.97979600  1
  C  496  1  0.52005900  0.02104200  0.00556700  1
  C  497  1  0.52116900  0.05744400  0.01322600  1
  C  498  1  0.55822200  0.09466700  0.01082900  1
  C  499  1  0.59346800  0.09653400  0.00076200  1
  C  500  1  0.59264600  0.06006400  0.99410300  1
  C  501  1  0.55580300  0.02265800  0.99653500  1
  C  521  1  0.09459700  0.50398900  0.66557300  1
  C  522  1  0.08455100  0.51748500  0.68743600  1
  C  523  1  0.04618400  0.51483000  0.68921600  1
  C  524  1  0.01764400  0.49882200  0.66979800  1
  C  525  1  0.02712600  0.48429600  0.64807000  1
  C  526  1  0.06564400  0.48710200  0.64645500  1
  C  528  1  0.98025500  0.49861000  0.67219800  1
  C  529  1  0.94385500  0.46330000  0.67984300  1
  C  530  1  0.90662300  0.46311100  0.67743100  1
  C  531  1  0.90474800  0.49648800  0.66736800  1
  C  532  1  0.94121500  0.53215100  0.66072800  1
  C  533  1  0.97862900  0.53273200  0.66317300  1
  N  185  1  0.70552100  0.30724100  0.80294500  1
  N  188  1  0.79614500  0.36141000  0.84435100  1
  N  191  1  0.65346500  0.32532100  0.89636600  1
  N  192  1  0.76248300  0.47510900  0.79325500  1
  N  197  1  0.71282300  0.31026700  0.91645600  1
  N  199  1  0.72892400  0.41895800  0.75137300  1
  N  217  1  0.60317900  0.29579000  0.13604800  1
  N  220  1  0.56647900  0.20557400  0.17758600  1
  N  223  1  0.67320400  0.34826700  0.22954200  1
  N  224  1  0.71429300  0.23900100  0.12685700  1
  N  229  1  0.59857700  0.28923300  0.24955500  1
  N  231  1  0.69180700  0.27234600  0.08481500  1
  N  249  1  0.69398300  0.39826100  0.46943200  1
  N  252  1  0.63997700  0.43457700  0.51094100  1
  N  255  1  0.67593800  0.32778400  0.56282500  1
  N  256  1  0.52616300  0.28710300  0.45982500  1
  N  261  1  0.69108600  0.40218600  0.58298100  1
  N  263  1  0.58225100  0.30986100  0.41789000  1
  N  281  1  0.29692900  0.69083100  0.80550500  1
  N  284  1  0.20361700  0.63692900  0.84696300  1
  N  287  1  0.34678200  0.67255000  0.89825500  1
  N  288  1  0.23230400  0.52173700  0.79533600  1
  N  293  1  0.28821800  0.68854300  0.91854200  1
  N  295  1  0.26939200  0.57797400  0.75378300  1
  N  313  1  0.39581200  0.70447900  0.13888800  1
  N  316  1  0.43493800  0.79793100  0.18027200  1
  N  319  1  0.32787000  0.65471600  0.23167800  1
  N  320  1  0.29113600  0.76883900  0.12859900  1
  N  325  1  0.40232100  0.71360100  0.25194000  1
  N  327  1  0.31059800  0.73196500  0.08703900  1
  N  345  1  0.31050500  0.60553700  0.47219700  1
  N  348  1  0.36442300  0.56646100  0.51365800  1
  N  351  1  0.32884100  0.67404200  0.56493700  1
  N  352  1  0.47950300  0.71046900  0.46195300  1
  N  357  1  0.31281600  0.59947500  0.58522500  1
  N  359  1  0.42318500  0.69082100  0.42036600  1
  N  377  1  0.05683700  0.48957000  0.97787600  1
  N  380  1  0.00097000  0.46581200  0.04157900  1
  N  383  1  0.88974700  0.42672800  0.96357700  1
  N  384  1  0.05955700  0.62210600  0.02640500  1
  N  389  1  0.86878400  0.37830100  0.00854600  1
  N  391  1  0.13442300  0.62515800  0.00901500  1
  N  409  1  0.43458600  0.94486400  0.31139300  1
  N  412  1  0.46626200  0.00092300  0.37486400  1
  N  415  1  0.53960400  0.11192900  0.29689000  1
  N  416  1  0.56428400  0.94206600  0.36002600  1
  N  421  1  0.51168200  0.13311000  0.34155300  1
  N  423  1  0.49251300  0.86722000  0.34258700  1
  N  441  1  0.51180300  0.56687100  0.64447400  1
  N  444  1  0.53552500  0.53469300  0.70818400  1
  N  447  1  0.57457700  0.46258600  0.63014700  1
  N  448  1  0.37922500  0.43706500  0.69298100  1
  N  453  1  0.62298500  0.48997100  0.67512700  1
  N  455  1  0.37619800  0.50888900  0.67558700  1
  N  473  1  0.57021200  0.51229100  0.35652400  1
  N  476  1  0.53349600  0.53271500  0.29562800  1
  N  479  1  0.46541000  0.57578000  0.37402500  1
  N  480  1  0.43360100  0.37615800  0.31555600  1
  N  485  1  0.49280000  0.62362700  0.32870500  1
  N  487  1  0.50737800  0.37410500  0.32944900  1
  N  505  1  0.48787800  0.05799200  0.02209500  1
  N  508  1  0.46902100  0.00025200  0.96202200  1
  N  511  1  0.42554300  0.88988500  0.04088400  1
  N  512  1  0.62788700  0.06227700  0.98365500  1
  N  517  1  0.37811800  0.86885600  0.99536600  1
  N  519  1  0.62681100  0.13374500  0.99598500  1
  N  537  1  0.94331500  0.42946300  0.68870700  1
  N  540  1  0.00110800  0.46840500  0.62866100  1
  N  543  1  0.11140100  0.53529900  0.70755600  1
  N  544  1  0.93899500  0.56518000  0.65028400  1
  N  549  1  0.13249000  0.50894500  0.66204200  1
  N  551  1  0.86753300  0.49260300  0.66258200  1
  O  8  1  0.64654000  0.19106500  0.92990600  1
  O  15  1  0.80039500  0.36903500  0.06878000  1
  O  25  1  0.85081100  0.41823500  0.03223200  1
  O  26  1  0.72255600  0.34377100  0.08600700  1
  O  27  1  0.59151400  0.14901000  0.96632400  1
  O  28  1  0.71070400  0.25048700  0.90232600  1
  O  36  1  0.54465800  0.35453400  0.26311800  1
  O  43  1  0.57109600  0.20154800  0.40166300  1
  O  53  1  0.57026200  0.15160100  0.36469800  1
  O  54  1  0.62309300  0.27929800  0.41902500  1
  O  55  1  0.55718900  0.40945000  0.29942300  1
  O  56  1  0.54058400  0.29074300  0.23547400  1
  O  64  1  0.81029100  0.45509900  0.59647800  1
  O  71  1  0.63219700  0.43078000  0.73533000  1
  O  81  1  0.58301100  0.43202800  0.69877900  1
  O  82  1  0.65750000  0.37829400  0.75260900  1
  O  83  1  0.85232600  0.44208900  0.63289700  1
  O  84  1  0.75088700  0.45986800  0.56889500  1
  O  92  1  0.35568200  0.80815300  0.93022600  1
  O  99  1  0.20054100  0.63634400  0.07099200  1
  O  109  1  0.15194800  0.58613700  0.03414500  1
  O  110  1  0.27753400  0.66046600  0.08889500  1
  O  111  1  0.41150600  0.85297000  0.96500500  1
  O  112  1  0.29066500  0.74817900  0.90386300  1
  O  120  1  0.45464400  0.64621700  0.26352400  1
  O  127  1  0.43742900  0.80083700  0.40440400  1
  O  137  1  0.43576700  0.84945600  0.36758900  1
  O  138  1  0.38463100  0.72376300  0.42222500  1
  O  139  1  0.44372100  0.59036500  0.29824200  1
  O  140  1  0.45951900  0.71119500  0.23721100  1
  O  148  1  0.19320600  0.54733700  0.59691800  1
  O  155  1  0.36501200  0.56368900  0.73761300  1
  O  165  1  0.41522400  0.56541400  0.70073200  1
  O  166  1  0.34087300  0.61648800  0.75559600  1
  O  167  1  0.14838700  0.55827800  0.63172200  1
  O  168  1  0.25317300  0.54230400  0.57053200  1
  O  193  1  0.79347100  0.49372300  0.77989400  1
  O  194  1  0.62222700  0.29905300  0.88526200  1
  O  195  1  0.73520100  0.48201000  0.78567200  1
  O  196  1  0.65006000  0.35620200  0.90003900  1
  O  225  1  0.70202900  0.20797900  0.11353800  1
  O  226  1  0.67843300  0.37953200  0.21835600  1
  O  227  1  0.74849200  0.26629900  0.11930300  1
  O  228  1  0.70737900  0.35148100  0.23334800  1
  O  257  1  0.50746500  0.29944500  0.44651400  1
  O  258  1  0.70216800  0.32278300  0.55169900  1
  O  259  1  0.51931800  0.25295800  0.45220300  1
  O  260  1  0.64502900  0.29351300  0.56649100  1
  O  289  1  0.20156000  0.50458300  0.78165300  1
  O  290  1  0.37786400  0.69863700  0.88695000  1
  O  291  1  0.25856600  0.51314600  0.78804400  1
  O  292  1  0.35013300  0.64164200  0.90194800  1
  O  321  1  0.30475100  0.79963400  0.11495600  1
  O  322  1  0.32302200  0.62365200  0.22041200  1
  O  323  1  0.25633200  0.74256900  0.12124300  1
  O  324  1  0.29353700  0.65120100  0.23535100  1
  O  353  1  0.49676000  0.69689900  0.44834200  1
  O  354  1  0.30275900  0.67904600  0.55363200  1
  O  355  1  0.48795800  0.74523600  0.45456800  1
  O  356  1  0.35975500  0.70830000  0.56862800  1
  O  385  1  0.08072400  0.63152900  0.04564200  1
  O  386  1  0.87931000  0.39280100  0.95390900  1
  O  387  1  0.07125900  0.65332600  0.01334500  1
  O  388  1  0.85828700  0.42736800  0.97010000  1
  O  417  1  0.55252400  0.92087800  0.37925600  1
  O  418  1  0.51628000  0.12244100  0.28706800  1
  O  419  1  0.58381900  0.93038200  0.34696700  1
  O  420  1  0.57170500  0.14335100  0.30345500  1
  O  449  1  0.36979800  0.44881300  0.71221700  1
  O  450  1  0.60851400  0.48606800  0.62048900  1
  O  451  1  0.34800900  0.41755200  0.67991600  1
  O  452  1  0.57390900  0.43046400  0.63665500  1
  O  481  1  0.44252900  0.36522600  0.29581100  1
  O  482  1  0.48974000  0.60938600  0.38373300  1
  O  483  1  0.41612500  0.34598600  0.32964900  1
  O  484  1  0.43382100  0.57628300  0.36761500  1
  O  513  1  0.62156900  0.04911500  0.96194900  1
  O  514  1  0.39180700  0.88057200  0.05041600  1
  O  515  1  0.63980200  0.04226200  0.99607100  1
  O  516  1  0.42524800  0.85780700  0.03469300  1
  O  545  1  0.95218000  0.57204800  0.62858400  1
  O  546  1  0.12073100  0.51088700  0.71708800  1
  O  547  1  0.95898200  0.59709900  0.66271300  1
  O  548  1  0.14347500  0.56709600  0.70137400  1
