# generated using pymatgen
data_MnH8C14SO6
_symmetry_space_group_name_H-M   'P 1'
_cell_length_a   11.07057000
_cell_length_b   20.40146000
_cell_length_c   23.64609000
_cell_angle_alpha   113.27600000
_cell_angle_beta   100.96541000
_cell_angle_gamma   97.35399000
_symmetry_Int_Tables_number   1
_chemical_formula_structural   MnH8C14SO6
_chemical_formula_sum   'Mn8 H64 C112 S8 O48'
_cell_volume   4692.56546266
_cell_formula_units_Z   8
loop_
 _symmetry_equiv_pos_site_id
 _symmetry_equiv_pos_as_xyz
  1  'x, y, z'
loop_
 _atom_site_type_symbol
 _atom_site_label
 _atom_site_symmetry_multiplicity
 _atom_site_fract_x
 _atom_site_fract_y
 _atom_site_fract_z
 _atom_site_occupancy
  Mn  Mn1  1  0.41589000  0.17183000  0.34079000  1.0
  Mn  Mn2  1  0.65729000  0.24928000  0.29134000  1.0
  Mn  Mn3  1  0.13293000  0.04708000  0.29284000  1.0
  Mn  Mn4  1  0.86657000  0.11778000  0.23146000  1.0
  Mn  Mn5  1  0.58412000  0.82817000  0.65920000  1.0
  Mn  Mn6  1  0.34271000  0.75072000  0.70866000  1.0
  Mn  Mn7  1  0.86707000  0.95292000  0.70716000  1.0
  Mn  Mn8  1  0.13344000  0.88223000  0.76855000  1.0
  H  H1  1  0.91033000  0.37495000  0.47940000  1.0
  H  H2  1  0.99060000  0.45810000  0.59700000  1.0
  H  H3  1  0.68065000  0.34316000  0.63198000  1.0
  H  H4  1  0.60404000  0.25835000  0.51446000  1.0
  H  H5  1  0.91129000  0.57726000  0.64945000  1.0
  H  H6  1  0.78186000  0.66637000  0.63907000  1.0
  H  H7  1  0.53734000  0.60165000  0.73802000  1.0
  H  H8  1  0.66644000  0.51219000  0.74847000  1.0
  H  H9  1  0.34771000  0.04378000  0.19392000  1.0
  H  H10  1  0.23577000  0.91344000  0.13013000  1.0
  H  H11  1  0.58965000  0.84743000  0.15349000  1.0
  H  H12  1  0.70086000  0.97860000  0.22146000  1.0
  H  H13  1  0.14976000  0.83439000  0.02100000  1.0
  H  H14  1  0.12598000  0.84013000  0.91614000  1.0
  H  H15  1  0.41288000  0.71684000  0.87793000  1.0
  H  H16  1  0.44592000  0.71685000  0.98509000  1.0
  H  H17  1  0.29545000  0.86720000  0.26407000  1.0
  H  H18  1  0.41446000  0.76752000  0.25226000  1.0
  H  H19  1  0.76288000  0.93062000  0.34939000  1.0
  H  H20  1  0.64393000  0.02995000  0.36106000  1.0
  H  H21  1  0.54746000  0.71107000  0.36372000  1.0
  H  H22  1  0.58927000  0.74184000  0.48089000  1.0
  H  H23  1  0.93498000  0.89296000  0.51962000  1.0
  H  H24  1  0.89632000  0.86093000  0.40248000  1.0
  H  H25  1  0.02023000  0.24570000  0.21969000  1.0
  H  H26  1  0.05988000  0.30517000  0.14929000  1.0
  H  H27  1  0.39240000  0.21787000  0.13077000  1.0
  H  H28  1  0.34724000  0.15393000  0.19641000  1.0
  H  H29  1  0.03622000  0.26066000  0.97689000  1.0
  H  H30  1  0.96673000  0.15205000  0.87116000  1.0
  H  H31  1  0.29857000  0.07550000  0.92013000  1.0
  H  H32  1  0.37523000  0.18756000  0.02317000  1.0
  H  H33  1  0.08968000  0.62505000  0.52060000  1.0
  H  H34  1  0.00940000  0.54190000  0.40301000  1.0
  H  H35  1  0.31933000  0.65683000  0.36801000  1.0
  H  H36  1  0.39596000  0.74164000  0.48552000  1.0
  H  H37  1  0.08870000  0.42274000  0.35055000  1.0
  H  H38  1  0.21814000  0.33364000  0.36093000  1.0
  H  H39  1  0.46267000  0.39836000  0.26199000  1.0
  H  H40  1  0.33355000  0.48781000  0.25153000  1.0
  H  H41  1  0.65229000  0.95622000  0.80608000  1.0
  H  H42  1  0.76423000  0.08656000  0.86987000  1.0
  H  H43  1  0.41036000  0.15257000  0.84651000  1.0
  H  H44  1  0.29914000  0.02140000  0.77854000  1.0
  H  H45  1  0.85025000  0.16561000  0.97900000  1.0
  H  H46  1  0.87402000  0.15987000  0.08386000  1.0
  H  H47  1  0.58713000  0.28316000  0.12207000  1.0
  H  H48  1  0.55409000  0.28315000  0.01491000  1.0
  H  H49  1  0.70455000  0.13280000  0.73593000  1.0
  H  H50  1  0.58554000  0.23248000  0.74773000  1.0
  H  H51  1  0.23712000  0.06938000  0.65061000  1.0
  H  H52  1  0.35607000  0.97005000  0.63894000  1.0
  H  H53  1  0.45254000  0.28892000  0.63629000  1.0
  H  H54  1  0.41074000  0.25816000  0.51911000  1.0
  H  H55  1  0.06502000  0.10704000  0.48038000  1.0
  H  H56  1  0.10369000  0.13907000  0.59752000  1.0
  H  H57  1  0.97977000  0.75431000  0.78031000  1.0
  H  H58  1  0.94012000  0.69482000  0.85070000  1.0
  H  H59  1  0.60760000  0.78212000  0.86923000  1.0
  H  H60  1  0.65276000  0.84607000  0.80359000  1.0
  H  H61  1  0.96378000  0.73934000  0.02312000  1.0
  H  H62  1  0.03326000  0.84795000  0.12884000  1.0
  H  H63  1  0.70143000  0.92451000  0.07987000  1.0
  H  H64  1  0.62476000  0.81244000  0.97683000  1.0
  C  C1  1  0.69606000  0.26909000  0.42023000  1.0
  C  C2  1  0.75079000  0.31337000  0.49024000  1.0
  C  C3  1  0.86132000  0.36853000  0.51322000  1.0
  C  C4  1  0.90501000  0.41507000  0.57818000  1.0
  C  C5  1  0.83661000  0.40645000  0.61987000  1.0
  C  C6  1  0.72946000  0.34959000  0.59801000  1.0
  C  C7  1  0.68727000  0.30280000  0.53310000  1.0
  C  C8  1  0.79266000  0.53852000  0.69763000  1.0
  C  C9  1  0.82803000  0.58215000  0.66756000  1.0
  C  C10  1  0.75628000  0.63148000  0.66181000  1.0
  C  C11  1  0.64960000  0.63711000  0.68609000  1.0
  C  C12  1  0.61764000  0.59468000  0.71775000  1.0
  C  C13  1  0.68919000  0.54508000  0.72363000  1.0
  C  C14  1  0.57205000  0.68969000  0.68044000  1.0
  C  C15  1  0.59611000  0.09737000  0.24804000  1.0
  C  C16  1  0.53197000  0.01956000  0.21012000  1.0
  C  C17  1  0.40042000  0.00100000  0.18427000  1.0
  C  C18  1  0.33789000  0.92819000  0.14835000  1.0
  C  C19  1  0.40758000  0.87375000  0.13650000  1.0
  C  C20  1  0.53823000  0.89096000  0.16228000  1.0
  C  C21  1  0.59989000  0.96416000  0.19996000  1.0
  C  C22  1  0.30123000  0.77706000  0.00951000  1.0
  C  C23  1  0.20921000  0.81068000  0.99027000  1.0
  C  C24  1  0.19526000  0.81339000  0.93164000  1.0
  C  C25  1  0.26994000  0.78060000  0.89128000  1.0
  C  C26  1  0.35789000  0.74426000  0.90993000  1.0
  C  C27  1  0.37562000  0.74345000  0.96981000  1.0
  C  C28  1  0.25452000  0.78606000  0.82943000  1.0
  C  C29  1  0.39077000  0.01241000  0.31980000  1.0
  C  C30  1  0.46264000  0.95425000  0.31455000  1.0
  C  C31  1  0.39726000  0.88053000  0.28344000  1.0
  C  C32  1  0.46280000  0.82509000  0.27682000  1.0
  C  C33  1  0.59378000  0.84432000  0.30171000  1.0
  C  C34  1  0.66064000  0.91757000  0.33179000  1.0
  C  C35  1  0.59468000  0.97261000  0.33819000  1.0
  C  C36  1  0.71705000  0.78720000  0.37777000  1.0
  C  C37  1  0.63096000  0.75127000  0.39828000  1.0
  C  C38  1  0.65407000  0.76828000  0.46301000  1.0
  C  C39  1  0.76129000  0.82133000  0.50698000  1.0
  C  C40  1  0.85045000  0.85374000  0.48521000  1.0
  C  C41  1  0.82864000  0.83652000  0.42039000  1.0
  C  C42  1  0.77435000  0.84603000  0.57672000  1.0
  C  C43  1  0.15470000  0.15405000  0.24916000  1.0
  C  C44  1  0.17760000  0.19246000  0.21057000  1.0
  C  C45  1  0.09848000  0.23706000  0.19823000  1.0
  C  C46  1  0.12082000  0.27116000  0.15940000  1.0
  C  C47  1  0.22569000  0.26304000  0.13413000  1.0
  C  C48  1  0.30844000  0.22157000  0.14824000  1.0
  C  C49  1  0.28354000  0.18595000  0.18528000  1.0
  C  C50  1  0.20745000  0.22922000  0.00690000  1.0
  C  C51  1  0.09303000  0.21999000  0.96422000  1.0
  C  C52  1  0.05372000  0.15872000  0.90532000  1.0
  C  C53  1  0.12606000  0.10550000  0.89023000  1.0
  C  C54  1  0.24206000  0.11623000  0.93314000  1.0
  C  C55  1  0.28410000  0.17845000  0.99084000  1.0
  C  C56  1  0.08074000  0.03707000  0.83044000  1.0
  C  C57  1  0.30394000  0.73091000  0.57977000  1.0
  C  C58  1  0.24922000  0.68662000  0.50976000  1.0
  C  C59  1  0.13869000  0.63147000  0.48678000  1.0
  C  C60  1  0.09499000  0.58493000  0.42181000  1.0
  C  C61  1  0.16338000  0.59355000  0.38013000  1.0
  C  C62  1  0.27053000  0.65040000  0.40198000  1.0
  C  C63  1  0.31273000  0.69720000  0.46689000  1.0
  C  C64  1  0.20733000  0.46148000  0.30237000  1.0
  C  C65  1  0.17196000  0.41785000  0.33244000  1.0
  C  C66  1  0.24372000  0.36852000  0.33819000  1.0
  C  C67  1  0.35041000  0.36290000  0.31391000  1.0
  C  C68  1  0.38236000  0.40533000  0.28226000  1.0
  C  C69  1  0.31081000  0.45493000  0.27637000  1.0
  C  C70  1  0.42795000  0.31031000  0.31956000  1.0
  C  C71  1  0.40389000  0.90263000  0.75196000  1.0
  C  C72  1  0.46803000  0.98044000  0.78988000  1.0
  C  C73  1  0.59958000  0.99900000  0.81573000  1.0
  C  C74  1  0.66211000  0.07181000  0.85165000  1.0
  C  C75  1  0.59242000  0.12625000  0.86350000  1.0
  C  C76  1  0.46177000  0.10904000  0.83772000  1.0
  C  C77  1  0.40011000  0.03584000  0.80004000  1.0
  C  C78  1  0.69877000  0.22294000  0.99049000  1.0
  C  C79  1  0.79080000  0.18932000  0.00973000  1.0
  C  C80  1  0.80475000  0.18661000  0.06836000  1.0
  C  C81  1  0.73007000  0.21941000  0.10872000  1.0
  C  C82  1  0.64212000  0.25575000  0.09007000  1.0
  C  C83  1  0.62438000  0.25655000  0.03019000  1.0
  C  C84  1  0.74548000  0.21395000  0.17057000  1.0
  C  C85  1  0.60923000  0.98759000  0.68020000  1.0
  C  C86  1  0.53736000  0.04576000  0.68545000  1.0
  C  C87  1  0.60274000  0.11948000  0.71656000  1.0
  C  C88  1  0.53720000  0.17491000  0.72318000  1.0
  C  C89  1  0.40622000  0.15568000  0.69829000  1.0
  C  C90  1  0.33936000  0.08243000  0.66821000  1.0
  C  C91  1  0.40532000  0.02739000  0.66181000  1.0
  C  C92  1  0.28295000  0.21279000  0.62223000  1.0
  C  C93  1  0.36905000  0.24873000  0.60172000  1.0
  C  C94  1  0.34594000  0.23172000  0.53699000  1.0
  C  C95  1  0.23872000  0.17867000  0.49302000  1.0
  C  C96  1  0.14956000  0.14626000  0.51479000  1.0
  C  C97  1  0.17137000  0.16347000  0.57960000  1.0
  C  C98  1  0.22567000  0.15396000  0.42328000  1.0
  C  C99  1  0.84530000  0.84596000  0.75085000  1.0
  C  C100  1  0.82241000  0.80754000  0.78943000  1.0
  C  C101  1  0.90152000  0.76294000  0.80178000  1.0
  C  C102  1  0.87918000  0.72884000  0.84060000  1.0
  C  C103  1  0.77432000  0.73696000  0.86588000  1.0
  C  C104  1  0.69157000  0.77843000  0.85176000  1.0
  C  C105  1  0.71647000  0.81405000  0.81472000  1.0
  C  C106  1  0.79255000  0.77078000  0.99310000  1.0
  C  C107  1  0.90696000  0.78001000  0.03578000  1.0
  C  C108  1  0.94627000  0.84128000  0.09468000  1.0
  C  C109  1  0.87394000  0.89450000  0.10977000  1.0
  C  C110  1  0.75794000  0.88377000  0.06686000  1.0
  C  C111  1  0.71589000  0.82155000  0.00916000  1.0
  C  C112  1  0.91926000  0.96293000  0.16957000  1.0
  S  S1  1  0.88201000  0.47267000  0.70164000  1.0
  S  S2  1  0.32469000  0.78055000  0.08771000  1.0
  S  S3  1  0.67809000  0.77373000  0.29637000  1.0
  S  S4  1  0.25652000  0.30528000  0.08378000  1.0
  S  S5  1  0.11798000  0.52733000  0.29835000  1.0
  S  S6  1  0.67531000  0.21945000  0.91228000  1.0
  S  S7  1  0.32190000  0.22626000  0.70362000  1.0
  S  S8  1  0.74348000  0.69471000  0.91622000  1.0
  O  O1  1  0.59210000  0.22243000  0.40196000  1.0
  O  O2  1  0.68567000  0.81711000  0.59287000  1.0
  O  O3  1  0.45472000  0.07707000  0.33550000  1.0
  O  O4  1  0.61833000  0.73676000  0.66225000  1.0
  O  O5  1  0.23579000  0.11714000  0.26301000  1.0
  O  O6  1  0.52925000  0.14649000  0.25828000  1.0
  O  O7  1  0.75545000  0.28204000  0.38258000  1.0
  O  O8  1  0.46657000  0.68495000  0.69430000  1.0
  O  O9  1  0.31145000  0.74975000  0.78943000  1.0
  O  O10  1  0.71711000  0.11733000  0.26943000  1.0
  O  O11  1  0.87152000  0.89629000  0.61588000  1.0
  O  O12  1  0.27123000  0.99404000  0.30731000  1.0
  O  O13  1  0.98575000  0.03205000  0.78733000  1.0
  O  O14  1  0.05360000  0.15158000  0.26895000  1.0
  O  O15  1  0.18390000  0.82770000  0.82005000  1.0
  O  O16  1  0.14033000  0.98596000  0.82569000  1.0
  O  O17  1  0.01490000  0.50717000  0.71662000  1.0
  O  O18  1  0.83311000  0.43866000  0.73894000  1.0
  O  O19  1  0.40876000  0.73299000  0.09360000  1.0
  O  O20  1  0.20148000  0.77388000  0.10148000  1.0
  O  O21  1  0.79487000  0.79309000  0.28088000  1.0
  O  O22  1  0.58865000  0.70348000  0.25839000  1.0
  O  O23  1  0.39381000  0.32871000  0.09876000  1.0
  O  O24  1  0.17380000  0.35568000  0.08579000  1.0
  O  O25  1  0.40790000  0.77758000  0.59804000  1.0
  O  O26  1  0.31438000  0.18287000  0.40713000  1.0
  O  O27  1  0.54528000  0.92293000  0.66448000  1.0
  O  O28  1  0.38167000  0.26324000  0.33775000  1.0
  O  O29  1  0.76421000  0.88286000  0.73699000  1.0
  O  O30  1  0.47075000  0.85352000  0.74172000  1.0
  O  O31  1  0.24455000  0.71796000  0.61741000  1.0
  O  O32  1  0.53342000  0.31505000  0.30570000  1.0
  O  O33  1  0.68854000  0.25025000  0.21056000  1.0
  O  O34  1  0.28289000  0.88267000  0.73056000  1.0
  O  O35  1  0.12849000  0.10372000  0.38412000  1.0
  O  O36  1  0.72878000  0.00597000  0.69270000  1.0
  O  O37  1  0.01426000  0.96795000  0.21267000  1.0
  O  O38  1  0.94640000  0.84843000  0.73106000  1.0
  O  O39  1  0.81611000  0.17230000  0.17996000  1.0
  O  O40  1  0.85966000  0.01403000  0.17433000  1.0
  O  O41  1  0.98509000  0.49282000  0.28337000  1.0
  O  O42  1  0.16686000  0.56133000  0.26104000  1.0
  O  O43  1  0.59124000  0.26701000  0.90640000  1.0
  O  O44  1  0.79853000  0.22612000  0.89851000  1.0
  O  O45  1  0.20511000  0.20689000  0.71911000  1.0
  O  O46  1  0.41134000  0.29652000  0.74161000  1.0
  O  O47  1  0.60619000  0.67128000  0.90124000  1.0
  O  O48  1  0.82620000  0.64432000  0.91422000  1.0
