# generated using pymatgen
data_H12C14N
_symmetry_space_group_name_H-M   'P 1'
_cell_length_a   26.95110000
_cell_length_b   26.95110000
_cell_length_c   26.95110000
_cell_angle_alpha   90.00000000
_cell_angle_beta   90.00000000
_cell_angle_gamma   90.00000000
_symmetry_Int_Tables_number   1
_chemical_formula_structural   H12C14N
_chemical_formula_sum   'H192 C224 N16'
_cell_volume   19576.24927108
_cell_formula_units_Z   16
loop_
 _symmetry_equiv_pos_site_id
 _symmetry_equiv_pos_as_xyz
  1  'x, y, z'
loop_
 _atom_site_type_symbol
 _atom_site_label
 _atom_site_symmetry_multiplicity
 _atom_site_fract_x
 _atom_site_fract_y
 _atom_site_fract_z
 _atom_site_occupancy
  H  7  1  0.08430600  0.02758300  0.97254600  1
  H  16  1  0.92814700  0.98404800  0.03909100  1
  H  17  1  0.03612200  0.84588300  0.12880100  1
  H  18  1  0.97610800  0.84600900  0.12877000  1
  H  19  1  0.97611500  0.16532000  0.88275700  1
  H  20  1  0.03612700  0.16544300  0.88272000  1
  H  21  1  0.92814700  0.02719100  0.97222300  1
  H  22  1  0.08430200  0.98365900  0.03878500  1
  H  29  1  0.42698800  0.98363300  0.47255900  1
  H  38  1  0.58315200  0.02720900  0.53907600  1
  H  39  1  0.47518600  0.16522200  0.62906100  1
  H  40  1  0.53516500  0.16510400  0.62932100  1
  H  41  1  0.53517600  0.84619100  0.38189900  1
  H  42  1  0.47519000  0.84608000  0.38214000  1
  H  43  1  0.58315200  0.98405200  0.47223300  1
  H  44  1  0.42698000  0.02764500  0.53872300  1
  H  51  1  0.23700500  0.83305600  0.22049300  1
  H  60  1  0.28125100  0.67725600  0.28641700  1
  H  61  1  0.41498500  0.78848700  0.38087100  1
  H  62  1  0.41862100  0.72847100  0.37652600  1
  H  63  1  0.09273000  0.72843400  0.13473100  1
  H  64  1  0.09636900  0.78844200  0.13036300  1
  H  65  1  0.23009200  0.67724800  0.22487000  1
  H  66  1  0.27428100  0.83305600  0.29081400  1
  H  73  1  0.27430400  0.17828600  0.72051900  1
  H  82  1  0.23013600  0.33409700  0.78649100  1
  H  83  1  0.09617200  0.22290500  0.88047600  1
  H  84  1  0.09259800  0.28294900  0.87614900  1
  H  85  1  0.41874000  0.28289500  0.63522000  1
  H  86  1  0.41516300  0.22284600  0.63090500  1
  H  87  1  0.28122000  0.33408700  0.72487500  1
  H  88  1  0.23696800  0.17828800  0.79081300  1
  H  95  1  0.77534400  0.17728900  0.79013400  1
  H  104  1  0.73148000  0.33314900  0.72364700  1
  H  105  1  0.59497300  0.22255900  0.63277200  1
  H  106  1  0.59205000  0.28267700  0.63658200  1
  H  107  1  0.91928300  0.28277500  0.87464300  1
  H  108  1  0.91639600  0.22265900  0.87843100  1
  H  109  1  0.77981500  0.33317100  0.78760700  1
  H  110  1  0.73602100  0.17727500  0.72115700  1
  H  117  1  0.73609200  0.83401400  0.29022400  1
  H  126  1  0.77990100  0.67812000  0.22378700  1
  H  127  1  0.91618800  0.78871300  0.13254200  1
  H  128  1  0.91919400  0.72861500  0.13628200  1
  H  129  1  0.59212800  0.72868200  0.37515000  1
  H  130  1  0.59515500  0.78878000  0.37891200  1
  H  131  1  0.73137600  0.67813500  0.28759300  1
  H  132  1  0.77525900  0.83400600  0.22116400  1
  H  139  1  0.58418400  0.52854900  0.47331200  1
  H  148  1  0.42813800  0.48358300  0.53859400  1
  H  149  1  0.53607800  0.35029800  0.63870100  1
  H  150  1  0.47574300  0.34995100  0.63801400  1
  H  151  1  0.47575000  0.66144600  0.37343200  1
  H  152  1  0.53608500  0.66108200  0.37272700  1
  H  153  1  0.42813800  0.52774100  0.47274800  1
  H  154  1  0.58418400  0.48274100  0.53800700  1
  H  161  1  0.92716700  0.48277400  0.97328800  1
  H  170  1  0.08321400  0.52777400  0.03855000  1
  H  171  1  0.97525400  0.66110400  0.13851500  1
  H  172  1  0.03560300  0.66147500  0.13778600  1
  H  173  1  0.03560700  0.34996200  0.87331100  1
  H  174  1  0.97526900  0.35033400  0.87262800  1
  H  175  1  0.08321600  0.48356100  0.97275400  1
  H  176  1  0.92716700  0.52853800  0.03802600  1
  H  182  1  0.87986700  0.89087600  0.04411300  1
  H  184  1  0.93920800  0.93245900  0.18124500  1
  H  186  1  0.80619300  0.84410200  0.03696900  1
  H  187  1  0.77107400  0.83327500  0.09098600  1
  H  188  1  0.81822900  0.79093900  0.07304900  1
  H  190  1  0.86608600  0.84786500  0.25875000  1
  H  191  1  0.88451600  0.91031800  0.25897600  1
  H  192  1  0.92854000  0.86281000  0.24717100  1
  H  198  1  0.63130600  0.12050200  0.54410000  1
  H  200  1  0.57224000  0.07861600  0.68125200  1
  H  202  1  0.70496900  0.16728600  0.53692400  1
  H  203  1  0.74011400  0.17813000  0.59091800  1
  H  204  1  0.69291400  0.22042900  0.57302300  1
  H  206  1  0.64527900  0.16329900  0.75874400  1
  H  207  1  0.62700600  0.10079700  0.75895600  1
  H  208  1  0.58284800  0.14820400  0.74723100  1
  H  214  1  0.37141300  0.62803300  0.29297000  1
  H  216  1  0.33358000  0.69170800  0.42931100  1
  H  218  1  0.40159400  0.53476800  0.30234700  1
  H  219  1  0.45089400  0.52879400  0.34455700  1
  H  220  1  0.45394800  0.57435100  0.29732200  1
  H  222  1  0.41785600  0.61895000  0.50725200  1
  H  223  1  0.35589300  0.63891600  0.50800100  1
  H  224  1  0.40425000  0.68134500  0.49401700  1
  H  230  1  0.14002300  0.38338700  0.79296900  1
  H  232  1  0.17766200  0.31956300  0.92933400  1
  H  234  1  0.10983600  0.47667000  0.80237100  1
  H  235  1  0.06052200  0.48263300  0.84456600  1
  H  236  1  0.05746700  0.43711000  0.79730300  1
  H  238  1  0.09332500  0.39231800  0.00724000  1
  H  239  1  0.15526700  0.37228900  0.00806300  1
  H  240  1  0.10689100  0.32992100  0.99396600  1
  H  246  1  0.63135000  0.89088300  0.46723500  1
  H  248  1  0.57226600  0.93261400  0.33003600  1
  H  250  1  0.70503900  0.84412800  0.47444800  1
  H  251  1  0.74019600  0.83326000  0.42046100  1
  H  252  1  0.69299500  0.79096500  0.43837100  1
  H  254  1  0.64536100  0.84793900  0.25260100  1
  H  255  1  0.62704300  0.91042600  0.25236600  1
  H  256  1  0.58292200  0.86299600  0.26411200  1
  H  262  1  0.87989300  0.12045300  0.96721800  1
  H  264  1  0.93925200  0.07885200  0.83009900  1
  H  266  1  0.80627500  0.16732600  0.97435300  1
  H  267  1  0.77115500  0.17813700  0.92033300  1
  H  268  1  0.81833300  0.22045900  0.93823900  1
  H  270  1  0.86619800  0.16347500  0.75255900  1
  H  271  1  0.88459800  0.10101300  0.75234400  1
  H  272  1  0.92864000  0.14850100  0.76415800  1
  H  278  1  0.13992600  0.62802600  0.21833300  1
  H  280  1  0.17775300  0.69167400  0.08196800  1
  H  282  1  0.10972500  0.53474600  0.20898000  1
  H  283  1  0.06042200  0.52878300  0.16677000  1
  H  284  1  0.05737800  0.57434000  0.21400600  1
  H  286  1  0.09342600  0.61894300  0.00404400  1
  H  287  1  0.15539600  0.63888600  0.00326400  1
  H  288  1  0.10706200  0.68133300  0.01727200  1
  H  294  1  0.37134300  0.38335700  0.71838600  1
  H  296  1  0.33365800  0.31954600  0.58203900  1
  H  298  1  0.40151600  0.47662200  0.70897200  1
  H  299  1  0.45082000  0.48259600  0.66677000  1
  H  300  1  0.45388800  0.43706200  0.71402200  1
  H  302  1  0.41793400  0.39232900  0.50410900  1
  H  303  1  0.35599700  0.37229300  0.50333000  1
  H  304  1  0.40438800  0.32992700  0.51738100  1
  H  310  1  0.13235200  0.12076200  0.96760000  1
  H  312  1  0.07336100  0.07911400  0.83033300  1
  H  314  1  0.20581700  0.16789000  0.97490900  1
  H  315  1  0.24098500  0.17889100  0.92095600  1
  H  316  1  0.19361200  0.22101400  0.93881800  1
  H  318  1  0.14608400  0.16417000  0.75301100  1
  H  319  1  0.12793500  0.10164000  0.75268500  1
  H  320  1  0.08370300  0.14893100  0.76458400  1
  H  326  1  0.37899400  0.89056000  0.46753500  1
  H  328  1  0.43780400  0.93231400  0.33023200  1
  H  330  1  0.30547300  0.84350900  0.47489700  1
  H  331  1  0.27028700  0.83246600  0.42096200  1
  H  332  1  0.31767800  0.79036400  0.43883500  1
  H  334  1  0.36509400  0.84720000  0.25296000  1
  H  335  1  0.38316400  0.90975400  0.25260700  1
  H  336  1  0.42746300  0.86252100  0.26447900  1
  H  342  1  0.64315000  0.38435900  0.71725000  1
  H  344  1  0.67632100  0.31712300  0.58141600  1
  H  346  1  0.60071000  0.46090500  0.72246700  1
  H  347  1  0.59059100  0.49411700  0.66708500  1
  H  348  1  0.54571000  0.45100900  0.68855800  1
  H  350  1  0.59121500  0.38972800  0.50413900  1
  H  351  1  0.65279700  0.36864900  0.50217200  1
  H  352  1  0.60410800  0.32734000  0.51820900  1
  H  358  1  0.86826100  0.62696800  0.21732600  1
  H  360  1  0.83488900  0.69406000  0.08147300  1
  H  362  1  0.91074100  0.55044800  0.22254500  1
  H  363  1  0.92084500  0.51721400  0.16717300  1
  H  364  1  0.96570800  0.56036600  0.18859000  1
  H  366  1  0.91999900  0.62150300  0.00417000  1
  H  367  1  0.85838700  0.64249300  0.00225900  1
  H  368  1  0.90703800  0.68387900  0.01821400  1
  H  374  1  0.37903100  0.12082100  0.54374700  1
  H  376  1  0.43777000  0.07895100  0.68103300  1
  H  378  1  0.30557200  0.16795200  0.53639300  1
  H  379  1  0.27037300  0.17898000  0.59032100  1
  H  380  1  0.31780200  0.22105900  0.57250300  1
  H  382  1  0.36509200  0.16404200  0.75834700  1
  H  383  1  0.38312700  0.10147900  0.75864400  1
  H  384  1  0.42745500  0.14869900  0.74683000  1
  H  390  1  0.13239000  0.89060100  0.04374800  1
  H  392  1  0.07335600  0.93216500  0.18103000  1
  H  394  1  0.20592700  0.84356800  0.03643400  1
  H  395  1  0.24108400  0.83255500  0.09039300  1
  H  396  1  0.19374900  0.79040500  0.07248100  1
  H  398  1  0.14611100  0.84709700  0.25831800  1
  H  399  1  0.12793100  0.90961700  0.25869400  1
  H  400  1  0.08372500  0.86231700  0.24674600  1
  H  406  1  0.86816400  0.38441400  0.79401200  1
  H  408  1  0.83498900  0.31718500  0.92984300  1
  H  410  1  0.91063800  0.46093400  0.78879500  1
  H  411  1  0.92076700  0.49414600  0.84417600  1
  H  412  1  0.96563300  0.45102000  0.82271200  1
  H  414  1  0.92011400  0.38974600  0.00711800  1
  H  415  1  0.85852800  0.36869000  0.00907500  1
  H  416  1  0.90720500  0.32737000  0.99303100  1
  H  422  1  0.64304900  0.62700600  0.29405600  1
  H  424  1  0.67642100  0.69410100  0.42991500  1
  H  426  1  0.60060200  0.55046000  0.28883700  1
  H  427  1  0.59050200  0.51722500  0.34421000  1
  H  428  1  0.54562900  0.56036300  0.32278700  1
  H  430  1  0.59132600  0.62150700  0.50721500  1
  H  431  1  0.65293400  0.64251500  0.50914000  1
  H  432  1  0.60427500  0.68389000  0.49318900  1
  C  1  1  0.00620500  0.02394500  0.98523900  1
  C  2  1  0.05080800  0.04200100  0.96277600  1
  C  3  1  0.05186600  0.07953600  0.92592800  1
  C  4  1  0.00618100  0.10225600  0.91204400  1
  C  5  1  0.96053200  0.07936600  0.92577600  1
  C  6  1  0.96160800  0.04180500  0.96260600  1
  C  9  1  0.00620500  0.98729100  0.02608100  1
  C  10  1  0.05080400  0.96924400  0.04855900  1
  C  11  1  0.05186000  0.93173500  0.08543300  1
  C  12  1  0.00617600  0.90902300  0.09934400  1
  C  13  1  0.96052800  0.93190200  0.08557600  1
  C  14  1  0.96160800  0.96942900  0.04871300  1
  C  23  1  0.50508800  0.98733900  0.48519000  1
  C  24  1  0.46049300  0.96926200  0.46274100  1
  C  25  1  0.45943900  0.93178300  0.42583400  1
  C  26  1  0.50512900  0.90912700  0.41184900  1
  C  27  1  0.55077500  0.93197600  0.42567100  1
  C  28  1  0.54969100  0.96947000  0.46257100  1
  C  31  1  0.50508800  0.02392400  0.52610400  1
  C  32  1  0.46048600  0.04201300  0.54854100  1
  C  33  1  0.45943200  0.07950100  0.58543800  1
  C  34  1  0.50512200  0.10215500  0.59941500  1
  C  35  1  0.55076700  0.07929800  0.58561900  1
  C  36  1  0.54968800  0.04179000  0.54873400  1
  C  45  1  0.23707500  0.75531900  0.23550700  1
  C  46  1  0.22073000  0.80000800  0.21207900  1
  C  47  1  0.18084700  0.80211900  0.17788300  1
  C  48  1  0.15668800  0.75704100  0.16445700  1
  C  49  1  0.17872400  0.71088000  0.17809500  1
  C  50  1  0.21680300  0.71103500  0.21447200  1
  C  53  1  0.27424600  0.75532700  0.27578100  1
  C  54  1  0.29057500  0.80001500  0.29921700  1
  C  55  1  0.33046700  0.80214100  0.33340300  1
  C  56  1  0.35464800  0.75707100  0.34681700  1
  C  57  1  0.33261900  0.71090600  0.33318300  1
  C  58  1  0.29453800  0.71104700  0.29681000  1
  C  67  1  0.27425800  0.25601800  0.73555400  1
  C  68  1  0.29060600  0.21132600  0.71213000  1
  C  69  1  0.33051200  0.20920600  0.67796100  1
  C  70  1  0.35470100  0.25427900  0.66457000  1
  C  71  1  0.33264500  0.30044400  0.67817200  1
  C  72  1  0.29454900  0.30029800  0.71452700  1
  C  75  1  0.23706100  0.25602500  0.77580100  1
  C  76  1  0.22068800  0.21133600  0.79921400  1
  C  77  1  0.18078900  0.20923200  0.83339000  1
  C  78  1  0.15662700  0.25431600  0.84679200  1
  C  79  1  0.17870000  0.30047400  0.83319700  1
  C  80  1  0.21679300  0.30031300  0.79683500  1
  C  89  1  0.77430200  0.25515900  0.77572300  1
  C  90  1  0.79124400  0.21046100  0.79871600  1
  C  91  1  0.83121600  0.20854000  0.83280000  1
  C  92  1  0.85506300  0.25376900  0.84622500  1
  C  93  1  0.83226600  0.29979800  0.83339400  1
  C  94  1  0.79391900  0.29949400  0.79729500  1
  C  97  1  0.73702700  0.25514600  0.73554600  1
  C  98  1  0.72011100  0.21043700  0.71256000  1
  C  99  1  0.68015000  0.20848900  0.67845800  1
  C  100  1  0.65627700  0.25370200  0.66503000  1
  C  101  1  0.67904800  0.29974400  0.67786400  1
  C  102  1  0.71738000  0.29946700  0.71397800  1
  C  111  1  0.73705300  0.75614700  0.27581500  1
  C  112  1  0.72015900  0.80086100  0.29881100  1
  C  113  1  0.68020200  0.80281600  0.33291200  1
  C  114  1  0.65632500  0.75761200  0.34636600  1
  C  115  1  0.67904400  0.71156200  0.33347700  1
  C  116  1  0.71735800  0.71182900  0.29734000  1
  C  119  1  0.77425700  0.75613600  0.23556800  1
  C  120  1  0.79117700  0.80084200  0.21257600  1
  C  121  1  0.83113400  0.80278300  0.17847600  1
  C  122  1  0.85499200  0.75756800  0.16503000  1
  C  123  1  0.83225500  0.71152500  0.17790800  1
  C  124  1  0.79393700  0.71180700  0.21404200  1
  C  133  1  0.50613500  0.52377400  0.48506700  1
  C  134  1  0.55057500  0.54217000  0.46280100  1
  C  135  1  0.55164300  0.58069900  0.42695400  1
  C  136  1  0.50599000  0.60268000  0.41154100  1
  C  137  1  0.46040800  0.58064800  0.42705100  1
  C  138  1  0.46165800  0.54189600  0.46265200  1
  C  141  1  0.50613500  0.48754600  0.52627900  1
  C  142  1  0.55057500  0.46914200  0.54853800  1
  C  143  1  0.55164300  0.43062800  0.58439900  1
  C  144  1  0.50599000  0.40866900  0.59983800  1
  C  145  1  0.46040800  0.43069800  0.58431700  1
  C  146  1  0.46165800  0.46943900  0.54870400  1
  C  155  1  0.00521600  0.48755700  0.98503900  1
  C  156  1  0.96077600  0.46916400  0.96276500  1
  C  157  1  0.95970800  0.43066100  0.92689300  1
  C  158  1  0.00536500  0.40869900  0.91145800  1
  C  159  1  0.05094700  0.43070900  0.92700000  1
  C  160  1  0.04969200  0.46945000  0.96261300  1
  C  163  1  0.00521200  0.52377400  0.02626000  1
  C  164  1  0.96077600  0.54216300  0.04853700  1
  C  165  1  0.95970000  0.58067700  0.08439800  1
  C  166  1  0.00535700  0.60266500  0.09980800  1
  C  167  1  0.05094100  0.58064400  0.08428100  1
  C  168  1  0.04968800  0.54188500  0.04868600  1
  C  177  1  0.91485300  0.91639200  0.10889500  1
  C  178  1  0.87829700  0.89033800  0.08207800  1
  C  179  1  0.84429500  0.85800500  0.10604600  1
  C  180  1  0.84828400  0.84949300  0.15835700  1
  C  181  1  0.88135900  0.87998900  0.18638500  1
  C  183  1  0.91231100  0.91436600  0.16129900  1
  C  185  1  0.80811100  0.83004000  0.07492400  1
  C  189  1  0.89031200  0.87461300  0.24072900  1
  C  193  1  0.59645800  0.09483200  0.60889100  1
  C  194  1  0.63292700  0.12099100  0.58206100  1
  C  195  1  0.66692200  0.15333400  0.60602700  1
  C  196  1  0.66299300  0.16176700  0.65836200  1
  C  197  1  0.63000000  0.13117900  0.68638300  1
  C  199  1  0.59908100  0.09677100  0.66129700  1
  C  201  1  0.70306200  0.18133700  0.57488500  1
  C  205  1  0.62109900  0.13649900  0.74073700  1
  C  209  1  0.34840000  0.66573900  0.35725600  1
  C  210  1  0.37273400  0.62767000  0.33096600  1
  C  211  1  0.40389800  0.59288800  0.35533500  1
  C  212  1  0.41364900  0.59803500  0.40733400  1
  C  213  1  0.38476700  0.63283100  0.43498800  1
  C  215  1  0.35086400  0.66408000  0.40967500  1
  C  217  1  0.42923600  0.55561700  0.32337700  1
  C  221  1  0.39138300  0.64325300  0.48894800  1
  C  225  1  0.16290900  0.34564200  0.85729300  1
  C  226  1  0.13866100  0.38373500  0.83096400  1
  C  227  1  0.10748700  0.41851700  0.85532300  1
  C  228  1  0.09773000  0.41330000  0.90730600  1
  C  229  1  0.12651100  0.37847400  0.93501100  1
  C  231  1  0.16042200  0.34722700  0.90971000  1
  C  233  1  0.08217400  0.45581800  0.82337600  1
  C  237  1  0.11980100  0.36800700  0.98895300  1
  C  241  1  0.59647600  0.91645500  0.40241400  1
  C  242  1  0.63297600  0.89036700  0.42927000  1
  C  243  1  0.66700800  0.85803900  0.40533800  1
  C  244  1  0.66306700  0.84953800  0.35301900  1
  C  245  1  0.63006300  0.88008200  0.32495600  1
  C  247  1  0.59911800  0.91448900  0.35001100  1
  C  249  1  0.70314300  0.83005800  0.43649400  1
  C  253  1  0.62116200  0.87472800  0.27060000  1
  C  257  1  0.91486700  0.09490100  0.90244500  1
  C  258  1  0.87833500  0.12099500  0.92925300  1
  C  259  1  0.84436600  0.15336400  0.90528300  1
  C  260  1  0.84836900  0.16184400  0.85297800  1
  C  261  1  0.88143600  0.13134900  0.82493400  1
  C  263  1  0.91235900  0.09695700  0.85003500  1
  C  265  1  0.80819600  0.18136300  0.93638800  1
  C  269  1  0.89040500  0.13671600  0.77059100  1
  C  273  1  0.16294500  0.66570900  0.15402900  1
  C  274  1  0.13860100  0.62765100  0.18033600  1
  C  275  1  0.10742800  0.59286200  0.15599200  1
  C  276  1  0.09772000  0.59803800  0.10399800  1
  C  277  1  0.12655900  0.63281200  0.07629200  1
  C  279  1  0.16047000  0.66404700  0.10160500  1
  C  281  1  0.08208200  0.55559800  0.18795100  1
  C  285  1  0.11991600  0.64323500  0.02233300  1
  C  289  1  0.34844200  0.34560600  0.65407300  1
  C  290  1  0.37269300  0.38370200  0.68039100  1
  C  291  1  0.40385700  0.41847600  0.65601000  1
  C  292  1  0.41364100  0.41330000  0.60401600  1
  C  293  1  0.38480800  0.37846300  0.57636200  1
  C  295  1  0.35090800  0.34720300  0.60166000  1
  C  297  1  0.42917300  0.45577300  0.68795700  1
  C  301  1  0.39147900  0.36801000  0.52241200  1
  C  305  1  0.09755100  0.09520100  0.90273400  1
  C  306  1  0.13398300  0.12134000  0.92963900  1
  C  307  1  0.16791200  0.15382500  0.90576600  1
  C  308  1  0.16389600  0.16241000  0.85347500  1
  C  309  1  0.13097300  0.13184600  0.82533500  1
  C  311  1  0.10016500  0.09728200  0.85033600  1
  C  313  1  0.20390500  0.18195400  0.93695600  1
  C  317  1  0.12198500  0.13728500  0.77099600  1
  C  321  1  0.41374500  0.91615900  0.40265100  1
  C  322  1  0.37732400  0.89000400  0.42957400  1
  C  323  1  0.34334800  0.85754500  0.40573500  1
  C  324  1  0.34735600  0.84898500  0.35344500  1
  C  325  1  0.38022200  0.87955500  0.32526400  1
  C  327  1  0.41102600  0.91412900  0.35025300  1
  C  329  1  0.30737300  0.82942000  0.43695000  1
  C  333  1  0.38917100  0.87412000  0.27092100  1
  C  337  1  0.66364200  0.34480900  0.65327500  1
  C  338  1  0.64090800  0.38404300  0.67932600  1
  C  339  1  0.60956300  0.41871700  0.65498200  1
  C  340  1  0.59836800  0.41240200  0.60343700  1
  C  341  1  0.62592200  0.37661500  0.57576100  1
  C  343  1  0.65998700  0.34542500  0.60088800  1
  C  345  1  0.58530800  0.45822200  0.68508500  1
  C  349  1  0.61774400  0.36529200  0.52220100  1
  C  353  1  0.84767200  0.66645100  0.15334500  1
  C  354  1  0.87046500  0.62725800  0.17939700  1
  C  355  1  0.90181000  0.59259500  0.15504500  1
  C  356  1  0.91298600  0.59886600  0.10348800  1
  C  357  1  0.88535100  0.63461200  0.07582400  1
  C  359  1  0.85126700  0.66578700  0.10095500  1
  C  361  1  0.92611400  0.55312400  0.18514900  1
  C  365  1  0.89345800  0.64591000  0.02224900  1
  C  369  1  0.41373800  0.09514600  0.60862000  1
  C  370  1  0.37735400  0.12135600  0.58170500  1
  C  371  1  0.34340900  0.15383600  0.60556300  1
  C  372  1  0.34737600  0.16238000  0.65786100  1
  C  373  1  0.38022200  0.13174700  0.68601200  1
  C  375  1  0.41101400  0.09716700  0.66101500  1
  C  377  1  0.30746800  0.18200900  0.57435500  1
  C  381  1  0.38916000  0.13712800  0.74036600  1
  C  385  1  0.09755400  0.91609600  0.10862700  1
  C  386  1  0.13402000  0.89001100  0.08170900  1
  C  387  1  0.16798700  0.85755600  0.10557000  1
  C  388  1  0.16393600  0.84896300  0.15785300  1
  C  389  1  0.13099600  0.87947000  0.18602000  1
  C  391  1  0.10017500  0.91402500  0.16102700  1
  C  393  1  0.20401300  0.82947200  0.07437700  1
  C  397  1  0.12200200  0.87398600  0.24035100  1
  C  401  1  0.84766100  0.34487000  0.85797900  1
  C  402  1  0.87040900  0.38409500  0.83193600  1
  C  403  1  0.90176600  0.41875400  0.85628400  1
  C  404  1  0.91299000  0.41245800  0.90782500  1
  C  405  1  0.88541000  0.37666300  0.93548600  1
  C  407  1  0.85132600  0.34548600  0.91036700  1
  C  409  1  0.92603600  0.45824800  0.82618100  1
  C  413  1  0.89358100  0.36532700  0.98904600  1
  C  417  1  0.66362700  0.66649200  0.35804100  1
  C  418  1  0.64084500  0.62729100  0.33198500  1
  C  419  1  0.60951500  0.59261000  0.35633400  1
  C  420  1  0.59836800  0.59889900  0.40789400  1
  C  421  1  0.62598100  0.63464200  0.43557000  1
  C  423  1  0.66004700  0.66582400  0.41043600  1
  C  425  1  0.58522600  0.55313100  0.32623100  1
  C  429  1  0.61786700  0.64592900  0.48914900  1
  N  8  1  0.00616100  0.14655600  0.88725800  1
  N  15  1  0.00615400  0.86476200  0.12420300  1
  N  30  1  0.50518500  0.86490300  0.38692600  1
  N  37  1  0.50517800  0.14639000  0.62431200  1
  N  52  1  0.11274800  0.75790900  0.13904300  1
  N  59  1  0.39859900  0.75795000  0.37221500  1
  N  74  1  0.39864800  0.25341800  0.63915300  1
  N  81  1  0.11268600  0.25347000  0.87221600  1
  N  96  1  0.89937600  0.25314500  0.87097300  1
  N  103  1  0.61196700  0.25305300  0.64026700  1
  N  118  1  0.61203000  0.75826500  0.37115000  1
  N  125  1  0.89929800  0.75820600  0.14026800  1
  N  140  1  0.50592700  0.64426600  0.38234400  1
  N  147  1  0.50592300  0.36710500  0.62906800  1
  N  162  1  0.00543900  0.36715800  0.88219300  1
  N  169  1  0.00542000  0.64422200  0.12905300  1
