# generated using pymatgen
data_SiH24C36(N2O)2
_symmetry_space_group_name_H-M   'P 1'
_cell_length_a   12.03436667
_cell_length_b   12.03436667
_cell_length_c   48.13820000
_cell_angle_alpha   90.03510000
_cell_angle_beta   89.94740000
_cell_angle_gamma   90.00000000
_symmetry_Int_Tables_number   1
_chemical_formula_structural   SiH24C36(N2O)2
_chemical_formula_sum   'Si4 H96 C144 N16 O8'
_cell_volume   6971.65779576
_cell_formula_units_Z   4
loop_
 _symmetry_equiv_pos_site_id
 _symmetry_equiv_pos_as_xyz
  1  'x, y, z'
loop_
 _atom_site_type_symbol
 _atom_site_label
 _atom_site_symmetry_multiplicity
 _atom_site_fract_x
 _atom_site_fract_y
 _atom_site_fract_z
 _atom_site_occupancy
  C  1  1  0.82991700  0.93074700  0.95479800  1
  C  2  1  0.80866700  0.83635400  0.93809200  1
  C  3  1  0.73451000  0.84149600  0.91556200  1
  C  4  1  0.67666500  0.94070100  0.90906100  1
  C  5  1  0.69702000  0.03477700  0.92599800  1
  C  6  1  0.77080500  0.02935200  0.94862500  1
  C  8  1  0.71476000  0.94976500  0.85613900  1
  C  9  1  0.79049200  0.03979100  0.85654700  1
  C  10  1  0.87368200  0.05039100  0.83626500  1
  C  11  1  0.88378900  0.97325900  0.81414300  1
  C  12  1  0.81368600  0.87848300  0.81520800  1
  C  13  1  0.73178600  0.86616800  0.83592200  1
  C  14  1  0.51460000  0.85098000  0.87396800  1
  C  15  1  0.53277800  0.06260300  0.87399500  1
  C  16  1  0.51814000  0.10492800  0.84680600  1
  C  17  1  0.43915300  0.18721100  0.84120600  1
  C  18  1  0.37602200  0.23674800  0.86276500  1
  C  19  1  0.38741500  0.19097700  0.88974400  1
  C  20  1  0.46010900  0.10183700  0.89493200  1
  C  21  1  0.47403500  0.78461700  0.89601800  1
  C  22  1  0.39472300  0.70107000  0.89112200  1
  C  23  1  0.35059400  0.68406000  0.86420400  1
  C  24  1  0.37952600  0.76009200  0.84308100  1
  C  25  1  0.46139500  0.84068200  0.84780700  1
  C  42  1  0.02989100  0.05732000  0.44303000  1
  C  43  1  0.93503000  0.04552800  0.42597700  1
  C  44  1  0.92380300  0.10853100  0.40153300  1
  C  45  1  0.00446200  0.18964000  0.39457400  1
  C  46  1  0.10654100  0.18808800  0.40919400  1
  C  47  1  0.11896700  0.12314200  0.43325000  1
  C  49  1  0.98494500  0.22168200  0.34114800  1
  C  50  1  0.09063500  0.18249000  0.33260800  1
  C  51  1  0.10576900  0.13445500  0.30631300  1
  C  52  1  0.01479800  0.11925900  0.28820700  1
  C  53  1  0.90741100  0.14760900  0.29761500  1
  C  54  1  0.89276100  0.19804100  0.32380200  1
  C  55  1  0.85242400  0.34833100  0.37747700  1
  C  56  1  0.05801000  0.39783600  0.37448600  1
  C  57  1  0.12173000  0.44023100  0.35219300  1
  C  58  1  0.20440100  0.52044900  0.35694600  1
  C  59  1  0.22228500  0.56423200  0.38389000  1
  C  60  1  0.14552800  0.53636500  0.40500200  1
  C  61  1  0.06593900  0.45320800  0.40045300  1
  C  62  1  0.80729000  0.35139700  0.40465700  1
  C  63  1  0.71612400  0.41917200  0.41110900  1
  C  64  1  0.66447600  0.48580600  0.39063500  1
  C  65  1  0.71331100  0.48736200  0.36385400  1
  C  66  1  0.80680600  0.42200400  0.35760100  1
  C  83  1  0.15756500  0.94393400  0.03868700  1
  C  84  1  0.18872600  0.84605400  0.05279100  1
  C  85  1  0.26582800  0.85019600  0.07472100  1
  C  86  1  0.31891800  0.95096000  0.08231800  1
  C  87  1  0.28865100  0.04832500  0.06760000  1
  C  88  1  0.20961900  0.04483300  0.04609500  1
  C  90  1  0.28573000  0.95998400  0.13538200  1
  C  91  1  0.21880300  0.05660400  0.13734100  1
  C  92  1  0.14468700  0.07128400  0.15955800  1
  C  93  1  0.13350100  0.98924600  0.18035700  1
  C  94  1  0.19154100  0.88799500  0.17692700  1
  C  95  1  0.26548800  0.87300800  0.15452700  1
  C  96  1  0.48219100  0.85740600  0.11671500  1
  C  97  1  0.46903700  0.06847900  0.11660100  1
  C  98  1  0.49037500  0.10763400  0.14382900  1
  C  99  1  0.57099300  0.18882100  0.14890800  1
  C  100  1  0.62846700  0.24096300  0.12679200  1
  C  101  1  0.61111800  0.19814100  0.09969500  1
  C  102  1  0.53657300  0.11006400  0.09490100  1
  C  103  1  0.52500100  0.79419600  0.09433100  1
  C  104  1  0.60385800  0.70996000  0.09897600  1
  C  105  1  0.64544700  0.68954300  0.12598200  1
  C  106  1  0.61476000  0.76292000  0.14755100  1
  C  107  1  0.53311400  0.84378500  0.14305800  1
  C  124  1  0.02360900  0.12557400  0.55767100  1
  C  125  1  0.12865900  0.15367900  0.56888700  1
  C  126  1  0.13746000  0.20776200  0.59476800  1
  C  127  1  0.04121600  0.24217600  0.60935300  1
  C  128  1  0.93774100  0.20084500  0.59982700  1
  C  129  1  0.92938800  0.14227600  0.57470700  1
  C  131  1  0.06087100  0.22258900  0.66349600  1
  C  132  1  0.97063900  0.15076400  0.66946200  1
  C  133  1  0.97229100  0.08088000  0.69280500  1
  C  134  1  0.06459200  0.07986500  0.71089200  1
  C  135  1  0.15766100  0.14598200  0.70413300  1
  C  136  1  0.15716900  0.21365700  0.68028300  1
  C  137  1  0.14237600  0.41834700  0.64022700  1
  C  138  1  0.93426800  0.39433800  0.64235800  1
  C  139  1  0.89209500  0.41905700  0.66909000  1
  C  140  1  0.80774000  0.49806500  0.67267300  1
  C  141  1  0.75746500  0.55161700  0.64965800  1
  C  142  1  0.80189300  0.52849300  0.62302000  1
  C  143  1  0.89164400  0.45523200  0.61958600  1
  C  144  1  0.20280300  0.45803000  0.61703500  1
  C  145  1  0.28717700  0.53786800  0.62043200  1
  C  146  1  0.30868900  0.58538000  0.64679400  1
  C  147  1  0.23416500  0.56157700  0.66865600  1
  C  148  1  0.15492200  0.47728100  0.66559800  1
  C  165  1  0.04923200  0.03926000  0.73820100  1
  C  167  1  0.99379200  0.10128900  0.78334600  1
  C  168  1  0.95219400  0.99469900  0.79024300  1
  C  170  1  0.01386900  0.93029100  0.74499400  1
  C  172  1  0.02379800  0.84255600  0.72652700  1
  C  173  1  0.93088300  0.76745600  0.72250100  1
  C  178  1  0.08791500  0.01905700  0.20654200  1
  C  180  1  0.10528300  0.15133200  0.24347300  1
  C  181  1  0.03429300  0.08751500  0.26038700  1
  C  183  1  0.01457500  0.95497000  0.22326000  1
  C  185  1  0.96625500  0.85736000  0.21392500  1
  C  186  1  0.86615700  0.86576600  0.19737200  1
  C  191  1  0.07164800  0.94127800  0.01855400  1
  C  193  1  0.01032900  0.86628200  0.97513600  1
  C  194  1  0.91151600  0.92969600  0.97628900  1
  C  196  1  0.97204700  0.00413000  0.02030100  1
  C  198  1  0.94322000  0.06816500  0.04305600  1
  C  199  1  0.90506100  0.01603600  0.06851800  1
  C  204  1  0.01254200  0.09232800  0.52930900  1
  C  206  1  0.09992300  0.00314900  0.49010500  1
  C  207  1  0.01829600  0.04617800  0.47210900  1
  C  209  1  0.92981000  0.13532300  0.51109200  1
  C  211  1  0.85213700  0.21560600  0.51810100  1
  C  212  1  0.88566200  0.33096100  0.51533000  1
  C  217  1  0.32718800  0.34360900  0.85817300  1
  C  219  1  0.37480600  0.51748000  0.83663600  1
  C  220  1  0.31429500  0.57577900  0.85703600  1
  C  222  1  0.24976200  0.40073700  0.87543800  1
  C  224  1  0.17620600  0.34868900  0.89341700  1
  C  225  1  0.09298400  0.27313300  0.88248300  1
  C  230  1  0.33296200  0.59042700  0.39181500  1
  C  232  1  0.48236800  0.49475800  0.41467400  1
  C  233  1  0.55959200  0.53779800  0.39539800  1
  C  235  1  0.41162800  0.64770500  0.37512300  1
  C  237  1  0.38204500  0.72503800  0.35505200  1
  C  238  1  0.32298100  0.82507600  0.36324900  1
  C  243  1  0.67516800  0.34872000  0.13127300  1
  C  245  1  0.62518800  0.52106400  0.15324100  1
  C  246  1  0.68283700  0.58112000  0.13261500  1
  C  248  1  0.74930800  0.40771500  0.11360500  1
  C  250  1  0.82285800  0.35643500  0.09554200  1
  C  251  1  0.91779900  0.29875500  0.10724600  1
  C  256  1  0.65065500  0.60187600  0.65283900  1
  C  258  1  0.47543900  0.56330700  0.67458200  1
  C  259  1  0.41854700  0.61938500  0.65313800  1
  C  261  1  0.59560700  0.67426000  0.63391200  1
  C  263  1  0.64951200  0.74007900  0.61447800  1
  C  264  1  0.72439600  0.82713500  0.62365800  1
  H  26  1  0.43425000  0.21618700  0.82123500  1
  H  27  1  0.56310700  0.07551200  0.83030200  1
  H  28  1  0.34773300  0.22504600  0.90643900  1
  H  29  1  0.46269600  0.06979500  0.91462600  1
  H  30  1  0.50557300  0.79141300  0.91566100  1
  H  31  1  0.37859400  0.64586700  0.90680500  1
  H  32  1  0.35184100  0.74846700  0.82316700  1
  H  33  1  0.48563300  0.88726000  0.83110800  1
  H  34  1  0.68207300  0.79737300  0.83514500  1
  H  35  1  0.81708900  0.81932300  0.79995200  1
  H  36  1  0.92397900  0.11852400  0.83753700  1
  H  37  1  0.78369000  0.10209300  0.87098200  1
  H  38  1  0.66435200  0.11078500  0.92121000  1
  H  39  1  0.72639400  0.77199600  0.90340500  1
  H  40  1  0.84870200  0.76284700  0.94178400  1
  H  41  1  0.78606700  0.10082800  0.95953100  1
  H  67  1  0.26041200  0.53434600  0.34132300  1
  H  68  1  0.11650200  0.40695600  0.33270800  1
  H  69  1  0.15838400  0.56256700  0.42501100  1
  H  70  1  0.02161500  0.42676200  0.41736200  1
  H  71  1  0.84255500  0.30829700  0.42069600  1
  H  72  1  0.68819600  0.41879800  0.43117700  1
  H  73  1  0.68010400  0.53447000  0.34823400  1
  H  74  1  0.84072300  0.42910700  0.33815100  1
  H  75  1  0.81381400  0.21931200  0.32957300  1
  H  76  1  0.84007200  0.13804600  0.28484600  1
  H  77  1  0.18461700  0.11363000  0.30017700  1
  H  78  1  0.15981500  0.19426200  0.34466700  1
  H  79  1  0.16911800  0.24241200  0.40446200  1
  H  80  1  0.84887900  0.10601700  0.39144900  1
  H  81  1  0.86701900  0.00299900  0.43311500  1
  H  82  1  0.18662500  0.13819600  0.44560200  1
  H  108  1  0.57970300  0.21655900  0.16891900  1
  H  109  1  0.44823800  0.07746100  0.16070100  1
  H  110  1  0.64681800  0.23446200  0.08273100  1
  H  111  1  0.52841300  0.08088200  0.07501800  1
  H  112  1  0.49570000  0.80418700  0.07455500  1
  H  113  1  0.62183200  0.65709700  0.08290600  1
  H  114  1  0.64100800  0.74941200  0.16750400  1
  H  115  1  0.50751300  0.88812500  0.16001900  1
  H  116  1  0.30973100  0.80055200  0.15370200  1
  H  117  1  0.18920600  0.82851600  0.19210800  1
  H  118  1  0.10557800  0.14648600  0.16160900  1
  H  119  1  0.22967800  0.12227700  0.12407900  1
  H  120  1  0.31836100  0.12461600  0.07331700  1
  H  121  1  0.27946900  0.77855600  0.08570000  1
  H  122  1  0.14981900  0.77230300  0.04851900  1
  H  123  1  0.18767500  0.11746600  0.03647900  1
  H  149  1  0.77853100  0.51092600  0.69241000  1
  H  150  1  0.92307000  0.38154900  0.68652100  1
  H  151  1  0.76614000  0.55937800  0.60542500  1
  H  152  1  0.92163200  0.44332900  0.59987700  1
  H  153  1  0.19190500  0.42500300  0.59769500  1
  H  154  1  0.33969600  0.55212400  0.60406000  1
  H  155  1  0.24769900  0.59277400  0.68817200  1
  H  156  1  0.11184500  0.45513000  0.68306800  1
  H  157  1  0.22573000  0.26167200  0.67662600  1
  H  158  1  0.22418500  0.14983400  0.71735300  1
  H  159  1  0.90102600  0.03889200  0.69786900  1
  H  160  1  0.89816600  0.15478000  0.65840400  1
  H  161  1  0.86552500  0.21606500  0.61041900  1
  H  162  1  0.21511100  0.22796300  0.60179600  1
  H  163  1  0.19968800  0.14125800  0.55758600  1
  H  164  1  0.85223800  0.11754000  0.56827000  1
  H  171  1  0.98224000  0.16923200  0.79564800  1
  H  174  1  0.92057200  0.71328100  0.74051600  1
  H  175  1  0.94495600  0.71577600  0.70413900  1
  H  176  1  0.85414000  0.81402300  0.71924500  1
  H  184  1  0.14116300  0.22323000  0.25037800  1
  H  187  1  0.79600100  0.89156000  0.21026900  1
  H  188  1  0.84682100  0.78525100  0.18803500  1
  H  189  1  0.87666700  0.92563400  0.18053700  1
  H  197  1  0.02883200  0.81686600  0.95851300  1
  H  200  1  0.91827800  0.92619700  0.06849300  1
  H  201  1  0.81644100  0.03155700  0.07156200  1
  H  202  1  0.95065300  0.05083800  0.08606100  1
  H  210  1  0.16711100  0.96065700  0.48262900  1
  H  213  1  0.82440600  0.38516700  0.52517900  1
  H  214  1  0.89276000  0.35387000  0.49343100  1
  H  215  1  0.96553400  0.34560500  0.52547600  1
  H  223  1  0.42992500  0.55569900  0.82359400  1
  H  226  1  0.04567200  0.31318500  0.86592400  1
  H  227  1  0.03474400  0.24693900  0.89863400  1
  H  228  1  0.13277000  0.19876600  0.87413800  1
  H  236  1  0.50050000  0.43104700  0.42787200  1
  H  239  1  0.23970500  0.80404500  0.37053000  1
  H  240  1  0.31422800  0.88271600  0.34584500  1
  H  241  1  0.36741200  0.86771900  0.37991600  1
  H  249  1  0.56930000  0.55764500  0.16636400  1
  H  252  1  0.96669900  0.35493800  0.12020900  1
  H  253  1  0.97192500  0.26599900  0.09096200  1
  H  254  1  0.88987700  0.22889400  0.11993300  1
  H  262  1  0.43592100  0.51315300  0.68858200  1
  H  265  1  0.68275300  0.88156100  0.63855100  1
  H  266  1  0.75296700  0.87785600  0.60622500  1
  H  267  1  0.79738500  0.79080500  0.63355500  1
  N  166  1  0.03591200  0.11948300  0.75771800  1
  N  169  1  0.96649200  0.91473500  0.77043400  1
  N  179  1  0.12945500  0.11409700  0.21773700  1
  N  182  1  0.99104500  0.99269200  0.24941000  1
  N  192  1  0.08560900  0.87484400  0.99597400  1
  N  195  1  0.89786800  0.99515600  0.99911200  1
  N  205  1  0.09418800  0.02901100  0.51755700  1
  N  208  1  0.93939200  0.11188500  0.48366700  1
  N  218  1  0.38325800  0.40692300  0.83946600  1
  N  221  1  0.25268900  0.51413300  0.87509200  1
  N  231  1  0.37411000  0.51754000  0.41075000  1
  N  234  1  0.51957500  0.61440400  0.37708800  1
  N  244  1  0.61872700  0.41042400  0.15024300  1
  N  247  1  0.74438200  0.52100000  0.11419500  1
  N  257  1  0.58602200  0.55235000  0.67234700  1
  N  260  1  0.48221800  0.67377500  0.63410900  1
  O  177  1  0.11572800  0.79917600  0.72615900  1
  O  190  1  0.96975900  0.77961300  0.23030100  1
  O  203  1  0.91510300  0.16442900  0.03889500  1
  O  216  1  0.75631100  0.19555500  0.51123400  1
  O  229  1  0.15896000  0.39147700  0.91610700  1
  O  242  1  0.43591700  0.72850800  0.33347400  1
  O  255  1  0.83679500  0.39947700  0.07275000  1
  O  268  1  0.60920500  0.74755400  0.59120100  1
  Si  7  1  0.60973900  0.94952100  0.87880000  1
  Si  48  1  0.97439300  0.28800000  0.37139200  1
  Si  89  1  0.38863300  0.95754500  0.11215900  1
  Si  130  1  0.04782200  0.31725700  0.63843600  1
