# generated using pymatgen
data_H24C41(N4O)2
_symmetry_space_group_name_H-M   'P 1'
_cell_length_a   32.86640000
_cell_length_b   35.47385000
_cell_length_c   35.47380000
_cell_angle_alpha   60.00013988
_cell_angle_beta   89.99740000
_cell_angle_gamma   90.00000001
_symmetry_Int_Tables_number   1
_chemical_formula_structural   H24C41(N4O)2
_chemical_formula_sum   'H144 C246 N48 O12'
_cell_volume   35817.84215188
_cell_formula_units_Z   6
loop_
 _symmetry_equiv_pos_site_id
 _symmetry_equiv_pos_as_xyz
  1  'x, y, z'
loop_
 _atom_site_type_symbol
 _atom_site_label
 _atom_site_symmetry_multiplicity
 _atom_site_fract_x
 _atom_site_fract_y
 _atom_site_fract_z
 _atom_site_occupancy
  H  25  1  0.76265600  0.17560000  0.53659600  1
  H  26  1  0.77471500  0.20917600  0.46114000  1
  H  27  1  0.77619800  0.20985700  0.32311800  1
  H  28  1  0.76522000  0.17682100  0.28045000  1
  H  29  1  0.73077800  0.06032400  0.39242200  1
  H  30  1  0.72981500  0.05936700  0.53956300  1
  H  31  1  0.82591100  0.10598500  0.44323200  1
  H  32  1  0.87843200  0.98133300  0.50141400  1
  H  33  1  0.81296600  0.94958100  0.51893100  1
  H  34  1  0.66599900  0.11450600  0.43913900  1
  H  35  1  0.66517800  0.95729000  0.51166100  1
  H  36  1  0.60314200  0.99542700  0.48966000  1
  H  39  1  0.74810900  0.20788700  0.39275900  1
  H  40  1  0.79903700  0.18875800  0.40259500  1
  H  42  1  0.73989000  0.96550000  0.48672600  1
  H  43  1  0.73899500  0.96470900  0.53713300  1
  H  47  1  0.72807600  0.06282000  0.60510700  1
  H  48  1  0.73203100  0.06436000  0.32287600  1
  H  49  1  0.59281500  0.11402500  0.43269600  1
  H  51  1  0.89792500  0.09901500  0.44087800  1
  H  76  1  0.76271100  0.53654200  0.28028900  1
  H  77  1  0.77473400  0.46106700  0.32214200  1
  H  78  1  0.77613100  0.32300000  0.45945800  1
  H  79  1  0.76518500  0.28032600  0.53516300  1
  H  80  1  0.73091800  0.39231200  0.53974600  1
  H  81  1  0.72991900  0.53945800  0.39358800  1
  H  82  1  0.82598800  0.44309700  0.44325000  1
  H  83  1  0.87856700  0.50111100  0.50985500  1
  H  84  1  0.81312000  0.51869900  0.52405500  1
  H  85  1  0.66607800  0.43904000  0.43886900  1
  H  86  1  0.66532400  0.51160200  0.52352800  1
  H  87  1  0.60326900  0.48966500  0.50736000  1
  H  90  1  0.74809200  0.39267700  0.39180900  1
  H  91  1  0.79903700  0.40247600  0.40108700  1
  H  93  1  0.74002000  0.48658600  0.54028900  1
  H  94  1  0.73915900  0.53699400  0.49067600  1
  H  98  1  0.72822500  0.60502500  0.32459800  1
  H  99  1  0.73217300  0.32278400  0.60524400  1
  H  100  1  0.59288200  0.43263500  0.44579800  1
  H  102  1  0.89798600  0.44058600  0.45268900  1
  H  127  1  0.76268100  0.28018900  0.17564800  1
  H  128  1  0.77473800  0.32205300  0.20925200  1
  H  129  1  0.77616800  0.45937800  0.20998300  1
  H  130  1  0.76517500  0.53507800  0.17696600  1
  H  131  1  0.73076500  0.53962700  0.06045000  1
  H  132  1  0.72979400  0.39346400  0.05946400  1
  H  133  1  0.82590400  0.44316600  0.10609300  1
  H  134  1  0.87843500  0.50962900  0.98143900  1
  H  135  1  0.81297100  0.52386800  0.94968800  1
  H  136  1  0.66599300  0.43873800  0.11461500  1
  H  137  1  0.66517800  0.52345400  0.95739800  1
  H  138  1  0.60314200  0.50731400  0.99553700  1
  H  141  1  0.74811200  0.39171100  0.20799800  1
  H  142  1  0.79903700  0.40101200  0.18885700  1
  H  144  1  0.73989900  0.54017800  0.96561300  1
  H  145  1  0.73899300  0.49057000  0.96480900  1
  H  149  1  0.72812200  0.32447000  0.06288900  1
  H  150  1  0.73197600  0.60512300  0.06450200  1
  H  151  1  0.59280900  0.44568500  0.11413400  1
  H  153  1  0.89792100  0.45247400  0.09912300  1
  H  178  1  0.26271500  0.81928100  0.45841100  1
  H  179  1  0.27474800  0.78566600  0.53388400  1
  H  180  1  0.27611100  0.78491300  0.67195400  1
  H  181  1  0.26517000  0.81794700  0.71462400  1
  H  182  1  0.23093400  0.93452700  0.60262600  1
  H  183  1  0.22992400  0.93549800  0.45549100  1
  H  184  1  0.32600100  0.88880600  0.55185100  1
  H  185  1  0.37858700  0.01342500  0.49383200  1
  H  186  1  0.31314000  0.04521500  0.47623600  1
  H  187  1  0.16608700  0.88037000  0.55592000  1
  H  188  1  0.16534500  0.03759400  0.48330600  1
  H  189  1  0.10329000  0.99949500  0.50525500  1
  H  192  1  0.24809500  0.78694800  0.60226700  1
  H  193  1  0.29904300  0.80602100  0.59248000  1
  H  195  1  0.24003800  0.02934500  0.50833300  1
  H  196  1  0.23918000  0.03012900  0.45793000  1
  H  200  1  0.22822000  0.93207100  0.38992700  1
  H  201  1  0.23211200  0.93048600  0.67215800  1
  H  202  1  0.09289100  0.88089900  0.56230000  1
  H  204  1  0.39799600  0.89573100  0.55436100  1
  H  229  1  0.26263800  0.45837400  0.71478200  1
  H  230  1  0.27469000  0.53383300  0.67289400  1
  H  231  1  0.27617200  0.67184200  0.53554600  1
  H  232  1  0.26518500  0.71450600  0.45984500  1
  H  233  1  0.23075200  0.60252400  0.45533300  1
  H  234  1  0.22980900  0.45539100  0.60152500  1
  H  235  1  0.32589500  0.55172500  0.55179800  1
  H  236  1  0.37841900  0.49351900  0.48535100  1
  H  237  1  0.31295400  0.47600100  0.47112000  1
  H  238  1  0.16598000  0.55581800  0.55623100  1
  H  239  1  0.16516500  0.48330200  0.47153200  1
  H  240  1  0.10312900  0.50530400  0.48766900  1
  H  243  1  0.24809200  0.60221200  0.60321700  1
  H  244  1  0.29901900  0.59236400  0.59393400  1
  H  246  1  0.23988600  0.50824400  0.45480600  1
  H  247  1  0.23897600  0.45783000  0.50441100  1
  H  251  1  0.22807400  0.38985000  0.67052800  1
  H  252  1  0.23195400  0.67207200  0.38982700  1
  H  253  1  0.09279600  0.56227100  0.54929200  1
  H  255  1  0.39791000  0.55407000  0.54247900  1
  H  280  1  0.26272400  0.71467900  0.81932300  1
  H  281  1  0.27473000  0.67279900  0.78573400  1
  H  282  1  0.27615700  0.53545800  0.78505200  1
  H  283  1  0.26520300  0.45975400  0.81810100  1
  H  284  1  0.23093700  0.45521200  0.93465700  1
  H  285  1  0.22999100  0.60140400  0.93559400  1
  H  286  1  0.32601900  0.55171500  0.88891100  1
  H  287  1  0.37859900  0.48508200  0.01352600  1
  H  288  1  0.31315500  0.47090400  0.04532100  1
  H  289  1  0.16610800  0.55608900  0.88048100  1
  H  290  1  0.16536000  0.47148900  0.03770900  1
  H  291  1  0.10330500  0.48764200  0.99961200  1
  H  294  1  0.24810400  0.60311000  0.78706000  1
  H  295  1  0.29905600  0.59385800  0.80611900  1
  H  297  1  0.24005600  0.45469800  0.02944600  1
  H  298  1  0.23919800  0.50430900  0.03024800  1
  H  302  1  0.22826000  0.67040200  0.93214000  1
  H  303  1  0.23216100  0.38970100  0.93063600  1
  H  304  1  0.09291200  0.54918200  0.88101700  1
  H  306  1  0.39801400  0.54224500  0.89583300  1
  H  313  1  0.00924000  0.05898900  0.44392500  1
  H  316  1  0.99114000  0.88044800  0.57893100  1
  H  325  1  0.00924000  0.44330900  0.49035900  1
  H  328  1  0.99165500  0.58103600  0.53006400  1
  H  337  1  0.00923400  0.48944900  0.05910900  1
  H  340  1  0.99116700  0.53301000  0.88055800  1
  H  349  1  0.50925200  0.93612500  0.55164300  1
  H  352  1  0.49167500  0.11355700  0.41391800  1
  H  361  1  0.50922200  0.55102700  0.50549100  1
  H  364  1  0.49113000  0.41599900  0.46198700  1
  H  373  1  0.50927000  0.50456700  0.93624700  1
  H  376  1  0.49166600  0.46495600  0.11364800  1
  H  385  1  0.68512500  0.18623500  0.24695300  1
  H  388  1  0.77337800  0.21843700  0.09330700  1
  H  397  1  0.68500000  0.24675400  0.55958000  1
  H  400  1  0.77635400  0.09433400  0.67814100  1
  H  409  1  0.68511000  0.55918600  0.18640200  1
  H  412  1  0.77342500  0.68064400  0.21852400  1
  H  421  1  0.18501200  0.80876500  0.74824600  1
  H  424  1  0.27648500  0.77499200  0.90056700  1
  H  433  1  0.18510300  0.74803500  0.43576300  1
  H  436  1  0.27342800  0.90161600  0.31431100  1
  H  445  1  0.18499400  0.43538100  0.80893700  1
  H  448  1  0.27634900  0.31681800  0.77507200  1
  C  1  1  0.70414100  0.05919400  0.46606000  1
  C  2  1  0.70320800  0.01298500  0.48797000  1
  C  3  1  0.77979700  0.00892400  0.49101900  1
  C  4  1  0.78271900  0.05500600  0.46860100  1
  C  5  1  0.82286700  0.07289100  0.45954900  1
  C  6  1  0.85892000  0.04714100  0.47121200  1
  C  7  1  0.85401200  0.00160900  0.49314000  1
  C  8  1  0.81520000  0.98282500  0.50325300  1
  C  9  1  0.66582300  0.99057500  0.49678300  1
  C  10  1  0.62894600  0.01321400  0.48425800  1
  C  11  1  0.62780200  0.05896700  0.46389500  1
  C  12  1  0.66588000  0.08119700  0.45489600  1
  C  13  1  0.74653400  0.11032200  0.47725100  1
  C  14  1  0.75870700  0.15469900  0.45461000  1
  C  15  1  0.75925400  0.15513500  0.38356800  1
  C  16  1  0.74696100  0.11080700  0.40475600  1
  C  17  1  0.76587200  0.17839900  0.33818500  1
  C  18  1  0.75871000  0.15900200  0.31284100  1
  C  19  1  0.74341900  0.11620100  0.33174000  1
  C  20  1  0.73954600  0.09226000  0.37785100  1
  C  21  1  0.73856200  0.09133500  0.52263500  1
  C  22  1  0.74176300  0.11490500  0.54526100  1
  C  23  1  0.75676000  0.15787600  0.52181000  1
  C  24  1  0.76456500  0.17764100  0.47716300  1
  C  37  1  0.74467100  0.08373500  0.45429400  1
  C  38  1  0.76711500  0.17861800  0.40739800  1
  C  41  1  0.74037600  0.98595600  0.50177300  1
  C  44  1  0.73430300  0.09659200  0.30695200  1
  C  45  1  0.59090700  0.08188800  0.45109300  1
  C  46  1  0.73185500  0.09488600  0.58952600  1
  C  50  1  0.89737600  0.06681600  0.45936600  1
  C  52  1  0.70424400  0.46595400  0.46725100  1
  C  53  1  0.70333300  0.48785800  0.49155500  1
  C  54  1  0.77992400  0.49085800  0.49257700  1
  C  55  1  0.78282400  0.46846600  0.46888400  1
  C  56  1  0.82296300  0.45940200  0.46003900  1
  C  57  1  0.85902800  0.47100100  0.47416900  1
  C  58  1  0.85414300  0.49291100  0.49779500  1
  C  59  1  0.81534000  0.50302600  0.50648400  1
  C  60  1  0.66595600  0.49671400  0.50512700  1
  C  61  1  0.62906800  0.48422000  0.49500300  1
  C  62  1  0.62790500  0.46384600  0.46962300  1
  C  63  1  0.66597200  0.45480500  0.45641600  1
  C  64  1  0.74661100  0.47715000  0.40491700  1
  C  65  1  0.75874300  0.45451400  0.38316300  1
  C  66  1  0.75927800  0.38345900  0.45375700  1
  C  67  1  0.74703000  0.40464600  0.47691200  1
  C  68  1  0.76585100  0.33807100  0.47586200  1
  C  69  1  0.75870800  0.31272000  0.52060800  1
  C  70  1  0.74349300  0.33162800  0.54453500  1
  C  71  1  0.73965000  0.37774300  0.52237200  1
  C  72  1  0.73864000  0.52253500  0.37853700  1
  C  73  1  0.74182500  0.54517100  0.33234000  1
  C  74  1  0.75681300  0.52173500  0.31280000  1
  C  75  1  0.76460300  0.47708200  0.33766600  1
  C  88  1  0.74476100  0.45418200  0.45446100  1
  C  89  1  0.76712300  0.40730000  0.40643900  1
  C  92  1  0.74051300  0.50163400  0.50478700  1
  C  95  1  0.73442300  0.30684700  0.58894600  1
  C  96  1  0.59099800  0.45104300  0.45952600  1
  C  97  1  0.73192600  0.58943300  0.30811300  1
  C  101  1  0.89747200  0.45913100  0.46633400  1
  C  103  1  0.70413700  0.46713300  0.05930200  1
  C  104  1  0.70320800  0.49144800  0.01309500  1
  C  105  1  0.77979700  0.49244300  0.00903100  1
  C  106  1  0.78271600  0.46877900  0.05511400  1
  C  107  1  0.82286200  0.45994200  0.07300000  1
  C  108  1  0.85891700  0.47402100  0.04725200  1
  C  109  1  0.85401400  0.49762100  0.00171700  1
  C  110  1  0.81520200  0.50633000  0.98293400  1
  C  111  1  0.66582600  0.50505300  0.99068400  1
  C  112  1  0.62894300  0.49490000  0.01332200  1
  C  113  1  0.62779900  0.46952000  0.05907700  1
  C  114  1  0.66587400  0.45628600  0.08130500  1
  C  115  1  0.74652700  0.40480900  0.11042300  1
  C  116  1  0.75870100  0.38306200  0.15479800  1
  C  117  1  0.75924900  0.45366100  0.15525100  1
  C  118  1  0.74695200  0.47680800  0.11092400  1
  C  119  1  0.76584900  0.47577300  0.17852400  1
  C  120  1  0.75867100  0.52051100  0.15914200  1
  C  121  1  0.74341200  0.54442200  0.11633000  1
  C  122  1  0.73953700  0.52226200  0.09238100  1
  C  123  1  0.73854700  0.37842300  0.09142600  1
  C  124  1  0.74175000  0.33222700  0.11498800  1
  C  125  1  0.75677000  0.31269700  0.15794900  1
  C  126  1  0.76457600  0.33756900  0.17772500  1
  C  139  1  0.74466500  0.45435100  0.08384500  1
  C  140  1  0.76711300  0.40634900  0.17872200  1
  C  143  1  0.74037800  0.50467400  0.98606400  1
  C  146  1  0.73426000  0.58881100  0.09673500  1
  C  147  1  0.59090100  0.45939900  0.08200000  1
  C  148  1  0.73184500  0.30799000  0.09496200  1
  C  152  1  0.89737300  0.46618400  0.06692700  1
  C  154  1  0.20425700  0.93566500  0.52899300  1
  C  155  1  0.20335000  0.98187500  0.50706900  1
  C  156  1  0.27994200  0.98589500  0.50407800  1
  C  157  1  0.28283800  0.93981100  0.52647100  1
  C  158  1  0.32297700  0.92190100  0.53553500  1
  C  159  1  0.35904400  0.94763000  0.52393100  1
  C  160  1  0.35416100  0.99316400  0.50204200  1
  C  161  1  0.31535800  0.01197100  0.49191000  1
  C  162  1  0.16597700  0.00430800  0.49820800  1
  C  163  1  0.12908600  0.98168900  0.51071100  1
  C  164  1  0.12792000  0.93593300  0.53111700  1
  C  165  1  0.16598700  0.91368100  0.54015000  1
  C  166  1  0.24661600  0.88452300  0.51779900  1
  C  167  1  0.25876200  0.84013800  0.54043100  1
  C  168  1  0.25927600  0.83967500  0.61149000  1
  C  169  1  0.24704800  0.88402300  0.59030000  1
  C  170  1  0.26584200  0.81639200  0.65687900  1
  C  171  1  0.25870100  0.83579000  0.68222700  1
  C  172  1  0.24351000  0.87863200  0.66331500  1
  C  173  1  0.23965800  0.90258000  0.61720100  1
  C  174  1  0.23865700  0.90352700  0.47241200  1
  C  175  1  0.24183600  0.87996100  0.44978100  1
  C  176  1  0.25682100  0.83698700  0.47321500  1
  C  177  1  0.26461600  0.81720500  0.51786700  1
  C  190  1  0.24477500  0.91110400  0.54076400  1
  C  191  1  0.26712900  0.81619900  0.58765100  1
  C  194  1  0.24053100  0.00888300  0.49329300  1
  C  197  1  0.23440300  0.89825500  0.68809600  1
  C  198  1  0.09101000  0.91303500  0.54389900  1
  C  199  1  0.23193200  0.89999600  0.40551600  1
  C  203  1  0.39748500  0.92792300  0.53582400  1
  C  205  1  0.20412600  0.52889000  0.52784500  1
  C  206  1  0.20319500  0.50699000  0.50353500  1
  C  207  1  0.27978400  0.50392300  0.50254000  1
  C  208  1  0.28270500  0.52634700  0.52619900  1
  C  209  1  0.32285200  0.53540400  0.53502700  1
  C  210  1  0.35890400  0.52374500  0.52093700  1
  C  211  1  0.35399900  0.50177600  0.49736900  1
  C  212  1  0.31518800  0.49170400  0.48866200  1
  C  213  1  0.16581000  0.49819400  0.48992700  1
  C  214  1  0.12893000  0.51067300  0.50008200  1
  C  215  1  0.12778600  0.53104900  0.52546100  1
  C  216  1  0.16586200  0.54005700  0.53868100  1
  C  217  1  0.24651600  0.51770700  0.59016100  1
  C  218  1  0.25868000  0.54035300  0.61189300  1
  C  219  1  0.25924300  0.61138800  0.54128000  1
  C  220  1  0.24694500  0.59019700  0.51814700  1
  C  221  1  0.26585100  0.65677400  0.51915600  1
  C  222  1  0.25867400  0.68211700  0.47441900  1
  C  223  1  0.24340600  0.66320900  0.45051900  1
  C  224  1  0.23953000  0.61709700  0.47269300  1
  C  225  1  0.23854400  0.47232400  0.61656300  1
  C  226  1  0.24174800  0.44970200  0.66275800  1
  C  227  1  0.25674200  0.47315800  0.68227300  1
  C  228  1  0.26454300  0.51780500  0.65738700  1
  C  241  1  0.24465400  0.54065800  0.54061900  1
  C  242  1  0.26709600  0.58756500  0.58859400  1
  C  245  1  0.24036300  0.49319000  0.49030800  1
  C  248  1  0.23425400  0.68799800  0.40613000  1
  C  249  1  0.09088800  0.54386400  0.53556600  1
  C  250  1  0.23185000  0.40543600  0.68700900  1
  C  254  1  0.39736300  0.53556500  0.52878700  1
  C  256  1  0.20427800  0.52772500  0.93577600  1
  C  257  1  0.20336800  0.50344200  0.98198700  1
  C  258  1  0.27996000  0.50241600  0.98600100  1
  C  259  1  0.28285700  0.52610000  0.93991700  1
  C  260  1  0.32299500  0.53493200  0.92200500  1
  C  261  1  0.35906200  0.52081200  0.94773100  1
  C  262  1  0.35417600  0.49718000  0.99326700  1
  C  263  1  0.31537600  0.48850800  0.01207700  1
  C  264  1  0.16599300  0.48987100  0.00442200  1
  C  265  1  0.12910400  0.49998900  0.98180500  1
  C  266  1  0.12793900  0.52533700  0.93604900  1
  C  267  1  0.16600500  0.53855000  0.91379500  1
  C  268  1  0.24663700  0.59005100  0.88461900  1
  C  269  1  0.25876200  0.61179200  0.84022800  1
  C  270  1  0.25931600  0.54117600  0.83980500  1
  C  271  1  0.24706600  0.51803600  0.88414600  1
  C  272  1  0.26588200  0.51906200  0.81652600  1
  C  273  1  0.25873500  0.47431700  0.83593700  1
  C  274  1  0.24353100  0.45040200  0.87877400  1
  C  275  1  0.23967600  0.47257500  0.90271300  1
  C  276  1  0.23869300  0.61644600  0.90361500  1
  C  277  1  0.24187900  0.66264600  0.88003600  1
  C  278  1  0.25682400  0.68217100  0.83704500  1
  C  279  1  0.26461000  0.65728800  0.81727700  1
  C  292  1  0.24479400  0.54050500  0.91121400  1
  C  293  1  0.26714500  0.58849900  0.81630400  1
  C  296  1  0.24054900  0.49020100  0.00899500  1
  C  299  1  0.23441800  0.40599900  0.89840200  1
  C  300  1  0.09103100  0.53544900  0.91315300  1
  C  301  1  0.23200200  0.68688700  0.90006900  1
  C  305  1  0.39750300  0.52859900  0.92802700  1
  C  307  1  0.02396000  0.95635300  0.51989100  1
  C  309  1  0.00160300  0.02865100  0.46857900  1
  C  310  1  0.96141300  0.01869100  0.48432200  1
  C  312  1  0.98332300  0.94559900  0.53561600  1
  C  314  1  0.97183400  0.90507200  0.56938800  1
  C  319  1  0.02388700  0.51989500  0.51618000  1
  C  321  1  0.00159400  0.46818400  0.49569800  1
  C  322  1  0.96145300  0.48411200  0.48950600  1
  C  324  1  0.98328100  0.53578300  0.51084900  1
  C  326  1  0.97172700  0.56995500  0.51697800  1
  C  331  1  0.02397200  0.51613500  0.95646900  1
  C  333  1  0.00160300  0.49513900  0.02877000  1
  C  334  1  0.96141600  0.48935900  0.01880300  1
  C  336  1  0.98333900  0.51116900  0.94571000  1
  C  338  1  0.97185800  0.51792600  0.90518100  1
  C  343  1  0.52390600  0.03853200  0.47505700  1
  C  345  1  0.50160900  0.96633800  0.52676900  1
  C  346  1  0.46146800  0.97607500  0.51083800  1
  C  348  1  0.48329900  0.04909000  0.45916700  1
  C  350  1  0.47174600  0.08939100  0.42499800  1
  C  355  1  0.52394500  0.47505400  0.47883100  1
  C  357  1  0.50158500  0.52637300  0.49981000  1
  C  358  1  0.46139800  0.51062300  0.50560400  1
  C  360  1  0.48331100  0.45932400  0.48381200  1
  C  362  1  0.47182500  0.42554600  0.47706600  1
  C  367  1  0.52390600  0.47879100  0.03864300  1
  C  369  1  0.50162400  0.49924500  0.96645200  1
  C  370  1  0.46148300  0.50545400  0.97617800  1
  C  372  1  0.48329900  0.48413700  0.04918900  1
  C  374  1  0.47174000  0.47802400  0.08948300  1
  C  379  1  0.72809900  0.22993900  0.14963800  1
  C  381  1  0.70342400  0.18798400  0.22285500  1
  C  382  1  0.72779800  0.15242000  0.22963300  1
  C  384  1  0.75097400  0.19348000  0.15536000  1
  C  386  1  0.77554600  0.19363700  0.12350800  1
  C  391  1  0.72827400  0.14957800  0.61284900  1
  C  393  1  0.70342400  0.22270900  0.58179900  1
  C  394  1  0.72794500  0.22953600  0.61045500  1
  C  396  1  0.75127100  0.15533700  0.64349400  1
  C  398  1  0.77616500  0.12370100  0.67498400  1
  C  403  1  0.72813000  0.61280800  0.23006700  1
  C  405  1  0.70341800  0.58153900  0.18813400  1
  C  406  1  0.72778500  0.61031100  0.15255900  1
  C  408  1  0.75099500  0.64353900  0.19359200  1
  C  410  1  0.77557700  0.67523700  0.19372600  1
  C  415  1  0.22836600  0.76489900  0.84537800  1
  C  417  1  0.20345300  0.80695500  0.77227100  1
  C  418  1  0.22796200  0.84245600  0.76541500  1
  C  420  1  0.25135000  0.80132200  0.83959100  1
  C  422  1  0.27626600  0.80120000  0.87119900  1
  C  427  1  0.22812900  0.84532100  0.38214600  1
  C  429  1  0.20341100  0.77212000  0.41341100  1
  C  430  1  0.22777300  0.76532000  0.38463400  1
  C  432  1  0.25099100  0.83957900  0.35141400  1
  C  434  1  0.27557600  0.87141300  0.31971500  1
  C  439  1  0.22827200  0.38211000  0.76502500  1
  C  441  1  0.20341700  0.41315900  0.80711100  1
  C  442  1  0.22793100  0.38449200  0.84259700  1
  C  444  1  0.25125900  0.35146100  0.80143200  1
  C  446  1  0.27615100  0.31996800  0.80128700  1
  N  308  1  0.03079400  0.99746200  0.48662800  1
  N  311  1  0.95446000  0.97756800  0.51736300  1
  N  317  1  0.05399100  0.92708000  0.53636500  1
  N  318  1  0.93318400  0.04968500  0.46766700  1
  N  320  1  0.03073000  0.48633800  0.50878600  1
  N  323  1  0.95449100  0.51744400  0.49714300  1
  N  329  1  0.05385100  0.53639200  0.52903700  1
  N  330  1  0.93330700  0.46738600  0.47515200  1
  N  332  1  0.03080000  0.50828100  0.99758100  1
  N  335  1  0.95447000  0.49745100  0.97767500  1
  N  341  1  0.05401200  0.52893500  0.92720000  1
  N  342  1  0.93318200  0.47502000  0.04979200  1
  N  344  1  0.53074500  0.99758300  0.50861500  1
  N  347  1  0.45450900  0.01704300  0.47750900  1
  N  353  1  0.55386900  0.06789000  0.45856400  1
  N  354  1  0.43332100  0.94499400  0.52756900  1
  N  356  1  0.53077900  0.50832100  0.48666900  1
  N  359  1  0.45444900  0.47757800  0.49752800  1
  N  365  1  0.55397600  0.45857700  0.46603500  1
  N  366  1  0.43317100  0.52727200  0.51995100  1
  N  368  1  0.53075400  0.48616000  0.99770100  1
  N  371  1  0.45451500  0.49783400  0.01714000  1
  N  377  1  0.55386300  0.46592700  0.06800600  1
  N  378  1  0.43333900  0.51979200  0.94509500  1
  N  380  1  0.70460800  0.22516000  0.18343400  1
  N  383  1  0.74970200  0.15682100  0.19527300  1
  N  389  1  0.72723400  0.26662100  0.11143400  1
  N  390  1  0.72879300  0.11382700  0.26561000  1
  N  392  1  0.70461400  0.18330300  0.58401300  1
  N  395  1  0.75000800  0.19523400  0.64027000  1
  N  401  1  0.72730500  0.11134700  0.61443900  1
  N  402  1  0.72893800  0.26550400  0.61308200  1
  N  404  1  0.70462500  0.58379100  0.22530600  1
  N  407  1  0.74970100  0.64027500  0.15693900  1
  N  413  1  0.72729500  0.61433400  0.26674800  1
  N  414  1  0.72875600  0.61292200  0.11396900  1
  N  416  1  0.20468000  0.76976700  0.81167700  1
  N  419  1  0.25005100  0.83799200  0.79968900  1
  N  425  1  0.22743800  0.72826000  0.88361000  1
  N  426  1  0.22892000  0.88104700  0.72944000  1
  N  428  1  0.20462200  0.81154200  0.41116400  1
  N  431  1  0.24969200  0.79966500  0.35467100  1
  N  437  1  0.22729500  0.88352700  0.38062200  1
  N  438  1  0.22874400  0.72934100  0.38202200  1
  N  440  1  0.20461300  0.41094900  0.76991700  1
  N  443  1  0.24999300  0.35468000  0.83811000  1
  N  449  1  0.22730500  0.38052400  0.72838500  1
  N  450  1  0.22891700  0.38186600  0.88119300  1
  O  315  1  0.93597400  0.89447800  0.57411700  1
  O  327  1  0.93640600  0.57125900  0.52714400  1
  O  339  1  0.93599900  0.52378700  0.89458400  1
  O  351  1  0.43642700  0.10086100  0.42369900  1
  O  363  1  0.43596500  0.42081200  0.47121000  1
  O  375  1  0.43642100  0.46784800  0.10095400  1
  O  387  1  0.78525700  0.15915300  0.12607200  1
  O  399  1  0.78035800  0.12362700  0.70928000  1
  O  411  1  0.78527600  0.70715200  0.15923600  1
  O  423  1  0.28044700  0.83542700  0.87126700  1
  O  435  1  0.28527300  0.86884000  0.28779700  1
  O  447  1  0.28033400  0.28566700  0.83550500  1
