# generated using pymatgen
data_GdH13C17O8
_symmetry_space_group_name_H-M   'P 1'
_cell_length_a   8.24559000
_cell_length_b   8.68728000
_cell_length_c   28.41281000
_cell_angle_alpha   90.07888000
_cell_angle_beta   90.00000000
_cell_angle_gamma   90.00000000
_symmetry_Int_Tables_number   1
_chemical_formula_structural   GdH13C17O8
_chemical_formula_sum   'Gd4 H52 C68 O32'
_cell_volume   2035.25734825
_cell_formula_units_Z   4
loop_
 _symmetry_equiv_pos_site_id
 _symmetry_equiv_pos_as_xyz
  1  'x, y, z'
loop_
 _atom_site_type_symbol
 _atom_site_label
 _atom_site_symmetry_multiplicity
 _atom_site_fract_x
 _atom_site_fract_y
 _atom_site_fract_z
 _atom_site_occupancy
  Gd  Gd1  1  0.10707000  0.57746000  0.00614000  1.0
  Gd  Gd2  1  0.60706000  0.42256000  0.99386000  1.0
  Gd  Gd3  1  0.10758000  0.92181000  0.50594000  1.0
  Gd  Gd4  1  0.60758000  0.07820000  0.49406000  1.0
  H  H1  1  0.14568000  0.49942000  0.84564000  1.0
  H  H2  1  0.13277000  0.43727000  0.76005000  1.0
  H  H3  1  0.67030000  0.30575000  0.86394000  1.0
  H  H4  1  0.11416000  0.17387000  0.71463000  1.0
  H  H5  1  0.12332000  0.12086000  0.62831000  1.0
  H  H6  1  0.67906000  0.37110000  0.61019000  1.0
  H  H7  1  0.39964000  0.15676000  0.77678000  1.0
  H  H8  1  0.44540000  0.32055000  0.81307000  1.0
  H  H9  1  0.51125000  0.13153000  0.83011000  1.0
  H  H10  1  0.44401000  0.56803000  0.69757000  1.0
  H  H11  1  0.45880000  0.40577000  0.65870000  1.0
  H  H12  1  0.56430000  0.58236000  0.64565000  1.0
  H  H13  1  0.71187000  0.75346000  0.06522000  1.0
  H  H14  1  0.64569000  0.50059000  0.15435000  1.0
  H  H15  1  0.63278000  0.56275000  0.23994000  1.0
  H  H16  1  0.17030000  0.69427000  0.13605000  1.0
  H  H17  1  0.61417000  0.82614000  0.28537000  1.0
  H  H18  1  0.62333000  0.87915000  0.37169000  1.0
  H  H19  1  0.17906000  0.62891000  0.38981000  1.0
  H  H20  1  0.89965000  0.84325000  0.22322000  1.0
  H  H21  1  0.94540000  0.67946000  0.18693000  1.0
  H  H22  1  0.01125000  0.86849000  0.16988000  1.0
  H  H23  1  0.94401000  0.43199000  0.30243000  1.0
  H  H24  1  0.95880000  0.59425000  0.34130000  1.0
  H  H25  1  0.06430000  0.41766000  0.35435000  1.0
  H  H26  1  0.21186000  0.24656000  0.93478000  1.0
  H  H27  1  0.14593000  0.99641000  0.34541000  1.0
  H  H28  1  0.13273000  0.06022000  0.26001000  1.0
  H  H29  1  0.67341000  0.19568000  0.36464000  1.0
  H  H30  1  0.11586000  0.32640000  0.21468000  1.0
  H  H31  1  0.12343000  0.37782000  0.12826000  1.0
  H  H32  1  0.67732000  0.13084000  0.11109000  1.0
  H  H33  1  0.40232000  0.34585000  0.27693000  1.0
  H  H34  1  0.44738000  0.17984000  0.31205000  1.0
  H  H35  1  0.50800000  0.36834000  0.33150000  1.0
  H  H36  1  0.44417000  0.93222000  0.19726000  1.0
  H  H37  1  0.46096000  0.09588000  0.15894000  1.0
  H  H38  1  0.56528000  0.91875000  0.14549000  1.0
  H  H39  1  0.71344000  0.74201000  0.56415000  1.0
  H  H40  1  0.64593000  0.00360000  0.65458000  1.0
  H  H41  1  0.63273000  0.93979000  0.73998000  1.0
  H  H42  1  0.17341000  0.80434000  0.63536000  1.0
  H  H43  1  0.61586000  0.67362000  0.78532000  1.0
  H  H44  1  0.62343000  0.62220000  0.87173000  1.0
  H  H45  1  0.17731000  0.86917000  0.88891000  1.0
  H  H46  1  0.90232000  0.65417000  0.72307000  1.0
  H  H47  1  0.94738000  0.82017000  0.68795000  1.0
  H  H48  1  0.00800000  0.63167000  0.66850000  1.0
  H  H49  1  0.94416000  0.06780000  0.80274000  1.0
  H  H50  1  0.96097000  0.90413000  0.84105000  1.0
  H  H51  1  0.06528000  0.08126000  0.85451000  1.0
  H  H52  1  0.21344000  0.25801000  0.43585000  1.0
  C  C1  1  0.91256000  0.43512000  0.91137000  1.0
  C  C2  1  0.90817000  0.40506000  0.85970000  1.0
  C  C3  1  0.04002000  0.44241000  0.83074000  1.0
  C  C4  1  0.03182000  0.40758000  0.78291000  1.0
  C  C5  1  0.89408000  0.33953000  0.76261000  1.0
  C  C6  1  0.76119000  0.30286000  0.79235000  1.0
  C  C7  1  0.76930000  0.33572000  0.84043000  1.0
  C  C8  1  0.89370000  0.30500000  0.71165000  1.0
  C  C9  1  0.02045000  0.21945000  0.69153000  1.0
  C  C10  1  0.02558000  0.18881000  0.64336000  1.0
  C  C11  1  0.90056000  0.24322000  0.61438000  1.0
  C  C12  1  0.77364000  0.33040000  0.63358000  1.0
  C  C13  1  0.77102000  0.36333000  0.68165000  1.0
  C  C14  1  0.89607000  0.20395000  0.56338000  1.0
  C  C15  1  0.48968000  0.20879000  0.80018000  1.0
  C  C16  1  0.52380000  0.50464000  0.67379000  1.0
  C  C17  1  0.82345000  0.71255000  0.04796000  1.0
  C  C18  1  0.41256000  0.56489000  0.08863000  1.0
  C  C19  1  0.40817000  0.59495000  0.14030000  1.0
  C  C20  1  0.54002000  0.55760000  0.16925000  1.0
  C  C21  1  0.53182000  0.59244000  0.21709000  1.0
  C  C22  1  0.39408000  0.66049000  0.23738000  1.0
  C  C23  1  0.26119000  0.69715000  0.20765000  1.0
  C  C24  1  0.26931000  0.66429000  0.15957000  1.0
  C  C25  1  0.39370000  0.69501000  0.28835000  1.0
  C  C26  1  0.52045000  0.78056000  0.30847000  1.0
  C  C27  1  0.52559000  0.81121000  0.35663000  1.0
  C  C28  1  0.40056000  0.75680000  0.38561000  1.0
  C  C29  1  0.27364000  0.66962000  0.36641000  1.0
  C  C30  1  0.27102000  0.63668000  0.31835000  1.0
  C  C31  1  0.39607000  0.79606000  0.43662000  1.0
  C  C32  1  0.98968000  0.79122000  0.19982000  1.0
  C  C33  1  0.02380000  0.49537000  0.32620000  1.0
  C  C34  1  0.32344000  0.28747000  0.95204000  1.0
  C  C35  1  0.91348000  0.06116000  0.41132000  1.0
  C  C36  1  0.90946000  0.09296000  0.35983000  1.0
  C  C37  1  0.04094000  0.05511000  0.33076000  1.0
  C  C38  1  0.03255000  0.09101000  0.28305000  1.0
  C  C39  1  0.89548000  0.16122000  0.26307000  1.0
  C  C40  1  0.76361000  0.19976000  0.29307000  1.0
  C  C41  1  0.77171000  0.16491000  0.34095000  1.0
  C  C42  1  0.89481000  0.19557000  0.21210000  1.0
  C  C43  1  0.02141000  0.28079000  0.19177000  1.0
  C  C44  1  0.02565000  0.31086000  0.14357000  1.0
  C  C45  1  0.89972000  0.25758000  0.11472000  1.0
  C  C46  1  0.77314000  0.17077000  0.13415000  1.0
  C  C47  1  0.77170000  0.13725000  0.18216000  1.0
  C  C48  1  0.89460000  0.29720000  0.06371000  1.0
  C  C49  1  0.49090000  0.29342000  0.30069000  1.0
  C  C50  1  0.52465000  0.99605000  0.17382000  1.0
  C  C51  1  0.82429000  0.78461000  0.54690000  1.0
  C  C52  1  0.41348000  0.93885000  0.58868000  1.0
  C  C53  1  0.40946000  0.90706000  0.64017000  1.0
  C  C54  1  0.54094000  0.94491000  0.66923000  1.0
  C  C55  1  0.53255000  0.90900000  0.71695000  1.0
  C  C56  1  0.39548000  0.83880000  0.73693000  1.0
  C  C57  1  0.26361000  0.80026000  0.70693000  1.0
  C  C58  1  0.27171000  0.83510000  0.65905000  1.0
  C  C59  1  0.39481000  0.80445000  0.78790000  1.0
  C  C60  1  0.52141000  0.71923000  0.80823000  1.0
  C  C61  1  0.52565000  0.68915000  0.85643000  1.0
  C  C62  1  0.39972000  0.74244000  0.88527000  1.0
  C  C63  1  0.27314000  0.82924000  0.86585000  1.0
  C  C64  1  0.27170000  0.86276000  0.81783000  1.0
  C  C65  1  0.39459000  0.70281000  0.93629000  1.0
  C  C66  1  0.99090000  0.70659000  0.69931000  1.0
  C  C67  1  0.02465000  0.00396000  0.82618000  1.0
  C  C68  1  0.32429000  0.21538000  0.45310000  1.0
  O  O1  1  0.03446000  0.50527000  0.92888000  1.0
  O  O2  1  0.79280000  0.38658000  0.93572000  1.0
  O  O3  1  0.01823000  0.13479000  0.54553000  1.0
  O  O4  1  0.76901000  0.23811000  0.53973000  1.0
  O  O5  1  0.63373000  0.22766000  0.77202000  1.0
  O  O6  1  0.65756000  0.45523000  0.70238000  1.0
  O  O7  1  0.80875000  0.61466000  0.01368000  1.0
  O  O8  1  0.96083000  0.75832000  0.06106000  1.0
  O  O9  1  0.53446000  0.49474000  0.07112000  1.0
  O  O10  1  0.29280000  0.61344000  0.06428000  1.0
  O  O11  1  0.51823000  0.86522000  0.45447000  1.0
  O  O12  1  0.26901000  0.76190000  0.46027000  1.0
  O  O13  1  0.13373000  0.77236000  0.22798000  1.0
  O  O14  1  0.15757000  0.54478000  0.29762000  1.0
  O  O15  1  0.30875000  0.38535000  0.98632000  1.0
  O  O16  1  0.46083000  0.24172000  0.93893000  1.0
  O  O17  1  0.03611000  0.99211000  0.42870000  1.0
  O  O18  1  0.79286000  0.10756000  0.43571000  1.0
  O  O19  1  0.01675000  0.36622000  0.04587000  1.0
  O  O20  1  0.76724000  0.26390000  0.04012000  1.0
  O  O21  1  0.63762000  0.27902000  0.27346000  1.0
  O  O22  1  0.65818000  0.04496000  0.20267000  1.0
  O  O23  1  0.80912000  0.88630000  0.51383000  1.0
  O  O24  1  0.96174000  0.73631000  0.55908000  1.0
  O  O25  1  0.53611000  0.00790000  0.57130000  1.0
  O  O26  1  0.29286000  0.89246000  0.56429000  1.0
  O  O27  1  0.51675000  0.63380000  0.95413000  1.0
  O  O28  1  0.26723000  0.73612000  0.95988000  1.0
  O  O29  1  0.13762000  0.72100000  0.72654000  1.0
  O  O30  1  0.15818000  0.95505000  0.79733000  1.0
  O  O31  1  0.30911000  0.11371000  0.48617000  1.0
  O  O32  1  0.46174000  0.26367000  0.44092000  1.0
