# generated using pymatgen
data_Zn2H7C13O8
_symmetry_space_group_name_H-M   'P 1'
_cell_length_a   9.90993000
_cell_length_b   15.33738000
_cell_length_c   18.49668000
_cell_angle_alpha   76.75847000
_cell_angle_beta   89.76109000
_cell_angle_gamma   89.88080000
_symmetry_Int_Tables_number   1
_chemical_formula_structural   Zn2H7C13O8
_chemical_formula_sum   'Zn8 H28 C52 O32'
_cell_volume   2736.58336189
_cell_formula_units_Z   4
loop_
 _symmetry_equiv_pos_site_id
 _symmetry_equiv_pos_as_xyz
  1  'x, y, z'
loop_
 _atom_site_type_symbol
 _atom_site_label
 _atom_site_symmetry_multiplicity
 _atom_site_fract_x
 _atom_site_fract_y
 _atom_site_fract_z
 _atom_site_occupancy
  Zn  Zn1  1  0.45709000  0.20216000  0.96918000  1.0
  Zn  Zn2  1  0.95680000  0.79742000  0.53293000  1.0
  Zn  Zn3  1  0.54355000  0.79755000  0.03095000  1.0
  Zn  Zn4  1  0.04244000  0.20263000  0.46774000  1.0
  Zn  Zn5  1  0.50191000  0.99903000  0.00164000  1.0
  Zn  Zn6  1  0.00202000  0.00108000  0.50002000  1.0
  Zn  Zn7  1  0.49751000  0.50003000  0.00151000  1.0
  Zn  Zn8  1  0.00350000  0.49998000  0.49997000  1.0
  H  H1  1  0.19151000  0.00142000  0.91316000  1.0
  H  H2  1  0.98282000  0.91186000  0.90414000  1.0
  H  H3  1  0.65228000  0.99810000  0.21105000  1.0
  H  H4  1  0.77142000  0.00082000  0.33035000  1.0
  H  H5  1  0.68249000  0.28408000  0.14329000  1.0
  H  H6  1  0.80568000  0.28672000  0.26199000  1.0
  H  H7  1  0.27412000  0.44107000  0.91431000  1.0
  H  H8  1  0.69007000  0.99868000  0.58841000  1.0
  H  H9  1  0.48219000  0.09007000  0.59632000  1.0
  H  H10  1  0.15330000  0.00134000  0.29035000  1.0
  H  H11  1  0.27253000  0.99807000  0.17069000  1.0
  H  H12  1  0.18338000  0.71537000  0.35839000  1.0
  H  H13  1  0.30642000  0.71207000  0.23917000  1.0
  H  H14  1  0.77911000  0.55556000  0.58681000  1.0
  H  H15  1  0.80887000  0.99890000  0.08893000  1.0
  H  H16  1  0.01741000  0.08870000  0.09774000  1.0
  H  H17  1  0.34782000  0.00285000  0.78952000  1.0
  H  H18  1  0.22798000  0.99995000  0.67045000  1.0
  H  H19  1  0.31992000  0.71690000  0.85691000  1.0
  H  H20  1  0.19551000  0.71383000  0.73879000  1.0
  H  H21  1  0.72648000  0.55782000  0.08537000  1.0
  H  H22  1  0.31126000  0.00179000  0.41207000  1.0
  H  H23  1  0.51895000  0.91043000  0.40441000  1.0
  H  H24  1  0.84660000  0.99751000  0.71050000  1.0
  H  H25  1  0.72825000  0.00028000  0.83058000  1.0
  H  H26  1  0.81562000  0.28357000  0.64306000  1.0
  H  H27  1  0.69313000  0.28620000  0.76247000  1.0
  H  H28  1  0.22574000  0.44092000  0.41180000  1.0
  C  C1  1  0.23671000  0.10639000  0.01074000  1.0
  C  C2  1  0.11633000  0.05002000  0.00616000  1.0
  C  C3  1  0.10737000  0.00038000  0.95124000  1.0
  C  C4  1  0.99172000  0.95074000  0.94624000  1.0
  C  C5  1  0.86979000  0.14400000  0.37271000  1.0
  C  C6  1  0.79466000  0.14409000  0.30286000  1.0
  C  C7  1  0.59068000  0.13792000  0.09944000  1.0
  C  C8  1  0.66069000  0.14105000  0.17037000  1.0
  C  C9  1  0.68554000  0.06087000  0.22297000  1.0
  C  C10  1  0.75130000  0.06234000  0.28906000  1.0
  C  C11  1  0.70284000  0.22280000  0.18472000  1.0
  C  C12  1  0.77034000  0.22433000  0.25029000  1.0
  C  C13  1  0.34533000  0.38534000  0.93342000  1.0
  C  C14  1  0.73662000  0.89219000  0.49269000  1.0
  C  C15  1  0.61634000  0.94944000  0.49597000  1.0
  C  C16  1  0.60652000  0.99993000  0.55030000  1.0
  C  C17  1  0.49132000  0.05067000  0.55453000  1.0
  C  C18  1  0.37016000  0.85534000  0.12768000  1.0
  C  C19  1  0.29560000  0.85476000  0.19817000  1.0
  C  C20  1  0.09103000  0.86175000  0.40221000  1.0
  C  C21  1  0.16167000  0.85840000  0.33118000  1.0
  C  C22  1  0.18661000  0.93845000  0.27843000  1.0
  C  C23  1  0.25242000  0.93666000  0.21215000  1.0
  C  C24  1  0.20385000  0.77651000  0.31677000  1.0
  C  C25  1  0.27133000  0.77463000  0.25093000  1.0
  C  C26  1  0.84891000  0.61234000  0.56846000  1.0
  C  C27  1  0.76383000  0.89391000  0.99139000  1.0
  C  C28  1  0.88412000  0.95016000  0.99601000  1.0
  C  C29  1  0.89304000  0.99985000  0.05090000  1.0
  C  C30  1  0.00863000  0.04955000  0.05583000  1.0
  C  C31  1  0.13033000  0.85631000  0.62778000  1.0
  C  C32  1  0.20532000  0.85657000  0.69776000  1.0
  C  C33  1  0.41190000  0.86251000  0.90072000  1.0
  C  C34  1  0.34072000  0.85993000  0.82998000  1.0
  C  C35  1  0.31471000  0.94005000  0.77759000  1.0
  C  C36  1  0.24840000  0.93839000  0.71164000  1.0
  C  C37  1  0.29868000  0.77813000  0.81563000  1.0
  C  C38  1  0.23044000  0.77641000  0.75032000  1.0
  C  C39  1  0.65644000  0.61432000  0.06670000  1.0
  C  C40  1  0.26438000  0.10848000  0.50769000  1.0
  C  C41  1  0.38475000  0.05128000  0.50454000  1.0
  C  C42  1  0.39460000  0.00070000  0.45027000  1.0
  C  C43  1  0.50978000  0.94998000  0.44607000  1.0
  C  C44  1  0.63034000  0.14384000  0.87371000  1.0
  C  C45  1  0.70474000  0.14361000  0.80330000  1.0
  C  C46  1  0.90895000  0.13777000  0.59885000  1.0
  C  C47  1  0.83804000  0.14049000  0.66995000  1.0
  C  C48  1  0.81334000  0.06030000  0.72264000  1.0
  C  C49  1  0.74794000  0.06182000  0.78916000  1.0
  C  C50  1  0.79563000  0.22225000  0.68455000  1.0
  C  C51  1  0.72849000  0.22382000  0.75051000  1.0
  C  C52  1  0.15467000  0.38517000  0.43115000  1.0
  O  O1  1  0.34016000  0.09800000  0.96660000  1.0
  O  O2  1  0.87302000  0.07126000  0.42179000  1.0
  O  O3  1  0.92683000  0.21768000  0.37820000  1.0
  O  O4  1  0.56051000  0.21411000  0.05565000  1.0
  O  O5  1  0.32611000  0.31168000  0.92007000  1.0
  O  O6  1  0.23968000  0.16156000  0.05065000  1.0
  O  O7  1  0.56607000  0.06191000  0.08721000  1.0
  O  O8  1  0.45343000  0.40046000  0.97109000  1.0
  O  O9  1  0.83984000  0.90192000  0.53601000  1.0
  O  O10  1  0.37313000  0.92882000  0.07953000  1.0
  O  O11  1  0.42669000  0.78199000  0.12050000  1.0
  O  O12  1  0.06030000  0.78557000  0.44584000  1.0
  O  O13  1  0.82641000  0.68533000  0.58235000  1.0
  O  O14  1  0.73994000  0.83519000  0.45442000  1.0
  O  O15  1  0.06634000  0.93779000  0.41458000  1.0
  O  O16  1  0.95931000  0.59914000  0.53110000  1.0
  O  O17  1  0.66066000  0.90140000  0.03625000  1.0
  O  O18  1  0.12767000  0.92887000  0.57848000  1.0
  O  O19  1  0.07327000  0.78265000  0.62226000  1.0
  O  O20  1  0.44604000  0.78580000  0.94243000  1.0
  O  O21  1  0.67885000  0.68794000  0.07943000  1.0
  O  O22  1  0.76014000  0.83950000  0.95086000  1.0
  O  O23  1  0.43359000  0.93777000  0.91515000  1.0
  O  O24  1  0.54644000  0.59997000  0.03000000  1.0
  O  O25  1  0.16051000  0.09812000  0.46481000  1.0
  O  O26  1  0.62771000  0.07127000  0.92306000  1.0
  O  O27  1  0.57333000  0.21754000  0.87952000  1.0
  O  O28  1  0.94017000  0.21418000  0.55577000  1.0
  O  O29  1  0.17388000  0.31151000  0.41778000  1.0
  O  O30  1  0.26090000  0.16603000  0.54536000  1.0
  O  O31  1  0.93356000  0.06210000  0.58572000  1.0
  O  O32  1  0.04643000  0.40038000  0.46919000  1.0
