# generated using pymatgen
data_Cd2H11C17(NO4)2
_symmetry_space_group_name_H-M   'P 1'
_cell_length_a   14.39352000
_cell_length_b   17.69043000
_cell_length_c   19.31387000
_cell_angle_alpha   100.59082000
_cell_angle_beta   89.97966000
_cell_angle_gamma   89.98145000
_symmetry_Int_Tables_number   1
_chemical_formula_structural   Cd2H11C17(NO4)2
_chemical_formula_sum   'Cd16 H88 C136 N16 O64'
_cell_volume   4834.06646867
_cell_formula_units_Z   8
loop_
 _symmetry_equiv_pos_site_id
 _symmetry_equiv_pos_as_xyz
  1  'x, y, z'
loop_
 _atom_site_type_symbol
 _atom_site_label
 _atom_site_symmetry_multiplicity
 _atom_site_fract_x
 _atom_site_fract_y
 _atom_site_fract_z
 _atom_site_occupancy
  Cd  Cd1  1  0.20851000  0.16783000  0.43795000  1.0
  Cd  Cd2  1  0.20226000  0.32753000  0.63073000  1.0
  Cd  Cd3  1  0.13004000  0.50585000  0.00941000  1.0
  Cd  Cd4  1  0.28017000  0.39614000  0.82696000  1.0
  Cd  Cd5  1  0.20793000  0.83160000  0.06234000  1.0
  Cd  Cd6  1  0.20358000  0.67298000  0.86695000  1.0
  Cd  Cd7  1  0.13096000  0.49224000  0.49005000  1.0
  Cd  Cd8  1  0.28082000  0.60375000  0.67240000  1.0
  Cd  Cd9  1  0.79149000  0.83217000  0.56205000  1.0
  Cd  Cd10  1  0.79773000  0.67247000  0.36926000  1.0
  Cd  Cd11  1  0.86996000  0.49415000  0.99059000  1.0
  Cd  Cd12  1  0.71982000  0.60386000  0.17304000  1.0
  Cd  Cd13  1  0.79207000  0.16840000  0.93765000  1.0
  Cd  Cd14  1  0.79642000  0.32702000  0.13305000  1.0
  Cd  Cd15  1  0.86904000  0.50776000  0.50994000  1.0
  Cd  Cd16  1  0.71918000  0.39625000  0.32759000  1.0
  H  H1  1  0.03600000  0.06262000  0.60695000  1.0
  H  H2  1  0.96130000  0.05117000  0.72220000  1.0
  H  H3  1  0.94435000  0.29602000  0.77675000  1.0
  H  H4  1  0.90127000  0.36532000  0.60095000  1.0
  H  H5  1  0.95870000  0.28405000  0.55416000  1.0
  H  H6  1  0.94342000  0.39841000  0.73752000  1.0
  H  H7  1  0.01957000  0.44632000  0.68756000  1.0
  H  H8  1  0.35313000  0.34535000  0.09002000  1.0
  H  H9  1  0.49056000  0.25804000  0.07664000  1.0
  H  H10  1  0.56506000  0.33348000  0.88604000  1.0
  H  H11  1  0.47917000  0.55713000  0.91694000  1.0
  H  H12  1  0.40275000  0.52994000  0.97834000  1.0
  H  H13  1  0.56945000  0.43158000  0.84499000  1.0
  H  H14  1  0.48987000  0.48881000  0.80883000  1.0
  H  H15  1  0.10155000  0.29823000  0.88790000  1.0
  H  H16  1  0.08026000  0.17935000  0.93823000  1.0
  H  H17  1  0.37245000  0.13165000  0.89711000  1.0
  H  H18  1  0.37883000  0.24824000  0.84228000  1.0
  H  H19  1  0.11582000  0.11781000  0.03395000  1.0
  H  H20  1  0.12343000  0.00080000  0.08892000  1.0
  H  H21  1  0.32130000  0.89891000  0.94694000  1.0
  H  H22  1  0.32250000  0.01114000  0.88458000  1.0
  H  H23  1  0.03571000  0.93746000  0.89276000  1.0
  H  H24  1  0.96018000  0.94892000  0.77786000  1.0
  H  H25  1  0.94323000  0.70412000  0.72328000  1.0
  H  H26  1  0.90338000  0.63462000  0.90014000  1.0
  H  H27  1  0.96176000  0.71565000  0.94654000  1.0
  H  H28  1  0.94235000  0.60207000  0.76292000  1.0
  H  H29  1  0.01915000  0.55377000  0.81224000  1.0
  H  H30  1  0.35234000  0.65435000  0.40943000  1.0
  H  H31  1  0.48953000  0.74195000  0.42233000  1.0
  H  H32  1  0.56521000  0.66666667  0.61282000  1.0
  H  H33  1  0.47827000  0.44279000  0.58330000  1.0
  H  H34  1  0.40399000  0.47038000  0.52077000  1.0
  H  H35  1  0.56958000  0.56886000  0.65438000  1.0
  H  H36  1  0.49010000  0.51132000  0.69044000  1.0
  H  H37  1  0.10215000  0.70118000  0.61181000  1.0
  H  H38  1  0.08038000  0.82033000  0.56172000  1.0
  H  H39  1  0.37232000  0.86860000  0.60313000  1.0
  H  H40  1  0.37900000  0.75199000  0.65795000  1.0
  H  H41  1  0.11584000  0.88208000  0.46603000  1.0
  H  H42  1  0.12370000  0.99909000  0.41108000  1.0
  H  H43  1  0.32101000  0.10096000  0.55339000  1.0
  H  H44  1  0.32189000  0.98876000  0.61582000  1.0
  H  H45  1  0.96399000  0.93738000  0.39304000  1.0
  H  H46  1  0.03869000  0.94883000  0.27780000  1.0
  H  H47  1  0.05564000  0.70398000  0.22324000  1.0
  H  H48  1  0.09873000  0.63468000  0.39904000  1.0
  H  H49  1  0.04130000  0.71595000  0.44584000  1.0
  H  H50  1  0.05658000  0.60159000  0.26247000  1.0
  H  H51  1  0.98043000  0.55368000  0.31243000  1.0
  H  H52  1  0.64687000  0.65465000  0.90997000  1.0
  H  H53  1  0.50943000  0.74196000  0.92336000  1.0
  H  H54  1  0.43494000  0.66652000  0.11395000  1.0
  H  H55  1  0.52082000  0.44287000  0.08306000  1.0
  H  H56  1  0.59725000  0.47006000  0.02166000  1.0
  H  H57  1  0.43055000  0.56842000  0.15501000  1.0
  H  H58  1  0.51013000  0.51119000  0.19117000  1.0
  H  H59  1  0.89845000  0.70177000  0.11209000  1.0
  H  H60  1  0.91973000  0.82065000  0.06176000  1.0
  H  H61  1  0.62754000  0.86836000  0.10289000  1.0
  H  H62  1  0.62117000  0.75176000  0.15771000  1.0
  H  H63  1  0.88418000  0.88219000  0.96604000  1.0
  H  H64  1  0.87656000  0.99920000  0.91108000  1.0
  H  H65  1  0.67870000  0.10109000  0.05305000  1.0
  H  H66  1  0.67750000  0.98886000  0.11541000  1.0
  H  H67  1  0.96429000  0.06254000  0.10724000  1.0
  H  H68  1  0.03982000  0.05108000  0.22214000  1.0
  H  H69  1  0.05677000  0.29588000  0.27671000  1.0
  H  H70  1  0.09662000  0.36539000  0.09986000  1.0
  H  H71  1  0.03823000  0.28435000  0.05346000  1.0
  H  H72  1  0.05765000  0.39793000  0.23708000  1.0
  H  H73  1  0.98085000  0.44623000  0.18775000  1.0
  H  H74  1  0.64765000  0.34565000  0.59057000  1.0
  H  H75  1  0.51047000  0.25805000  0.57767000  1.0
  H  H76  1  0.43479000  0.33333333  0.38718000  1.0
  H  H77  1  0.52173000  0.55721000  0.41670000  1.0
  H  H78  1  0.59600000  0.52962000  0.47923000  1.0
  H  H79  1  0.43042000  0.43114000  0.34561000  1.0
  H  H80  1  0.50990000  0.48868000  0.30956000  1.0
  H  H81  1  0.89785000  0.29882000  0.38819000  1.0
  H  H82  1  0.91962000  0.17967000  0.43827000  1.0
  H  H83  1  0.62767000  0.13141000  0.39687000  1.0
  H  H84  1  0.62100000  0.24801000  0.34205000  1.0
  H  H85  1  0.88416000  0.11792000  0.53396000  1.0
  H  H86  1  0.87630000  0.00091000  0.58892000  1.0
  H  H87  1  0.67898000  0.89904000  0.44660000  1.0
  H  H88  1  0.67811000  0.01124000  0.38417000  1.0
  C  C1  1  0.07745000  0.18579000  0.55719000  1.0
  C  C2  1  0.03142000  0.18590000  0.62657000  1.0
  C  C3  1  0.01569000  0.11360000  0.64457000  1.0
  C  C4  1  0.97575000  0.10713000  0.70881000  1.0
  C  C5  1  0.95179000  0.17396000  0.75625000  1.0
  C  C6  1  0.90430000  0.16944000  0.82456000  1.0
  C  C7  1  0.96625000  0.24638000  0.73844000  1.0
  C  C8  1  0.00448000  0.25326000  0.67340000  1.0
  C  C9  1  0.97067000  0.33933000  0.58963000  1.0
  C  C10  1  0.02594000  0.38873000  0.54796000  1.0
  C  C11  1  0.01120000  0.39425000  0.71077000  1.0
  C  C12  1  0.08875000  0.39833000  0.76529000  1.0
  C  C13  1  0.29077000  0.43125000  0.00304000  1.0
  C  C14  1  0.37986000  0.38949000  0.99513000  1.0
  C  C15  1  0.39902000  0.34213000  0.04480000  1.0
  C  C16  1  0.47456000  0.29249000  0.03701000  1.0
  C  C17  1  0.53260000  0.28923000  0.97826000  1.0
  C  C18  1  0.61798000  0.23873000  0.97059000  1.0
  C  C19  1  0.51619000  0.33710000  0.92937000  1.0
  C  C20  1  0.44255000  0.38998000  0.93752000  1.0
  C  C21  1  0.41611000  0.52338000  0.92176000  1.0
  C  C22  1  0.33771000  0.56289000  0.88929000  1.0
  C  C23  1  0.49651000  0.43493000  0.82904000  1.0
  C  C24  1  0.47655000  0.36990000  0.76517000  1.0
  C  C25  1  0.15978000  0.25947000  0.89058000  1.0
  C  C26  1  0.14852000  0.19345000  0.91957000  1.0
  C  C27  1  0.22558000  0.14529000  0.92295000  1.0
  C  C28  1  0.30996000  0.16566000  0.89481000  1.0
  C  C29  1  0.31479000  0.23155000  0.86547000  1.0
  C  C30  1  0.16323000  0.07142000  0.01294000  1.0
  C  C31  1  0.16654000  0.00628000  0.04380000  1.0
  C  C32  1  0.27756000  0.94912000  0.96388000  1.0
  C  C33  1  0.27815000  0.01220000  0.93034000  1.0
  C  C34  1  0.22109000  0.07580000  0.95527000  1.0
  C  C35  1  0.07761000  0.81415000  0.94253000  1.0
  C  C36  1  0.03138000  0.81420000  0.87319000  1.0
  C  C37  1  0.01529000  0.88647000  0.85524000  1.0
  C  C38  1  0.97480000  0.89298000  0.79120000  1.0
  C  C39  1  0.95049000  0.82623000  0.74381000  1.0
  C  C40  1  0.90244000  0.83131000  0.67577000  1.0
  C  C41  1  0.96535000  0.75377000  0.76151000  1.0
  C  C42  1  0.00429000  0.74685000  0.82636000  1.0
  C  C43  1  0.97297000  0.66054000  0.91059000  1.0
  C  C44  1  0.02989000  0.61074000  0.95081000  1.0
  C  C45  1  0.01055000  0.60579000  0.78899000  1.0
  C  C46  1  0.08693000  0.60057000  0.73344000  1.0
  C  C47  1  0.29055000  0.56880000  0.49681000  1.0
  C  C48  1  0.37947000  0.61076000  0.50449000  1.0
  C  C49  1  0.39838000  0.65781000  0.45456000  1.0
  C  C50  1  0.47385000  0.70747000  0.46199000  1.0
  C  C51  1  0.53221000  0.71082000  0.52052000  1.0
  C  C52  1  0.61755000  0.76130000  0.52774000  1.0
  C  C53  1  0.51617000  0.66309000  0.56963000  1.0
  C  C54  1  0.44249000  0.61033000  0.56187000  1.0
  C  C55  1  0.41586000  0.47698000  0.57752000  1.0
  C  C56  1  0.33623000  0.43797000  0.60907000  1.0
  C  C57  1  0.49665000  0.56525000  0.67027000  1.0
  C  C58  1  0.47666000  0.63028000  0.73415000  1.0
  C  C59  1  0.16009000  0.74025000  0.60936000  1.0
  C  C60  1  0.14862000  0.80630000  0.58044000  1.0
  C  C61  1  0.22551000  0.85461000  0.57719000  1.0
  C  C62  1  0.30994000  0.83445000  0.60538000  1.0
  C  C63  1  0.31497000  0.76857000  0.63471000  1.0
  C  C64  1  0.16318000  0.92844000  0.48715000  1.0
  C  C65  1  0.16663000  0.99355000  0.45627000  1.0
  C  C66  1  0.27736000  0.05073000  0.53642000  1.0
  C  C67  1  0.27776000  0.98770000  0.56997000  1.0
  C  C68  1  0.22086000  0.92410000  0.54490000  1.0
  C  C69  1  0.92255000  0.81421000  0.44281000  1.0
  C  C70  1  0.96858000  0.81410000  0.37343000  1.0
  C  C71  1  0.98431000  0.88640000  0.35543000  1.0
  C  C72  1  0.02425000  0.89287000  0.29118000  1.0
  C  C73  1  0.04820000  0.82604000  0.24375000  1.0
  C  C74  1  0.09570000  0.83056000  0.17543000  1.0
  C  C75  1  0.03374000  0.75362000  0.26156000  1.0
  C  C76  1  0.99551000  0.74674000  0.32660000  1.0
  C  C77  1  0.02933000  0.66067000  0.41037000  1.0
  C  C78  1  0.97405000  0.61127000  0.45204000  1.0
  C  C79  1  0.98879000  0.60575000  0.28923000  1.0
  C  C80  1  0.91125000  0.60167000  0.23471000  1.0
  C  C81  1  0.70923000  0.56876000  0.99695000  1.0
  C  C82  1  0.62014000  0.61051000  0.00486000  1.0
  C  C83  1  0.60098000  0.65787000  0.95520000  1.0
  C  C84  1  0.52544000  0.70751000  0.96298000  1.0
  C  C85  1  0.46740000  0.71077000  0.02174000  1.0
  C  C86  1  0.38202000  0.76127000  0.02941000  1.0
  C  C87  1  0.48381000  0.66291000  0.07063000  1.0
  C  C88  1  0.55744000  0.61002000  0.06248000  1.0
  C  C89  1  0.58388000  0.47662000  0.07823000  1.0
  C  C90  1  0.66228000  0.43711000  0.11070000  1.0
  C  C91  1  0.50348000  0.56507000  0.17096000  1.0
  C  C92  1  0.52344000  0.63010000  0.23483000  1.0
  C  C93  1  0.84022000  0.74053000  0.10942000  1.0
  C  C94  1  0.85147000  0.80655000  0.08042000  1.0
  C  C95  1  0.77442000  0.85471000  0.07705000  1.0
  C  C96  1  0.69004000  0.83434000  0.10519000  1.0
  C  C97  1  0.68520000  0.76845000  0.13453000  1.0
  C  C98  1  0.83677000  0.92858000  0.98706000  1.0
  C  C99  1  0.83346000  0.99372000  0.95620000  1.0
  C  C100  1  0.72244000  0.05088000  0.03612000  1.0
  C  C101  1  0.72185000  0.98780000  0.06965000  1.0
  C  C102  1  0.77890000  0.92420000  0.04472000  1.0
  C  C103  1  0.92239000  0.18585000  0.05746000  1.0
  C  C104  1  0.96862000  0.18580000  0.12681000  1.0
  C  C105  1  0.98471000  0.11353000  0.14476000  1.0
  C  C106  1  0.02520000  0.10703000  0.20880000  1.0
  C  C107  1  0.04951000  0.17377000  0.25618000  1.0
  C  C108  1  0.09755000  0.16869000  0.32423000  1.0
  C  C109  1  0.03465000  0.24623000  0.23849000  1.0
  C  C110  1  0.99571000  0.25315000  0.17364000  1.0
  C  C111  1  0.02703000  0.33946000  0.08941000  1.0
  C  C112  1  0.97011000  0.38926000  0.04919000  1.0
  C  C113  1  0.98945000  0.39421000  0.21101000  1.0
  C  C114  1  0.91307000  0.39943000  0.26656000  1.0
  C  C115  1  0.70945000  0.43119000  0.50318000  1.0
  C  C116  1  0.62053000  0.38924000  0.49550000  1.0
  C  C117  1  0.60162000  0.34219000  0.54544000  1.0
  C  C118  1  0.52615000  0.29253000  0.53801000  1.0
  C  C119  1  0.46778000  0.28918000  0.47947000  1.0
  C  C120  1  0.38245000  0.23870000  0.47226000  1.0
  C  C121  1  0.48383000  0.33691000  0.43037000  1.0
  C  C122  1  0.55750000  0.38967000  0.43813000  1.0
  C  C123  1  0.58414000  0.52302000  0.42248000  1.0
  C  C124  1  0.66377000  0.56203000  0.39093000  1.0
  C  C125  1  0.50335000  0.43475000  0.32973000  1.0
  C  C126  1  0.52334000  0.36972000  0.26584000  1.0
  C  C127  1  0.83990000  0.25975000  0.39064000  1.0
  C  C128  1  0.85137000  0.19371000  0.41956000  1.0
  C  C129  1  0.77449000  0.14539000  0.42280000  1.0
  C  C130  1  0.69006000  0.16555000  0.39461000  1.0
  C  C131  1  0.68503000  0.23143000  0.36529000  1.0
  C  C132  1  0.83682000  0.07156000  0.51285000  1.0
  C  C133  1  0.83337000  0.00645000  0.54373000  1.0
  C  C134  1  0.72264000  0.94927000  0.46358000  1.0
  C  C135  1  0.72224000  0.01230000  0.43002000  1.0
  C  C136  1  0.77914000  0.07590000  0.45509000  1.0
  N  N1  1  0.01898000  0.32718000  0.65368000  1.0
  N  N2  1  0.43220000  0.44215000  0.88990000  1.0
  N  N3  1  0.24153000  0.27881000  0.86423000  1.0
  N  N4  1  0.22322000  0.94638000  0.02026000  1.0
  N  N5  1  0.01957000  0.67290000  0.84586000  1.0
  N  N6  1  0.43238000  0.55810000  0.60947000  1.0
  N  N7  1  0.24187000  0.72116000  0.63582000  1.0
  N  N8  1  0.22329000  0.05339000  0.47989000  1.0
  N  N9  1  0.98102000  0.67282000  0.34632000  1.0
  N  N10  1  0.56779000  0.55785000  0.11009000  1.0
  N  N11  1  0.75846000  0.72119000  0.13576000  1.0
  N  N12  1  0.77678000  0.05362000  0.97973000  1.0
  N  N13  1  0.98042000  0.32710000  0.15414000  1.0
  N  N14  1  0.56761000  0.44190000  0.39053000  1.0
  N  N15  1  0.75813000  0.27884000  0.36418000  1.0
  N  N16  1  0.77670000  0.94661000  0.52010000  1.0
  O  O1  1  0.15290000  0.22646000  0.55523000  1.0
  O  O2  1  0.04602000  0.14407000  0.50316000  1.0
  O  O3  1  0.87412000  0.10423000  0.83370000  1.0
  O  O4  1  0.89343000  0.23178000  0.86916000  1.0
  O  O5  1  0.11186000  0.40104000  0.55938000  1.0
  O  O6  1  0.98563000  0.41836000  0.49989000  1.0
  O  O7  1  0.16657000  0.36398000  0.74364000  1.0
  O  O8  1  0.07797000  0.43542000  0.82607000  1.0
  O  O9  1  0.25002000  0.45093000  0.06283000  1.0
  O  O10  1  0.24986000  0.44716000  0.94768000  1.0
  O  O11  1  0.63398000  0.19779000  0.01612000  1.0
  O  O12  1  0.67113000  0.24214000  0.91737000  1.0
  O  O13  1  0.29162000  0.52991000  0.83635000  1.0
  O  O14  1  0.32369000  0.63252000  0.91963000  1.0
  O  O15  1  0.39359000  0.34014000  0.75970000  1.0
  O  O16  1  0.54067000  0.35312000  0.72222000  1.0
  O  O17  1  0.15290000  0.77319000  0.94440000  1.0
  O  O18  1  0.04610000  0.85576000  0.99667000  1.0
  O  O19  1  0.87432000  0.89700000  0.66633000  1.0
  O  O20  1  0.88931000  0.76886000  0.63164000  1.0
  O  O21  1  0.11529000  0.59834000  0.93787000  1.0
  O  O22  1  0.99078000  0.58034000  0.99932000  1.0
  O  O23  1  0.16629000  0.63269000  0.75408000  1.0
  O  O24  1  0.07350000  0.56427000  0.67280000  1.0
  O  O25  1  0.24995000  0.54880000  0.43705000  1.0
  O  O26  1  0.24984000  0.55286000  0.55225000  1.0
  O  O27  1  0.63329000  0.80255000  0.48245000  1.0
  O  O28  1  0.67110000  0.75760000  0.58054000  1.0
  O  O29  1  0.29182000  0.47003000  0.66329000  1.0
  O  O30  1  0.31967000  0.36949000  0.57678000  1.0
  O  O31  1  0.39351000  0.65980000  0.74010000  1.0
  O  O32  1  0.54103000  0.64724000  0.77677000  1.0
  O  O33  1  0.84710000  0.77354000  0.44476000  1.0
  O  O34  1  0.95398000  0.85593000  0.49684000  1.0
  O  O35  1  0.12588000  0.89577000  0.16630000  1.0
  O  O36  1  0.10657000  0.76822000  0.13084000  1.0
  O  O37  1  0.88813000  0.59896000  0.44061000  1.0
  O  O38  1  0.01437000  0.58165000  0.50010000  1.0
  O  O39  1  0.83343000  0.63602000  0.25636000  1.0
  O  O40  1  0.92203000  0.56458000  0.17393000  1.0
  O  O41  1  0.74998000  0.54907000  0.93716000  1.0
  O  O42  1  0.75014000  0.55285000  0.05232000  1.0
  O  O43  1  0.36601000  0.80221000  0.98388000  1.0
  O  O44  1  0.32887000  0.75786000  0.08262000  1.0
  O  O45  1  0.70837000  0.47009000  0.16365000  1.0
  O  O46  1  0.67631000  0.36748000  0.08037000  1.0
  O  O47  1  0.60641000  0.65987000  0.24030000  1.0
  O  O48  1  0.45933000  0.64688000  0.27778000  1.0
  O  O49  1  0.84710000  0.22681000  0.05559000  1.0
  O  O50  1  0.95390000  0.14424000  0.00333000  1.0
  O  O51  1  0.12567000  0.10300000  0.33367000  1.0
  O  O52  1  0.11069000  0.23114000  0.36835000  1.0
  O  O53  1  0.88471000  0.40166000  0.06212000  1.0
  O  O54  1  0.00922000  0.41966000  0.00067000  1.0
  O  O55  1  0.83371000  0.36731000  0.24592000  1.0
  O  O56  1  0.92650000  0.43573000  0.32720000  1.0
  O  O57  1  0.75005000  0.45120000  0.56295000  1.0
  O  O58  1  0.75016000  0.44714000  0.44775000  1.0
  O  O59  1  0.36671000  0.19745000  0.51754000  1.0
  O  O60  1  0.32890000  0.24240000  0.41946000  1.0
  O  O61  1  0.70818000  0.52997000  0.33670000  1.0
  O  O62  1  0.68033000  0.63051000  0.42322000  1.0
  O  O63  1  0.60649000  0.34020000  0.25989000  1.0
  O  O64  1  0.45897000  0.35276000  0.22321000  1.0
