# generated using pymatgen
data_Zn2H9C17N2O9
_symmetry_space_group_name_H-M   'P 1'
_cell_length_a   14.00425000
_cell_length_b   16.72573000
_cell_length_c   16.72576000
_cell_angle_alpha   103.56758000
_cell_angle_beta   109.85089000
_cell_angle_gamma   109.85092000
_symmetry_Int_Tables_number   1
_chemical_formula_structural   Zn2H9C17N2O9
_chemical_formula_sum   'Zn8 H36 C68 N8 O36'
_cell_volume   3183.34036329
_cell_formula_units_Z   4
loop_
 _symmetry_equiv_pos_site_id
 _symmetry_equiv_pos_as_xyz
  1  'x, y, z'
loop_
 _atom_site_type_symbol
 _atom_site_label
 _atom_site_symmetry_multiplicity
 _atom_site_fract_x
 _atom_site_fract_y
 _atom_site_fract_z
 _atom_site_occupancy
  Zn  Zn1  1  0.28587000  0.33380000  0.20266000  1.0
  Zn  Zn2  1  0.53921000  0.36100000  0.27573000  1.0
  Zn  Zn3  1  0.21414000  0.79734000  0.66620000  1.0
  Zn  Zn4  1  0.96080000  0.72427000  0.63901000  1.0
  Zn  Zn5  1  0.71414000  0.66620000  0.79734000  1.0
  Zn  Zn6  1  0.46080000  0.63901000  0.72427000  1.0
  Zn  Zn7  1  0.78587000  0.20266000  0.33380000  1.0
  Zn  Zn8  1  0.03921000  0.27573000  0.36100000  1.0
  H  H1  1  0.66042000  0.50487000  0.12783000  1.0
  H  H2  1  0.12601000  0.06078000  0.04199000  1.0
  H  H3  1  0.35360000  0.48457000  0.55351000  1.0
  H  H4  1  0.06058000  0.34659000  0.16504000  1.0
  H  H5  1  0.85680000  0.25335000  0.04086000  1.0
  H  H6  1  0.97580000  0.11471000  0.87469000  1.0
  H  H7  1  0.17557000  0.21832000  0.00256000  1.0
  H  H8  1  0.28262000  0.40021000  0.02926000  1.0
  H  H9  1  0.50595000  0.16358000  0.13964000  1.0
  H  H10  1  0.83959000  0.87217000  0.49514000  1.0
  H  H11  1  0.37399000  0.95801000  0.93923000  1.0
  H  H12  1  0.14640000  0.44649000  0.51543000  1.0
  H  H13  1  0.43943000  0.83496000  0.65341000  1.0
  H  H14  1  0.64321000  0.95914000  0.74665000  1.0
  H  H15  1  0.52421000  0.12531000  0.88530000  1.0
  H  H16  1  0.32444000  0.99744000  0.78169000  1.0
  H  H17  1  0.21739000  0.97074000  0.59980000  1.0
  H  H18  1  0.99406000  0.86037000  0.83643000  1.0
  H  H19  1  0.33959000  0.49514000  0.87217000  1.0
  H  H20  1  0.87400000  0.93923000  0.95801000  1.0
  H  H21  1  0.64640000  0.51543000  0.44649000  1.0
  H  H22  1  0.93943000  0.65341000  0.83496000  1.0
  H  H23  1  0.14321000  0.74665000  0.95914000  1.0
  H  H24  1  0.02420000  0.88530000  0.12531000  1.0
  H  H25  1  0.82444000  0.78169000  0.99744000  1.0
  H  H26  1  0.71739000  0.59980000  0.97074000  1.0
  H  H27  1  0.49405000  0.83643000  0.86037000  1.0
  H  H28  1  0.16042000  0.12783000  0.50487000  1.0
  H  H29  1  0.62601000  0.04199000  0.06078000  1.0
  H  H30  1  0.85361000  0.55351000  0.48457000  1.0
  H  H31  1  0.56058000  0.16504000  0.34659000  1.0
  H  H32  1  0.35680000  0.04087000  0.25335000  1.0
  H  H33  1  0.47580000  0.87469000  0.11471000  1.0
  H  H34  1  0.67557000  0.00256000  0.21832000  1.0
  H  H35  1  0.78262000  0.02926000  0.40021000  1.0
  H  H36  1  0.00595000  0.13964000  0.16358000  1.0
  C  C1  1  0.46124000  0.41949000  0.12798000  1.0
  C  C2  1  0.47954000  0.46151000  0.06226000  1.0
  C  C3  1  0.59052000  0.50291000  0.07174000  1.0
  C  C4  1  0.38727000  0.45880000  0.98949000  1.0
  C  C5  1  0.34681000  0.17959000  0.14879000  1.0
  C  C6  1  0.29916000  0.09103000  0.06960000  1.0
  C  C7  1  0.18001000  0.03838000  0.01885000  1.0
  C  C8  1  0.37061000  0.06152000  0.04107000  1.0
  C  C9  1  0.25917000  0.38101000  0.37703000  1.0
  C  C10  1  0.38340000  0.44142000  0.43707000  1.0
  C  C11  1  0.46696000  0.44894000  0.40540000  1.0
  C  C12  1  0.41869000  0.49185000  0.53053000  1.0
  C  C13  1  0.03801000  0.29656000  0.09857000  1.0
  C  C14  1  0.92552000  0.24439000  0.03024000  1.0
  C  C15  1  0.90125000  0.17598000  0.94867000  1.0
  C  C16  1  0.99221000  0.16716000  0.93713000  1.0
  C  C17  1  0.10279000  0.22383000  0.00832000  1.0
  C  C18  1  0.03877000  0.87202000  0.58051000  1.0
  C  C19  1  0.02047000  0.93774000  0.53849000  1.0
  C  C20  1  0.90949000  0.92826000  0.49709000  1.0
  C  C21  1  0.11274000  0.01051000  0.54120000  1.0
  C  C22  1  0.15320000  0.85121000  0.82041000  1.0
  C  C23  1  0.20085000  0.93040000  0.90898000  1.0
  C  C24  1  0.32000000  0.98115000  0.96162000  1.0
  C  C25  1  0.12940000  0.95893000  0.93849000  1.0
  C  C26  1  0.24084000  0.62298000  0.61899000  1.0
  C  C27  1  0.11661000  0.56293000  0.55858000  1.0
  C  C28  1  0.03305000  0.59460000  0.55106000  1.0
  C  C29  1  0.08132000  0.46948000  0.50816000  1.0
  C  C30  1  0.46199000  0.90143000  0.70344000  1.0
  C  C31  1  0.57449000  0.96977000  0.75562000  1.0
  C  C32  1  0.59876000  0.05134000  0.82402000  1.0
  C  C33  1  0.50780000  0.06287000  0.83285000  1.0
  C  C34  1  0.39722000  0.99169000  0.77617000  1.0
  C  C35  1  0.53877000  0.58051000  0.87202000  1.0
  C  C36  1  0.52047000  0.53849000  0.93774000  1.0
  C  C37  1  0.40949000  0.49709000  0.92826000  1.0
  C  C38  1  0.61274000  0.54120000  0.01051000  1.0
  C  C39  1  0.65320000  0.82041000  0.85121000  1.0
  C  C40  1  0.70085000  0.90898000  0.93040000  1.0
  C  C41  1  0.82000000  0.96162000  0.98115000  1.0
  C  C42  1  0.62940000  0.93849000  0.95893000  1.0
  C  C43  1  0.74084000  0.61899000  0.62298000  1.0
  C  C44  1  0.61661000  0.55858000  0.56293000  1.0
  C  C45  1  0.53305000  0.55106000  0.59460000  1.0
  C  C46  1  0.58132000  0.50816000  0.46948000  1.0
  C  C47  1  0.96199000  0.70344000  0.90143000  1.0
  C  C48  1  0.07449000  0.75562000  0.96977000  1.0
  C  C49  1  0.09876000  0.82402000  0.05134000  1.0
  C  C50  1  0.00779000  0.83285000  0.06287000  1.0
  C  C51  1  0.89722000  0.77617000  0.99169000  1.0
  C  C52  1  0.96124000  0.12798000  0.41949000  1.0
  C  C53  1  0.97954000  0.06226000  0.46151000  1.0
  C  C54  1  0.09052000  0.07174000  0.50291000  1.0
  C  C55  1  0.88727000  0.98949000  0.45880000  1.0
  C  C56  1  0.84681000  0.14879000  0.17959000  1.0
  C  C57  1  0.79916000  0.06960000  0.09103000  1.0
  C  C58  1  0.68001000  0.01885000  0.03838000  1.0
  C  C59  1  0.87061000  0.04107000  0.06152000  1.0
  C  C60  1  0.75917000  0.37703000  0.38101000  1.0
  C  C61  1  0.88340000  0.43707000  0.44142000  1.0
  C  C62  1  0.96696000  0.40540000  0.44894000  1.0
  C  C63  1  0.91869000  0.53053000  0.49185000  1.0
  C  C64  1  0.53802000  0.09857000  0.29656000  1.0
  C  C65  1  0.42552000  0.03024000  0.24439000  1.0
  C  C66  1  0.40125000  0.94866000  0.17598000  1.0
  C  C67  1  0.49221000  0.93713000  0.16715000  1.0
  C  C68  1  0.60279000  0.00832000  0.22383000  1.0
  N  N1  1  0.12582000  0.28611000  0.08884000  1.0
  N  N2  1  0.78976000  0.10985000  0.87766000  1.0
  N  N3  1  0.37419000  0.91116000  0.71389000  1.0
  N  N4  1  0.71025000  0.12235000  0.89015000  1.0
  N  N5  1  0.87419000  0.71389000  0.91116000  1.0
  N  N6  1  0.21025000  0.89015000  0.12234000  1.0
  N  N7  1  0.62582000  0.08884000  0.28611000  1.0
  N  N8  1  0.28976000  0.87766000  0.10985000  1.0
  O  O1  1  0.35973000  0.38617000  0.12208000  1.0
  O  O2  1  0.54662000  0.41734000  0.18547000  1.0
  O  O3  1  0.27781000  0.41995000  0.97673000  1.0
  O  O4  1  0.27877000  0.20579000  0.16649000  1.0
  O  O5  1  0.45754000  0.22611000  0.19478000  1.0
  O  O6  1  0.48652000  0.10776000  0.08714000  1.0
  O  O7  1  0.44019000  0.40076000  0.31687000  1.0
  O  O8  1  0.21385000  0.34471000  0.28878000  1.0
  O  O9  1  0.19749000  0.36738000  0.41935000  1.0
  O  O10  1  0.14028000  0.87792000  0.61384000  1.0
  O  O11  1  0.95339000  0.81454000  0.58266000  1.0
  O  O12  1  0.22220000  0.02327000  0.58005000  1.0
  O  O13  1  0.22123000  0.83352000  0.79422000  1.0
  O  O14  1  0.04247000  0.80522000  0.77390000  1.0
  O  O15  1  0.01348000  0.91287000  0.89224000  1.0
  O  O16  1  0.05982000  0.68314000  0.59924000  1.0
  O  O17  1  0.28616000  0.71122000  0.65530000  1.0
  O  O18  1  0.30252000  0.58066000  0.63263000  1.0
  O  O19  1  0.64028000  0.61384000  0.87792000  1.0
  O  O20  1  0.45339000  0.58266000  0.81454000  1.0
  O  O21  1  0.72220000  0.58005000  0.02327000  1.0
  O  O22  1  0.72124000  0.79422000  0.83352000  1.0
  O  O23  1  0.54247000  0.77390000  0.80522000  1.0
  O  O24  1  0.51348000  0.89224000  0.91287000  1.0
  O  O25  1  0.55982000  0.59924000  0.68314000  1.0
  O  O26  1  0.78616000  0.65530000  0.71122000  1.0
  O  O27  1  0.80252000  0.63263000  0.58066000  1.0
  O  O28  1  0.85973000  0.12208000  0.38617000  1.0
  O  O29  1  0.04661000  0.18547000  0.41734000  1.0
  O  O30  1  0.77781000  0.97673000  0.41995000  1.0
  O  O31  1  0.77877000  0.16649000  0.20579000  1.0
  O  O32  1  0.95754000  0.19478000  0.22611000  1.0
  O  O33  1  0.98653000  0.08714000  0.10776000  1.0
  O  O34  1  0.94019000  0.31687000  0.40076000  1.0
  O  O35  1  0.71385000  0.28878000  0.34471000  1.0
  O  O36  1  0.69749000  0.41935000  0.36738000  1.0
