# generated using pymatgen
data_SiH24(C17N2)2
_symmetry_space_group_name_H-M   'P 1'
_cell_length_a   31.87420000
_cell_length_b   31.87420000
_cell_length_c   37.45250000
_cell_angle_alpha   90.00000000
_cell_angle_beta   90.00000000
_cell_angle_gamma   90.00000000
_symmetry_Int_Tables_number   1
_chemical_formula_structural   SiH24(C17N2)2
_chemical_formula_sum   'Si8 H192 C272 N32'
_cell_volume   38050.41514178
_cell_formula_units_Z   8
loop_
 _symmetry_equiv_pos_site_id
 _symmetry_equiv_pos_as_xyz
  1  'x, y, z'
loop_
 _atom_site_type_symbol
 _atom_site_label
 _atom_site_symmetry_multiplicity
 _atom_site_fract_x
 _atom_site_fract_y
 _atom_site_fract_z
 _atom_site_occupancy
  Si  7  1  0.12268500  0.12189200  0.12245500  1
  Si  48  1  0.62248100  0.12276600  0.62319700  1
  Si  89  1  0.12332200  0.62072100  0.62280700  1
  Si  130  1  0.62212300  0.62346600  0.12258800  1
  Si  171  1  0.87265400  0.37223200  0.37182300  1
  Si  212  1  0.87365500  0.87097600  0.87213800  1
  Si  253  1  0.37262700  0.37244500  0.87363900  1
  Si  294  1  0.37218400  0.87310900  0.37324600  1
  H  26  1  0.00030300  0.14846000  0.19217000  1
  H  27  1  0.04277600  0.10713500  0.15389500  1
  H  28  1  0.09273900  0.24353000  0.19239700  1
  H  29  1  0.13484800  0.20301100  0.15334600  1
  H  30  1  0.19081400  0.14273700  0.16778000  1
  H  31  1  0.22665600  0.10453500  0.21281300  1
  H  32  1  0.14600800  0.00123500  0.19637500  1
  H  33  1  0.10896900  0.03964300  0.15206500  1
  H  34  1  0.14060800  0.04402900  0.08808000  1
  H  35  1  0.10210800  0.00356200  0.04603200  1
  H  36  1  0.00933600  0.09798300  0.04136800  1
  H  37  1  0.04630900  0.13759400  0.08471400  1
  H  38  1  0.10673300  0.19290200  0.07919400  1
  H  39  1  0.20943600  0.11289800  0.10209600  1
  H  40  1  0.25276800  0.15390100  0.06419500  1
  H  41  1  0.14982300  0.23265300  0.04046200  1
  H  67  1  0.75281500  0.08311300  0.67761200  1
  H  68  1  0.71184400  0.12272900  0.63785000  1
  H  69  1  0.64366400  0.02291400  0.71613300  1
  H  70  1  0.60222600  0.06216100  0.67567600  1
  H  71  1  0.53238600  0.12520500  0.63488600  1
  H  72  1  0.49079100  0.16662400  0.67315600  1
  H  73  1  0.60000500  0.22305700  0.71541200  1
  H  74  1  0.64204500  0.18250500  0.67633300  1
  H  75  1  0.62429400  0.21233600  0.60869600  1
  H  76  1  0.66363300  0.25212100  0.56697100  1
  H  77  1  0.72175200  0.14155200  0.52946500  1
  H  78  1  0.68315300  0.10123600  0.57156900  1
  H  79  1  0.61791600  0.03280600  0.61029500  1
  H  80  1  0.56535300  0.14498500  0.56897900  1
  H  81  1  0.52755400  0.10515200  0.52623900  1
  H  82  1  0.57821600  0.99339100  0.56870600  1
  H  108  1  0.25503600  0.65804800  0.56937700  1
  H  109  1  0.21293700  0.61922700  0.60931500  1
  H  110  1  0.14701800  0.71962800  0.53006300  1
  H  111  1  0.10480700  0.68149400  0.57038600  1
  H  112  1  0.03806400  0.62715500  0.59782300  1
  H  113  1  0.00036400  0.58814900  0.55470700  1
  H  114  1  0.10609300  0.51085800  0.53766400  1
  H  115  1  0.14508400  0.55123500  0.57942900  1
  H  116  1  0.12033300  0.53331800  0.64423100  1
  H  117  1  0.15778500  0.49598000  0.68864700  1
  H  118  1  0.21953800  0.60744000  0.71946800  1
  H  119  1  0.18334900  0.64505700  0.67413600  1
  H  120  1  0.12144300  0.71018800  0.63715800  1
  H  121  1  0.05820900  0.59979800  0.67036300  1
  H  122  1  0.01858900  0.64005000  0.71166100  1
  H  123  1  0.07993500  0.75022600  0.67707600  1
  H  149  1  0.51825200  0.60136300  0.03345800  1
  H  150  1  0.55627700  0.64260300  0.07520100  1
  H  151  1  0.58487000  0.49343900  0.06607000  1
  H  152  1  0.62431300  0.53446600  0.10688200  1
  H  153  1  0.68510500  0.59897300  0.07390100  1
  H  154  1  0.72276200  0.63612200  0.02914300  1
  H  155  1  0.65656800  0.74680700  0.05490200  1
  H  156  1  0.61786600  0.70992100  0.09888400  1
  H  157  1  0.64170000  0.69486500  0.16441800  1
  H  158  1  0.60141700  0.73539000  0.20510300  1
  H  159  1  0.49793200  0.65471700  0.18951300  1
  H  160  1  0.53691900  0.61553100  0.14727000  1
  H  161  1  0.60261500  0.56188300  0.17408200  1
  H  162  1  0.71089700  0.62703300  0.13904600  1
  H  163  1  0.75227500  0.58805800  0.17941900  1
  H  164  1  0.64409000  0.52360100  0.21490900  1
  H  190  1  0.91346200  0.24378300  0.31402700  1
  H  191  1  0.87496000  0.28279300  0.35667300  1
  H  192  1  0.96788200  0.35544100  0.27486300  1
  H  193  1  0.93078900  0.39489900  0.31839800  1
  H  194  1  0.87194200  0.46214400  0.35918500  1
  H  195  1  0.83329300  0.50359800  0.31820300  1
  H  196  1  0.77370300  0.39490200  0.27846700  1
  H  197  1  0.81163300  0.35289300  0.31981800  1
  H  198  1  0.78325900  0.37142500  0.38651800  1
  H  199  1  0.74274100  0.33121700  0.42627800  1
  H  200  1  0.85242800  0.27070400  0.46338100  1
  H  201  1  0.89332600  0.31050800  0.42301500  1
  H  202  1  0.96290600  0.37576700  0.38303400  1
  H  203  1  0.85249100  0.42932200  0.42672700  1
  H  204  1  0.89407300  0.46840600  0.46730900  1
  H  205  1  0.00403500  0.41632400  0.42257200  1
  H  231  1  0.83677300  0.00159200  0.81589700  1
  H  232  1  0.87593600  0.96025200  0.85678800  1
  H  233  1  0.77312900  0.89334200  0.78003200  1
  H  234  1  0.81142000  0.85163400  0.82125800  1
  H  235  1  0.86684400  0.78457700  0.84915200  1
  H  236  1  0.90639300  0.74514400  0.80731800  1
  H  237  1  0.98108400  0.85149600  0.78523600  1
  H  238  1  0.94067500  0.89180100  0.82602100  1
  H  239  1  0.96209000  0.86707000  0.89040400  1
  H  240  1  0.00320000  0.90789600  0.92957600  1
  H  241  1  0.89464700  0.97243700  0.96382800  1
  H  242  1  0.85326900  0.93272500  0.92347000  1
  H  243  1  0.78469300  0.87295900  0.88822800  1
  H  244  1  0.89288100  0.80521400  0.91982500  1
  H  245  1  0.85094700  0.76338700  0.95796200  1
  H  246  1  0.74303200  0.83048500  0.92563300  1
  H  272  1  0.39970500  0.48901500  0.95000800  1
  H  273  1  0.35840200  0.45008700  0.90927600  1
  H  274  1  0.49609600  0.39839100  0.94252100  1
  H  275  1  0.45432600  0.35838300  0.90259600  1
  H  276  1  0.38733500  0.29019200  0.90242200  1
  H  277  1  0.35023600  0.25022900  0.94566300  1
  H  278  1  0.26698400  0.35146900  0.96203900  1
  H  279  1  0.30252700  0.39094600  0.91771100  1
  H  280  1  0.28732600  0.36277200  0.85020400  1
  H  281  1  0.24455800  0.40497900  0.81289300  1
  H  282  1  0.34587500  0.48848200  0.79697400  1
  H  283  1  0.38842600  0.44716300  0.83488900  1
  H  284  1  0.44785700  0.38982300  0.83499000  1
  H  285  1  0.35481900  0.29500100  0.83842600  1
  H  286  1  0.39283100  0.25589400  0.79515000  1
  H  287  1  0.48448200  0.35141500  0.79058700  1
  H  313  1  0.33803200  0.74133800  0.42879900  1
  H  314  1  0.37518400  0.78355100  0.38723900  1
  H  315  1  0.27576800  0.84871000  0.46815200  1
  H  316  1  0.31213700  0.89135000  0.42632400  1
  H  317  1  0.36744700  0.96022000  0.39485200  1
  H  318  1  0.40855200  0.99986500  0.43533200  1
  H  319  1  0.48115300  0.89246700  0.45877300  1
  H  320  1  0.43931700  0.85204800  0.41918600  1
  H  321  1  0.46072900  0.87510800  0.35471300  1
  H  322  1  0.50048900  0.83416600  0.31456300  1
  H  323  1  0.39001100  0.77397600  0.27915600  1
  H  324  1  0.34991600  0.81335600  0.32082700  1
  H  325  1  0.28225500  0.87278300  0.36050200  1
  H  326  1  0.39022400  0.93734000  0.32391100  1
  H  327  1  0.34752500  0.97831300  0.28577800  1
  H  328  1  0.23979100  0.91466900  0.32310500  1
  H  335  1  0.97284200  0.02235300  0.04782600  1
  H  337  1  0.10268400  0.03825400  0.98165600  1
  H  338  1  0.08130000  0.02519200  0.93985600  1
  H  339  1  0.10414200  0.98551700  0.96679100  1
  H  346  1  0.77882600  0.21148400  0.54303900  1
  H  348  1  0.63714400  0.22565200  0.49799800  1
  H  349  1  0.65194000  0.23641200  0.45364100  1
  H  350  1  0.64305800  0.27829500  0.48391600  1
  H  357  1  0.27469600  0.54049900  0.71102200  1
  H  359  1  0.13340400  0.52191000  0.75567600  1
  H  360  1  0.14825800  0.50775500  0.79928900  1
  H  361  1  0.13985500  0.46826800  0.76667200  1
  H  368  1  0.47066200  0.73297100  0.19040000  1
  H  370  1  0.58923100  0.69256500  0.26413500  1
  H  371  1  0.56523700  0.70439300  0.30511400  1
  H  372  1  0.59582900  0.74305800  0.28315300  1
  H  379  1  0.22150700  0.77792600  0.45172400  1
  H  381  1  0.36226400  0.76516000  0.49887900  1
  H  382  1  0.34656800  0.75449300  0.54305000  1
  H  383  1  0.35669200  0.71255300  0.51311600  1
  H  390  1  0.71766700  0.46459400  0.29391300  1
  H  392  1  0.85906700  0.47975400  0.24855600  1
  H  393  1  0.84398900  0.49172000  0.20448700  1
  H  394  1  0.85325600  0.53276900  0.23549700  1
  H  401  1  0.52120800  0.27488800  0.79667800  1
  H  403  1  0.39135700  0.29236300  0.73091700  1
  H  404  1  0.41276600  0.28091500  0.68876200  1
  H  405  1  0.39021500  0.24017800  0.71471200  1
  H  412  1  0.97599500  0.50868700  0.55326800  1
  H  414  1  0.09235900  0.55456400  0.47932700  1
  H  415  1  0.06761800  0.54454600  0.43830700  1
  H  416  1  0.09920900  0.50522600  0.45831900  1
  H  423  1  0.77552900  0.70666500  0.03857100  1
  H  425  1  0.63637300  0.71584400  0.98742800  1
  H  426  1  0.65312600  0.72806100  0.94387400  1
  H  427  1  0.64110100  0.76899400  0.97430500  1
  H  434  1  0.27053600  0.02994400  0.20390800  1
  H  436  1  0.13545100  0.03497300  0.26287200  1
  H  437  1  0.15480200  0.02444200  0.30595300  1
  H  438  1  0.13729600  0.98259300  0.27849900  1
  H  445  1  0.22419700  0.27849800  0.95340700  1
  H  447  1  0.35976700  0.28089300  0.01186800  1
  H  448  1  0.34069500  0.26822500  0.05458800  1
  H  449  1  0.35808500  0.22776700  0.02561600  1
  H  456  1  0.71906600  0.96456200  0.79546300  1
  H  458  1  0.85912600  0.97521700  0.74621100  1
  H  459  1  0.84262100  0.98560400  0.70222500  1
  H  460  1  0.85379000  0.02774400  0.73167800  1
  H  467  1  0.46667800  0.04700800  0.53464700  1
  H  469  1  0.60847900  0.00684700  0.50264400  1
  H  470  1  0.59562500  0.98808600  0.45990200  1
  H  471  1  0.59667900  0.95300100  0.49666300  1
  H  478  1  0.96246700  0.70297500  0.70395000  1
  H  480  1  0.10492800  0.72981500  0.74331900  1
  H  481  1  0.09098300  0.74675000  0.78634200  1
  H  482  1  0.09693400  0.78396800  0.75149000  1
  H  489  1  0.02689000  0.29261200  0.28403100  1
  H  491  1  0.88415900  0.26298400  0.24735800  1
  H  492  1  0.89708500  0.24735300  0.20368900  1
  H  493  1  0.89327600  0.20928300  0.23809600  1
  H  500  1  0.46552300  0.53303200  0.04337800  1
  H  502  1  0.60765000  0.51843700  0.99907200  1
  H  503  1  0.59307800  0.50537700  0.95518200  1
  H  504  1  0.60238000  0.46504900  0.98685700  1
  C  1  1  0.20579400  0.19770000  0.04898000  1
  C  2  1  0.22219200  0.16283400  0.06764500  1
  C  3  1  0.19648400  0.13872900  0.09023700  1
  C  4  1  0.15408300  0.14995300  0.09625400  1
  C  5  1  0.13748600  0.18412500  0.07663900  1
  C  6  1  0.16289900  0.20760500  0.05344600  1
  C  8  1  0.09585500  0.09350700  0.09298800  1
  C  9  1  0.05849000  0.10916800  0.07740900  1
  C  10  1  0.03662400  0.08596700  0.05153000  1
  C  11  1  0.05191200  0.04676300  0.03973500  1
  C  12  1  0.09020400  0.03191200  0.05390900  1
  C  13  1  0.11253100  0.05562200  0.07922200  1
  C  14  1  0.14804800  0.09404200  0.15321100  1
  C  15  1  0.09202900  0.15192700  0.14764900  1
  C  16  1  0.05340400  0.13633700  0.16081000  1
  C  17  1  0.02819600  0.16071500  0.18353400  1
  C  18  1  0.04191500  0.20044700  0.19552900  1
  C  19  1  0.08157100  0.21504700  0.18409900  1
  C  20  1  0.10621100  0.19121200  0.16053300  1
  C  21  1  0.18096900  0.11279600  0.17303600  1
  C  22  1  0.20215700  0.09043000  0.19983400  1
  C  23  1  0.18994800  0.04915900  0.20868500  1
  C  24  1  0.15558800  0.03110800  0.19052500  1
  C  25  1  0.13436200  0.05360800  0.16376000  1
  C  42  1  0.54939600  0.04547700  0.54327700  1
  C  43  1  0.54608000  0.08961100  0.54422700  1
  C  44  1  0.56860000  0.11301200  0.56954200  1
  C  45  1  0.59483400  0.09313200  0.59505400  1
  C  46  1  0.59842700  0.04887700  0.59355900  1
  C  47  1  0.57548300  0.02538800  0.56850600  1
  C  49  1  0.65073800  0.15263700  0.59568200  1
  C  50  1  0.67880800  0.13308700  0.57142700  1
  C  51  1  0.70172600  0.15670500  0.54651000  1
  C  52  1  0.69638300  0.20054600  0.54446200  1
  C  53  1  0.66813800  0.22034200  0.56806300  1
  C  54  1  0.64536100  0.19666600  0.59308900  1
  C  55  1  0.59173200  0.15068000  0.65024700  1
  C  56  1  0.65268700  0.09513500  0.65093300  1
  C  57  1  0.69664400  0.10107900  0.65320500  1
  C  58  1  0.72116800  0.07773200  0.67719000  1
  C  59  1  0.70270200  0.04825900  0.70063100  1
  C  60  1  0.65855700  0.04367400  0.69960300  1
  C  61  1  0.63402600  0.06683000  0.67540400  1
  C  62  1  0.54751700  0.14624200  0.65089800  1
  C  63  1  0.52263500  0.17069500  0.67382300  1
  C  64  1  0.54106400  0.19948700  0.69785100  1
  C  65  1  0.58531600  0.20252700  0.69853200  1
  C  66  1  0.61017000  0.17860600  0.67516100  1
  C  83  1  0.04556300  0.69894700  0.69838200  1
  C  84  1  0.03947700  0.65522800  0.69540500  1
  C  85  1  0.06308000  0.63156300  0.67099000  1
  C  86  1  0.09328100  0.65086700  0.64855400  1
  C  87  1  0.09907000  0.69476500  0.65159800  1
  C  88  1  0.07500500  0.71853300  0.67566000  1
  C  90  1  0.14961400  0.59274500  0.65298100  1
  C  91  1  0.17765000  0.61354200  0.67647200  1
  C  92  1  0.19901300  0.59152500  0.70339100  1
  C  93  1  0.19203000  0.54819800  0.70837100  1
  C  94  1  0.16331500  0.52743800  0.68577200  1
  C  95  1  0.14193200  0.54952200  0.65889000  1
  C  96  1  0.09498600  0.59189200  0.59469700  1
  C  97  1  0.15451400  0.64768600  0.59550300  1
  C  98  1  0.19837400  0.64102200  0.59362900  1
  C  99  1  0.22346300  0.66383700  0.56961200  1
  C  100  1  0.20559600  0.69336500  0.54585300  1
  C  101  1  0.16154000  0.69872400  0.54670300  1
  C  102  1  0.13650100  0.67618200  0.57085800  1
  C  103  1  0.05294700  0.60227300  0.58616300  1
  C  104  1  0.03057500  0.57947700  0.56033600  1
  C  105  1  0.04949600  0.54566600  0.54202700  1
  C  106  1  0.09153800  0.53543200  0.55015200  1
  C  107  1  0.11431900  0.55906900  0.57518700  1
  C  124  1  0.70268300  0.55124400  0.20099700  1
  C  125  1  0.72083000  0.58174200  0.17830300  1
  C  126  1  0.69619800  0.60464800  0.15403000  1
  C  127  1  0.65260200  0.59708400  0.15082400  1
  C  128  1  0.63418600  0.56785700  0.17461500  1
  C  129  1  0.65877000  0.54520800  0.19903500  1
  C  131  1  0.59279200  0.65246400  0.14981300  1
  C  132  1  0.55099700  0.64120700  0.15841600  1
  C  133  1  0.52788400  0.66410400  0.18372800  1
  C  134  1  0.54579800  0.69891200  0.20141500  1
  C  135  1  0.58755600  0.71009700  0.19309600  1
  C  136  1  0.61112000  0.68635000  0.16867500  1
  C  137  1  0.64912300  0.65107400  0.09263700  1
  C  138  1  0.59329700  0.59262300  0.09648500  1
  C  139  1  0.56250100  0.61109200  0.07414400  1
  C  140  1  0.53993700  0.58687800  0.04941800  1
  C  141  1  0.54799700  0.54354900  0.04585500  1
  C  142  1  0.57843600  0.52481600  0.06810300  1
  C  143  1  0.60119400  0.54911400  0.09269700  1
  C  144  1  0.67876700  0.63024900  0.07063400  1
  C  145  1  0.70104200  0.65198100  0.04408700  1
  C  146  1  0.69324900  0.69493100  0.03788700  1
  C  147  1  0.66280500  0.71563700  0.05881700  1
  C  148  1  0.64061700  0.69386100  0.08540900  1
  C  165  1  0.95315800  0.44659600  0.44862100  1
  C  166  1  0.90892200  0.44890500  0.44965200  1
  C  167  1  0.88441600  0.42592100  0.42537800  1
  C  168  1  0.90323100  0.39939800  0.39954600  1
  C  169  1  0.94752400  0.39573000  0.39983700  1
  C  170  1  0.97210100  0.41959300  0.42345100  1
  C  172  1  0.84255500  0.34385400  0.39906200  1
  C  173  1  0.86151400  0.31512600  0.42300700  1
  C  174  1  0.83729000  0.29160900  0.44714500  1
  C  175  1  0.79317000  0.29620600  0.44864000  1
  C  176  1  0.77438400  0.32588100  0.42554900  1
  C  177  1  0.79860700  0.34959600  0.40158800  1
  C  178  1  0.84468500  0.40317200  0.34498100  1
  C  179  1  0.89996500  0.34296700  0.34318100  1
  C  180  1  0.89504200  0.29890100  0.34047400  1
  C  181  1  0.91725500  0.27566500  0.31480100  1
  C  182  1  0.94407900  0.29591900  0.29027100  1
  C  183  1  0.94877500  0.33986400  0.29238300  1
  C  184  1  0.92674800  0.36301100  0.31818400  1
  C  185  1  0.85072800  0.44718200  0.34322400  1
  C  186  1  0.82840200  0.47185100  0.31860900  1
  C  187  1  0.79995000  0.45310600  0.29458300  1
  C  188  1  0.79394200  0.40929600  0.29580100  1
  C  189  1  0.81643000  0.38467400  0.32030100  1
  C  206  1  0.79252100  0.79202800  0.94519100  1
  C  207  1  0.83646500  0.78625200  0.94327100  1
  C  208  1  0.86127200  0.81100600  0.92050900  1
  C  209  1  0.84301900  0.84230100  0.89860100  1
  C  210  1  0.79933500  0.84935300  0.90182400  1
  C  211  1  0.77449000  0.82427700  0.92428200  1
  C  213  1  0.90358500  0.89742400  0.90087600  1
  C  214  1  0.88486500  0.92690500  0.92430300  1
  C  215  1  0.90925800  0.95029400  0.94843800  1
  C  216  1  0.95323300  0.94487900  0.95011400  1
  C  217  1  0.97168100  0.91384100  0.92824400  1
  C  218  1  0.94716300  0.88992500  0.90465400  1
  C  219  1  0.90131100  0.84173600  0.84378800  1
  C  220  1  0.84651400  0.90175300  0.84461600  1
  C  221  1  0.85375200  0.94547500  0.84166200  1
  C  222  1  0.83111900  0.97000900  0.81711100  1
  C  223  1  0.80118900  0.95135100  0.79433900  1
  C  224  1  0.79435000  0.90772300  0.79650700  1
  C  225  1  0.81713900  0.88325500  0.82089800  1
  C  226  1  0.89125900  0.79925000  0.83663500  1
  C  227  1  0.91402900  0.77598400  0.81132300  1
  C  228  1  0.94798800  0.79435900  0.79289400  1
  C  229  1  0.95736800  0.83702100  0.79895500  1
  C  230  1  0.93334900  0.86070100  0.82306600  1
  C  247  1  0.44239200  0.29980600  0.78880900  1
  C  248  1  0.40456800  0.28421400  0.80328600  1
  C  249  1  0.38258800  0.30708900  0.82935400  1
  C  250  1  0.39910900  0.34490500  0.84340100  1
  C  251  1  0.43585700  0.36141400  0.82741000  1
  C  252  1  0.45748800  0.33894800  0.80092600  1
  C  254  1  0.34164300  0.40182900  0.84818300  1
  C  255  1  0.35803800  0.43782700  0.83096900  1
  C  256  1  0.33294000  0.46224100  0.80823100  1
  C  257  1  0.29062500  0.45140800  0.80168400  1
  C  258  1  0.27459900  0.41467600  0.81788000  1
  C  259  1  0.29996100  0.38979100  0.84012500  1
  C  260  1  0.34686300  0.34356300  0.90342900  1
  C  261  1  0.40311200  0.40141200  0.89985600  1
  C  262  1  0.38763900  0.43888700  0.91532900  1
  C  263  1  0.41182800  0.46177100  0.93986400  1
  C  264  1  0.45231800  0.44797000  0.94973500  1
  C  265  1  0.46747100  0.41003300  0.93509000  1
  C  266  1  0.44272700  0.38650000  0.91135100  1
  C  267  1  0.36135400  0.30336800  0.91385800  1
  C  268  1  0.34006100  0.27995300  0.94000600  1
  C  269  1  0.30500900  0.29696400  0.95794300  1
  C  270  1  0.29198500  0.33804700  0.94923300  1
  C  271  1  0.31299300  0.36119100  0.92281800  1
  C  288  1  0.28918900  0.95116900  0.30095400  1
  C  289  1  0.33325300  0.95632100  0.30154400  1
  C  290  1  0.35850900  0.93211300  0.32435400  1
  C  291  1  0.34067600  0.90181000  0.34749600  1
  C  292  1  0.29672800  0.89559100  0.34585100  1
  C  293  1  0.27140000  0.92029800  0.32343900  1
  C  295  1  0.40129300  0.84680000  0.34379500  1
  C  296  1  0.38164400  0.81839700  0.31992200  1
  C  297  1  0.40519900  0.79523800  0.29504300  1
  C  298  1  0.44924700  0.79958300  0.29337400  1
  C  299  1  0.46878600  0.82922400  0.31589600  1
  C  300  1  0.44506100  0.85315900  0.34003800  1
  C  301  1  0.40064600  0.90242400  0.40098700  1
  C  302  1  0.34622900  0.84177700  0.40115600  1
  C  303  1  0.35375900  0.79802400  0.40333700  1
  C  304  1  0.33237500  0.77295000  0.42829900  1
  C  305  1  0.30345400  0.79108400  0.45227100  1
  C  306  1  0.29640100  0.83473300  0.45090400  1
  C  307  1  0.31795900  0.85974100  0.42609400  1
  C  308  1  0.39169900  0.94531500  0.40738800  1
  C  309  1  0.41547300  0.96876300  0.43189900  1
  C  310  1  0.44935000  0.95020000  0.45033800  1
  C  311  1  0.45756100  0.90714000  0.44505700  1
  C  312  1  0.43263100  0.88334900  0.42169900  1
  C  329  1  0.04383400  0.00506200  0.98315900  1
  C  330  1  0.02805200  0.02196300  0.01564200  1
  C  331  1  0.98619700  0.01170300  0.02471600  1
  C  333  1  0.97836300  0.97020000  0.97262000  1
  C  336  1  0.08538100  0.01414900  0.96723200  1
  C  340  1  0.70078500  0.24679500  0.49071400  1
  C  341  1  0.71942400  0.22430400  0.51935300  1
  C  342  1  0.76346000  0.22674400  0.52289100  1
  C  344  1  0.76847000  0.27206400  0.47264100  1
  C  347  1  0.65566400  0.24661200  0.48128100  1
  C  351  1  0.19722500  0.50090300  0.76173500  1
  C  352  1  0.21539700  0.52532100  0.73398000  1
  C  353  1  0.25953900  0.52418200  0.73067700  1
  C  355  1  0.26530000  0.47634700  0.77899100  1
  C  358  1  0.15211300  0.49980800  0.77113100  1
  C  362  1  0.53558600  0.73353600  0.26109900  1
  C  363  1  0.52185400  0.72291600  0.22607800  1
  C  364  1  0.48242700  0.73895100  0.21528300  1
  C  366  1  0.47351400  0.77433700  0.27032900  1
  C  369  1  0.57368600  0.71738500  0.27911600  1
  C  373  1  0.29875400  0.74326500  0.50520200  1
  C  374  1  0.28051100  0.76585300  0.47642200  1
  C  375  1  0.23665000  0.76260900  0.47196500  1
  C  377  1  0.23096200  0.71709000  0.52203700  1
  C  380  1  0.34362500  0.74408700  0.51539900  1
  C  384  1  0.79546300  0.50132300  0.24201300  1
  C  385  1  0.77695000  0.47793400  0.27020100  1
  C  386  1  0.73296800  0.48047300  0.27407500  1
  C  388  1  0.72771900  0.52715300  0.22476100  1
  C  391  1  0.84050600  0.50121000  0.23233300  1
  C  395  1  0.45042300  0.25953200  0.73148600  1
  C  396  1  0.46617900  0.27559600  0.76427900  1
  C  397  1  0.50792100  0.26493700  0.77331200  1
  C  399  1  0.51583000  0.22469600  0.72045000  1
  C  402  1  0.40879400  0.26890200  0.71585000  1
  C  406  1  0.03933300  0.51271500  0.48159900  1
  C  407  1  0.02607400  0.52157500  0.51710200  1
  C  408  1  0.98739000  0.50401200  0.52805800  1
  C  410  1  0.97788000  0.47108600  0.47195500  1
  C  413  1  0.07681000  0.53034700  0.46365300  1
  C  417  1  0.69948600  0.73939600  0.98300100  1
  C  418  1  0.71710900  0.71750100  0.01245400  1
  C  419  1  0.76086500  0.72111800  0.01762900  1
  C  421  1  0.76728400  0.76665300  0.96772300  1
  C  424  1  0.65497700  0.73783400  0.97176000  1
  C  428  1  0.19685400  0.00687700  0.26500700  1
  C  429  1  0.21361400  0.02543900  0.23357300  1
  C  430  1  0.25647900  0.01803000  0.22626300  1
  C  432  1  0.26367700  0.97597900  0.27821900  1
  C  435  1  0.15362200  0.01268800  0.27859500  1
  C  439  1  0.29841800  0.25259000  0.01322400  1
  C  440  1  0.28148300  0.27242200  0.98239500  1
  C  441  1  0.23844600  0.26564900  0.97529300  1
  C  443  1  0.23146700  0.22213700  0.02626900  1
  C  446  1  0.34172100  0.25780800  0.02683600  1
  C  450  1  0.79570500  0.99771800  0.74069200  1
  C  451  1  0.77776900  0.97591900  0.77003000  1
  C  452  1  0.73395000  0.97938600  0.77482300  1
  C  454  1  0.72783800  0.02417100  0.72434100  1
  C  457  1  0.84035600  0.99632800  0.72983600  1
  C  461  1  0.54323500  0.99208600  0.49431600  1
  C  462  1  0.52563100  0.02178100  0.51840000  1
  C  463  1  0.48149800  0.02645600  0.51790100  1
  C  465  1  0.47466500  0.97413100  0.47347900  1
  C  468  1  0.58857900  0.98477900  0.48828500  1
  C  472  1  0.04056900  0.74916900  0.74972500  1
  C  473  1  0.02214300  0.72272500  0.72342700  1
  C  474  1  0.97780500  0.72122200  0.72222100  1
  C  476  1  0.97249400  0.77052800  0.76916800  1
  C  479  1  0.08592500  0.75243800  0.75792200  1
  C  483  1  0.94872800  0.24553600  0.23901600  1
  C  484  1  0.96721000  0.27241500  0.26492000  1
  C  485  1  0.01149900  0.27425100  0.26586900  1
  C  487  1  0.01689100  0.22464700  0.21892000  1
  C  490  1  0.90323100  0.24122100  0.23188300  1
  C  494  1  0.54426400  0.49616200  0.99253900  1
  C  495  1  0.52533000  0.51929100  0.02073900  1
  C  496  1  0.48117500  0.51728600  0.02366500  1
  C  498  1  0.47683300  0.47144300  0.97397700  1
  C  501  1  0.58940400  0.49643500  0.98314300  1
  N  332  1  0.96287400  0.98675300  0.00327300  1
  N  334  1  0.01838600  0.98000100  0.96334700  1
  N  343  1  0.78624900  0.25017200  0.49984100  1
  N  345  1  0.72611600  0.26951100  0.46888100  1
  N  354  1  0.28278600  0.50015600  0.75288600  1
  N  356  1  0.22291800  0.47751100  0.78278300  1
  N  365  1  0.45958700  0.76361000  0.23736500  1
  N  367  1  0.51098900  0.75886700  0.28140100  1
  N  376  1  0.21363700  0.73883500  0.49455100  1
  N  378  1  0.27319400  0.72010200  0.52656000  1
  N  387  1  0.71009400  0.50452600  0.25159100  1
  N  389  1  0.77004200  0.52468100  0.22072300  1
  N  398  1  0.53115300  0.24036100  0.75150800  1
  N  400  1  0.47585100  0.23487100  0.71127900  1
  N  409  1  0.96462800  0.47990800  0.50553000  1
  N  411  1  0.01480700  0.48779800  0.46083100  1
  N  420  1  0.78423200  0.74521000  0.99553500  1
  N  422  1  0.72529400  0.76291700  0.96219900  1
  N  431  1  0.27982600  0.99401600  0.24840600  1
  N  433  1  0.22254500  0.98303800  0.28571100  1
  N  442  1  0.21504000  0.24133000  0.99712600  1
  N  444  1  0.27274000  0.22835500  0.03361800  1
  N  453  1  0.71069900  0.00297200  0.75221900  1
  N  455  1  0.76996300  0.02068300  0.71939300  1
  N  464  1  0.45757600  0.00304400  0.49568900  1
  N  466  1  0.51698500  0.96946300  0.47319900  1
  N  475  1  0.95447000  0.74460400  0.74491900  1
  N  477  1  0.01495000  0.77206800  0.77116500  1
  N  486  1  0.03469700  0.25076600  0.24318800  1
  N  488  1  0.97435700  0.22281200  0.21741600  1
  N  497  1  0.45852700  0.49395400  0.00048500  1
  N  499  1  0.51921200  0.47321600  0.97062000  1
