# generated using pymatgen
data_MnP2H10(C4O3)2
_symmetry_space_group_name_H-M   'P 1'
_cell_length_a   8.55503000
_cell_length_b   9.18462000
_cell_length_c   10.50372466
_cell_angle_alpha   91.43850931
_cell_angle_beta   113.89540334
_cell_angle_gamma   90.04635000
_symmetry_Int_Tables_number   1
_chemical_formula_structural   MnP2H10(C4O3)2
_chemical_formula_sum   'Mn2 P4 H20 C16 O12'
_cell_volume   754.29308140
_cell_formula_units_Z   2
loop_
 _symmetry_equiv_pos_site_id
 _symmetry_equiv_pos_as_xyz
  1  'x, y, z'
loop_
 _atom_site_type_symbol
 _atom_site_label
 _atom_site_symmetry_multiplicity
 _atom_site_fract_x
 _atom_site_fract_y
 _atom_site_fract_z
 _atom_site_occupancy
  Mn  Mn1  1  0.89392000  0.75031000  0.99999000  1.0
  Mn  Mn2  1  0.10608000  0.24969000  0.00001000  1.0
  P  P1  1  0.96537000  0.51227000  0.79196000  1.0
  P  P2  1  0.17250000  0.98847000  0.20973000  1.0
  P  P3  1  0.03464000  0.48773000  0.20805000  1.0
  P  P4  1  0.82751000  0.01153000  0.79027000  1.0
  H  H1  1  0.79969000  0.32947000  0.78165000  1.0
  H  H2  1  0.60526000  0.66465000  0.39818000  1.0
  H  H3  1  0.71517000  0.72804000  0.57280000  1.0
  H  H4  1  0.61816000  0.55360000  0.53899000  1.0
  H  H5  1  0.22505000  0.40678000  0.71411000  1.0
  H  H6  1  0.01844000  0.17259000  0.22031000  1.0
  H  H7  1  0.20691000  0.83491000  0.60284000  1.0
  H  H8  1  0.14263000  0.77192000  0.42801000  1.0
  H  H9  1  0.07990000  0.94610000  0.46211000  1.0
  H  H10  1  0.51007000  0.09365000  0.28517000  1.0
  H  H11  1  0.20031000  0.67053000  0.21835000  1.0
  H  H12  1  0.39474000  0.33535000  0.60182000  1.0
  H  H13  1  0.28483000  0.27196000  0.42720000  1.0
  H  H14  1  0.38185000  0.44640000  0.46102000  1.0
  H  H15  1  0.77495000  0.59322000  0.28589000  1.0
  H  H16  1  0.98156000  0.82741000  0.77969000  1.0
  H  H17  1  0.79310000  0.16509000  0.39717000  1.0
  H  H18  1  0.85738000  0.22807000  0.57200000  1.0
  H  H19  1  0.92010000  0.05390000  0.53789000  1.0
  H  H20  1  0.48993000  0.90635000  0.71483000  1.0
  C  C1  1  0.68874000  0.63144000  0.50334000  1.0
  C  C2  1  0.84995000  0.56500000  0.50506000  1.0
  C  C3  1  0.98121000  0.51097000  0.62627000  1.0
  C  C4  1  0.12689000  0.44791000  0.61917000  1.0
  C  C5  1  0.18585000  0.86829000  0.49776000  1.0
  C  C6  1  0.34531000  0.93480000  0.49577000  1.0
  C  C7  1  0.35498000  0.98906000  0.37427000  1.0
  C  C8  1  0.50725000  0.05235000  0.38038000  1.0
  C  C9  1  0.31126000  0.36856000  0.49666000  1.0
  C  C10  1  0.15005000  0.43500000  0.49494000  1.0
  C  C11  1  0.01880000  0.48903000  0.37373000  1.0
  C  C12  1  0.87311000  0.55209000  0.38083000  1.0
  C  C13  1  0.81415000  0.13170000  0.50224000  1.0
  C  C14  1  0.65469000  0.06520000  0.50423000  1.0
  C  C15  1  0.64503000  0.01094000  0.62573000  1.0
  C  C16  1  0.49275000  0.94765000  0.61962000  1.0
  O  O1  1  0.95574000  0.67091000  0.83844000  1.0
  O  O2  1  0.11395000  0.42584000  0.89465000  1.0
  O  O3  1  0.78589000  0.43754000  0.76775000  1.0
  O  O4  1  0.11513000  0.83013000  0.16265000  1.0
  O  O5  1  0.21779000  0.07449000  0.10606000  1.0
  O  O6  1  0.02029000  0.06477000  0.23718000  1.0
  O  O7  1  0.04426000  0.32909000  0.16156000  1.0
  O  O8  1  0.88605000  0.57416000  0.10535000  1.0
  O  O9  1  0.21412000  0.56246000  0.23226000  1.0
  O  O10  1  0.88487000  0.16987000  0.83735000  1.0
  O  O11  1  0.78221000  0.92551000  0.89394000  1.0
  O  O12  1  0.97972000  0.93523000  0.76282000  1.0
