# generated using pymatgen
data_Ba2P8H68C63O31
_symmetry_space_group_name_H-M   'P 1'
_cell_length_a   8.42634000
_cell_length_b   12.85035000
_cell_length_c   18.86032000
_cell_angle_alpha   100.63125000
_cell_angle_beta   91.39876000
_cell_angle_gamma   99.59748000
_symmetry_Int_Tables_number   1
_chemical_formula_structural   Ba2P8H68C63O31
_chemical_formula_sum   'Ba2 P8 H68 C63 O31'
_cell_volume   1975.86394540
_cell_formula_units_Z   1
loop_
 _symmetry_equiv_pos_site_id
 _symmetry_equiv_pos_as_xyz
  1  'x, y, z'
loop_
 _atom_site_type_symbol
 _atom_site_label
 _atom_site_symmetry_multiplicity
 _atom_site_fract_x
 _atom_site_fract_y
 _atom_site_fract_z
 _atom_site_occupancy
  Ba  Ba0  1  0.85278000  0.54834000  0.46507000  1
  Ba  Ba1  1  0.33706000  0.45175000  0.53494000  1
  P  P2  1  0.04104000  0.39477000  0.33633000  1
  P  P3  1  0.67288000  0.75403000  0.55610000  1
  P  P4  1  0.12574000  0.82227000  0.40072000  1
  P  P5  1  0.14867000  0.60532000  0.66368000  1
  P  P6  1  0.06467000  0.17449000  0.59265000  1
  P  P7  1  0.63393000  0.60252000  0.27447000  1
  P  P8  1  0.51635000  0.22836000  0.43861000  1
  P  P9  1  0.55782000  0.39587000  0.72497000  1
  H  H10  1  0.68837000  0.84588000  0.33907000  1
  H  H11  1  0.49093000  0.93300000  0.27403000  1
  H  H12  1  0.80273000  0.68488000  0.78806000  1
  H  H13  1  0.63554000  0.75322000  0.78297000  1
  H  H14  1  0.49465000  0.76724000  0.30953000  1
  H  H15  1  0.68537000  0.26781000  0.32453000  1
  H  H16  1  0.52719000  0.23366000  0.18742000  1
  H  H17  1  0.67960000  0.16199000  0.21358000  1
  H  H18  1  0.68695000  0.93926000  0.24051000  1
  H  H19  1  0.15533000  0.31312000  0.72519000  1
  H  H20  1  0.94248000  0.25604000  0.72274000  1
  H  H21  1  0.46483000  0.85772000  0.73506000  1
  H  H22  1  0.21959000  0.21754000  0.81838000  1
  H  H23  1  0.05551000  0.28528000  0.84640000  1
  H  H24  1  0.01863000  0.14157000  0.81159000  1
  H  H25  1  0.65780000  0.21403000  0.69744000  1
  H  H26  1  0.46339000  0.13170000  0.69019000  1
  H  H27  1  0.62401000  0.06021000  0.76938000  1
  H  H28  1  0.64572000  0.31204000  0.09520000  1
  H  H29  1  0.54626000  0.33575000  0.98050000  1
  H  H30  1  0.83147000  0.48344000  0.65590000  1
  H  H31  1  0.58883000  0.39661000  0.86923000  1
  H  H32  1  0.49139000  0.92955000  0.66097000  1
  H  H33  1  0.32488000  0.64682000  0.80225000  1
  H  H34  1  0.54910000  0.67213000  0.89248000  1
  H  H35  1  0.65282000  0.65358000  0.01112000  1
  H  H36  1  0.60930000  0.59684000  0.12657000  1
  H  H37  1  0.22386000  0.86358000  0.25920000  1
  H  H38  1  0.36428000  0.49987000  0.33764000  1
  H  H39  1  0.33061000  0.03006000  0.41989000  1
  H  H40  1  0.85806000  0.96288000  0.57902000  1
  H  H41  1  0.91728000  0.73405000  0.17269000  1
  H  H42  1  0.93088000  0.87499000  0.20103000  1
  H  H43  1  0.32953000  0.94725000  0.72047000  1
  H  H44  1  0.36282000  0.74203000  0.61343000  1
  H  H45  1  0.06692000  0.13142000  0.41701000  1
  H  H46  1  0.12629000  0.01732000  0.20083000  1
  H  H47  1  0.18850000  0.15257000  0.24266000  1
  H  H48  1  0.21541000  0.04813000  0.29230000  1
  H  H49  1  0.99260000  0.85040000  0.76999000  1
  H  H50  1  0.82311000  0.92004000  0.76851000  1
  H  H51  1  0.87785000  0.87426000  0.84893000  1
  H  H52  1  0.60090000  0.79655000  0.13724000  1
  H  H53  1  0.40270000  0.76715000  0.17080000  1
  H  H54  1  0.85023000  0.17070000  0.36155000  1
  H  H55  1  0.46637000  0.89102000  0.14063000  1
  H  H56  1  0.37149000  0.30649000  0.29594000  1
  H  H57  1  0.42786000  0.06587000  0.15809000  1
  H  H58  1  0.02876000  0.82762000  0.09079000  1
  H  H59  1  0.76419000  0.16845000  0.86772000  1
  H  H60  1  0.24885000  0.69162000  0.28248000  1
  H  H61  1  0.03812000  0.63924000  0.26404000  1
  H  H62  1  0.16725000  0.66447000  0.19226000  1
  H  H63  1  0.39088000  0.07383000  0.81883000  1
  H  H64  1  0.75308000  0.35248000  0.20177000  1
  H  H65  1  0.88240000  0.07059000  0.23839000  1
  H  H66  1  0.83492000  0.30242000  0.44543000  1
  H  H67  1  0.84978000  0.35057000  0.54285000  1
  H  H68  1  0.99285000  0.28528000  0.48806000  1
  H  H69  1  0.45789000  0.63190000  0.43680000  1
  H  H70  1  0.28633000  0.65935000  0.48150000  1
  H  H71  1  0.33069000  0.66514000  0.38572000  1
  H  H72  1  0.26738000  0.90522000  0.57057000  1
  H  H73  1  0.13537000  0.77602000  0.54994000  1
  H  H74  1  0.09497000  0.87998000  0.62269000  1
  H  H75  1  0.93312000  0.00452000  0.31042000  1
  H  H76  1  0.86513000  0.69998000  0.66186000  1
  H  H77  1  0.65804000  0.63603000  0.66683000  1
  C  C78  1  0.57511000  0.88431000  0.24539000  1
  C  C79  1  0.89182000  0.39671000  0.08939000  1
  C  C80  1  0.73028000  0.35475000  0.06413000  1
  C  C81  1  0.10905000  0.80678000  0.25740000  1
  C  C82  1  0.67163000  0.36754000  0.99737000  1
  C  C83  1  0.77395000  0.41754000  0.95198000  1
  C  C84  1  0.93714000  0.45607000  0.97428000  1
  C  C85  1  0.71559000  0.42490000  0.88345000  1
  C  C86  1  0.82021000  0.46167000  0.83295000  1
  C  C87  1  0.98330000  0.50539000  0.85551000  1
  C  C88  1  0.04082000  0.50275000  0.92683000  1
  C  C89  1  0.61033000  0.80300000  0.29061000  1
  C  C90  1  0.76733000  0.45309000  0.76011000  1
  C  C91  1  0.87446000  0.49031000  0.71137000  1
  C  C92  1  0.03131000  0.54332000  0.73335000  1
  C  C93  1  0.00412000  0.81061000  0.18977000  1
  C  C94  1  0.08816000  0.55167000  0.80717000  1
  C  C95  1  0.15862000  0.48603000  0.06698000  1
  C  C96  1  0.21607000  0.48079000  0.13806000  1
  C  C97  1  0.10784000  0.43753000  0.18714000  1
  C  C98  1  0.95011000  0.38767000  0.15875000  1
  C  C99  1  0.24539000  0.60276000  0.83470000  1
  C  C100  1  0.55938000  0.24204000  0.30382000  1
  C  C101  1  0.30524000  0.59410000  0.90380000  1
  C  C102  1  0.20281000  0.54331000  0.94999000  1
  C  C103  1  0.26217000  0.53421000  0.01969000  1
  C  C104  1  0.46736000  0.63377000  0.92716000  1
  C  C105  1  0.28921000  0.79636000  0.64465000  1
  C  C106  1  0.52692000  0.62270000  0.99501000  1
  C  C107  1  0.42514000  0.57372000  0.04195000  1
  C  C108  1  0.37924000  0.52553000  0.16121000  1
  C  C109  1  0.48326000  0.56648000  0.11125000  1
  C  C110  1  0.43072000  0.53315000  0.23461000  1
  C  C111  1  0.55860000  0.18167000  0.22486000  1
  C  C112  1  0.32132000  0.49634000  0.28280000  1
  C  C113  1  0.16111000  0.45019000  0.26269000  1
  C  C114  1  0.78016000  0.17685000  0.51043000  1
  C  C115  1  0.43530000  0.80375000  0.46040000  1
  C  C116  1  0.40432000  0.98123000  0.44177000  1
  C  C117  1  0.40131000  0.88836000  0.69321000  1
  C  C118  1  0.34316000  0.87216000  0.43277000  1
  C  C119  1  0.57834000  0.84648000  0.50524000  1
  C  C120  1  0.64206000  0.95939000  0.51197000  1
  C  C121  1  0.55495000  0.02616000  0.47841000  1
  C  C122  1  0.06706000  0.24061000  0.73030000  1
  C  C123  1  0.62101000  0.13671000  0.48171000  1
  C  C124  1  0.86248000  0.11433000  0.54736000  1
  C  C125  1  0.79174000  0.00776000  0.54960000  1
  C  C126  1  0.96937000  0.17760000  0.33824000  1
  C  C127  1  0.96961000  0.07429000  0.28408000  1
  C  C128  1  0.74546000  0.71272000  0.68098000  1
  C  C129  1  0.75747000  0.74702000  0.76342000  1
  C  C130  1  0.13488000  0.07264000  0.25345000  1
  C  C131  1  0.86986000  0.85460000  0.78896000  1
  C  C132  1  0.50665000  0.83125000  0.16907000  1
  C  C133  1  0.09137000  0.21988000  0.80633000  1
  C  C134  1  0.14241000  0.69312000  0.24890000  1
  C  C135  1  0.86623000  0.28477000  0.49796000  1
  C  C136  1  0.37348000  0.68529000  0.44243000  1
  C  C137  1  0.19073000  0.84253000  0.59370000  1
  C  C138  1  0.54968000  0.19274000  0.72812000  1
  C  C139  1  0.59791000  0.14186000  0.79123000  1
  C  C140  1  0.99585000  0.44725000  0.04392000  1
  O  O141  1  0.87309000  0.42589000  0.32514000  1
  O  O142  1  0.19822000  0.12419000  0.55134000  1
  O  O143  1  0.09213000  0.15023000  0.68013000  1
  O  O144  1  0.12242000  0.43437000  0.41438000  1
  O  O145  1  0.57837000  0.63380000  0.53638000  1
  O  O146  1  0.34151000  0.23185000  0.46551000  1
  O  O147  1  0.47626000  0.17513000  0.34619000  1
  O  O148  1  0.44844000  0.47641000  0.75468000  1
  O  O149  1  0.47031000  0.27914000  0.75437000  1
  O  O150  1  0.65950000  0.62710000  0.36881000  1
  O  O151  1  0.76663000  0.54061000  0.24435000  1
  O  O152  1  0.69295000  0.79321000  0.65023000  1
  O  O153  1  0.99261000  0.25775000  0.29735000  1
  O  O154  1  0.69062000  0.72703000  0.24965000  1
  O  O155  1  0.84820000  0.76819000  0.53453000  1
  O  O156  1  0.08116000  0.68595000  0.40481000  1
  O  O157  1  0.02378000  0.87578000  0.45900000  1
  O  O158  1  0.09414000  0.19081000  0.38988000  1
  O  O159  1  0.48871000  0.33314000  0.30613000  1
  O  O160  1  0.44958000  0.08504000  0.21128000  1
  O  O161  1  0.10237000  0.82634000  0.13239000  1
  O  O162  1  0.73791000  0.20422000  0.82763000  1
  O  O163  1  0.02725000  0.83749000  0.32033000  1
  O  O164  1  0.47495000  0.13592000  0.84011000  1
  O  O165  1  0.85507000  0.32443000  0.19690000  1
  O  O166  1  0.31661000  0.57414000  0.67490000  1
  O  O167  1  0.06729000  0.56572000  0.58563000  1
  O  O168  1  0.53021000  0.37299000  0.63120000  1
  O  O169  1  0.18340000  0.74566000  0.68879000  1
  O  O170  1  0.61134000  0.36629000  0.46363000  1
  O  O171  1  0.10855000  0.31414000  0.59520000  1
