# generated using pymatgen
data_Zn5H8(C9O7)2
_symmetry_space_group_name_H-M   'P 1'
_cell_length_a   17.12047000
_cell_length_b   17.36532000
_cell_length_c   17.36925186
_cell_angle_alpha   106.45464235
_cell_angle_beta   116.66150644
_cell_angle_gamma   104.88218000
_symmetry_Int_Tables_number   1
_chemical_formula_structural   Zn5H8(C9O7)2
_chemical_formula_sum   'Zn20 H32 C72 O56'
_cell_volume   3956.94755182
_cell_formula_units_Z   4
loop_
 _symmetry_equiv_pos_site_id
 _symmetry_equiv_pos_as_xyz
  1  'x, y, z'
loop_
 _atom_site_type_symbol
 _atom_site_label
 _atom_site_symmetry_multiplicity
 _atom_site_fract_x
 _atom_site_fract_y
 _atom_site_fract_z
 _atom_site_occupancy
  Zn  Zn0  1  0.52668000  0.61921000  0.40779000  1
  Zn  Zn1  1  0.66592000  0.58703000  0.34047000  1
  Zn  Zn2  1  0.79078000  0.38181000  0.90747000  1
  Zn  Zn3  1  0.77328000  0.42620000  0.11336000  1
  Zn  Zn4  1  0.44615000  0.93087000  0.83685000  1
  Zn  Zn5  1  0.31685000  0.73020000  0.75416000  1
  Zn  Zn6  1  0.90311000  0.11274000  0.52403000  1
  Zn  Zn7  1  0.06477000  0.32266000  0.66309000  1
  Zn  Zn8  1  0.29623000  0.88549000  0.90961000  1
  Zn  Zn9  1  0.29388000  0.66099000  0.84385000  1
  Zn  Zn10  1  0.01875000  0.07748000  0.40943000  1
  Zn  Zn11  1  0.07712000  0.27645000  0.53060000  1
  Zn  Zn12  1  0.40477000  0.39304000  0.33010000  1
  Zn  Zn13  1  0.53386000  0.44483000  0.25678000  1
  Zn  Zn14  1  0.93268000  0.61253000  0.01513000  1
  Zn  Zn15  1  0.79861000  0.54527000  0.07689000  1
  Zn  Zn16  1  0.35700000  0.49436000  0.20119000  1
  Zn  Zn17  1  0.70384000  0.50568000  0.85681000  1
  Zn  Zn18  1  0.21179000  0.85203000  0.70194000  1
  Zn  Zn19  1  0.85646000  0.14556000  0.35170000  1
  H  H20  1  0.91989000  0.73058000  0.60357000  1
  H  H21  1  0.03467000  0.72194000  0.87585000  1
  H  H22  1  0.72493000  0.63103000  0.68351000  1
  H  H23  1  0.86875000  0.28374000  0.19115000  1
  H  H24  1  0.16309000  0.31566000  0.34340000  1
  H  H25  1  0.05191000  0.36075000  0.09181000  1
  H  H26  1  0.58419000  0.69375000  0.88435000  1
  H  H27  1  0.85360000  0.81794000  0.16534000  1
  H  H28  1  0.70892000  0.97576000  0.07449000  1
  H  H29  1  0.19267000  0.31624000  0.91082000  1
  H  H30  1  0.34950000  0.17233000  0.01909000  1
  H  H31  1  0.10086000  0.04198000  0.72263000  1
  H  H32  1  0.38115000  0.68311000  0.09720000  1
  H  H33  1  0.66626000  0.83636000  0.36619000  1
  H  H34  1  0.56482000  0.95041000  0.17223000  1
  H  H35  1  0.40293000  0.32266000  0.70400000  1
  H  H36  1  0.53904000  0.17205000  0.82352000  1
  H  H37  1  0.22852000  0.04463000  0.61235000  1
  H  H38  1  0.69409000  0.28650000  0.38138000  1
  H  H39  1  0.82169000  0.29047000  0.66086000  1
  H  H40  1  0.61290000  0.39561000  0.57390000  1
  H  H41  1  0.07965000  0.70251000  0.39655000  1
  H  H42  1  0.35025000  0.68230000  0.52027000  1
  H  H43  1  0.18161000  0.61513000  0.21738000  1
  H  H44  1  0.85805000  0.53754000  0.45839000  1
  H  H45  1  0.75410000  0.45902000  0.37966000  1
  H  H46  1  0.85487000  0.48288000  0.31304000  1
  H  H47  1  0.92243000  0.53137000  0.28623000  1
  H  H48  1  0.34250000  0.51717000  0.84287000  1
  H  H49  1  0.42835000  0.60743000  0.87769000  1
  H  H50  1  0.31399000  0.37783000  0.83267000  1
  H  H51  1  0.27191000  0.35661000  0.72483000  1
  C  C52  1  0.73104000  0.66630000  0.54076000  1
  C  C53  1  0.81355000  0.68052000  0.63414000  1
  C  C54  1  0.90809000  0.71455000  0.65476000  1
  C  C55  1  0.98772000  0.73015000  0.74192000  1
  C  C56  1  0.97267000  0.70961000  0.80791000  1
  C  C57  1  0.87789000  0.67228000  0.78614000  1
  C  C58  1  0.79824000  0.65884000  0.69972000  1
  C  C59  1  0.08866000  0.77111000  0.76465000  1
  C  C60  1  0.86197000  0.64479000  0.85421000  1
  C  C61  1  0.87106000  0.33183000  0.05793000  1
  C  C62  1  0.95154000  0.32303000  0.13303000  1
  C  C63  1  0.93805000  0.29919000  0.19836000  1
  C  C64  1  0.01408000  0.29669000  0.27418000  1
  C  C65  1  0.10366000  0.31689000  0.28409000  1
  C  C66  1  0.11702000  0.33882000  0.21774000  1
  C  C67  1  0.04104000  0.34233000  0.14236000  1
  C  C68  1  0.99923000  0.27297000  0.34429000  1
  C  C69  1  0.21355000  0.36113000  0.23004000  1
  C  C70  1  0.55031000  0.83975000  0.89943000  1
  C  C71  1  0.63611000  0.83490000  0.97248000  1
  C  C72  1  0.64077000  0.75290000  0.95350000  1
  C  C73  1  0.71922000  0.74697000  0.02283000  1
  C  C74  1  0.79325000  0.82304000  0.11131000  1
  C  C75  1  0.79005000  0.90566000  0.12952000  1
  C  C76  1  0.71152000  0.91166000  0.06007000  1
  C  C77  1  0.72506000  0.65993000  0.00172000  1
  C  C78  1  0.86893000  0.98683000  0.22334000  1
  C  C79  1  0.06016000  0.18609000  0.72690000  1
  C  C80  1  0.13748000  0.17949000  0.80778000  1
  C  C81  1  0.20198000  0.25530000  0.89893000  1
  C  C82  1  0.27883000  0.25339000  0.97479000  1
  C  C83  1  0.29029000  0.17436000  0.96023000  1
  C  C84  1  0.22565000  0.09804000  0.86945000  1
  C  C85  1  0.14976000  0.10100000  0.79324000  1
  C  C86  1  0.34728000  0.33679000  0.07009000  1
  C  C87  1  0.23768000  0.01307000  0.85086000  1
  C  C88  1  0.38295000  0.80920000  0.03475000  1
  C  C89  1  0.46313000  0.81714000  0.12611000  1
  C  C90  1  0.44920000  0.74467000  0.14734000  1
  C  C91  1  0.52169000  0.75151000  0.23388000  1
  C  C92  1  0.61019000  0.83048000  0.29850000  1
  C  C93  1  0.62672000  0.90116000  0.27482000  1
  C  C94  1  0.55251000  0.89479000  0.18939000  1
  C  C95  1  0.50136000  0.67413000  0.25603000  1
  C  C96  1  0.72283000  0.98405000  0.33826000  1
  C  C97  1  0.21551000  0.18558000  0.57998000  1
  C  C98  1  0.30534000  0.18424000  0.65104000  1
  C  C99  1  0.39619000  0.26032000  0.70852000  1
  C  C100  1  0.48062000  0.25489000  0.76878000  1
  C  C101  1  0.47336000  0.17565000  0.77612000  1
  C  C102  1  0.38220000  0.10083000  0.72174000  1
  C  C103  1  0.29853000  0.10414000  0.65703000  1
  C  C104  1  0.57959000  0.33150000  0.82129000  1
  C  C105  1  0.37465000  0.01770000  0.73292000  1
  C  C106  1  0.57536000  0.36196000  0.39625000  1
  C  C107  1  0.64574000  0.34346000  0.46945000  1
  C  C108  1  0.70093000  0.30415000  0.45016000  1
  C  C109  1  0.76279000  0.28353000  0.51852000  1
  C  C110  1  0.77332000  0.30627000  0.60793000  1
  C  C111  1  0.72119000  0.34902000  0.62872000  1
  C  C112  1  0.65552000  0.36516000  0.55832000  1
  C  C113  1  0.81477000  0.23454000  0.49355000  1
  C  C114  1  0.73354000  0.37863000  0.72506000  1
  C  C115  1  0.03068000  0.64225000  0.20958000  1
  C  C116  1  0.12072000  0.65708000  0.29721000  1
  C  C117  1  0.13341000  0.68640000  0.38768000  1
  C  C118  1  0.21661000  0.69639000  0.46811000  1
  C  C119  1  0.28649000  0.67555000  0.45780000  1
  C  C120  1  0.27344000  0.64571000  0.36713000  1
  C  C121  1  0.19115000  0.63776000  0.28743000  1
  C  C122  1  0.23008000  0.72853000  0.56483000  1
  C  C123  1  0.34343000  0.61885000  0.35109000  1
  O  O124  1  0.64660000  0.64366000  0.52669000  1
  O  O125  1  0.75076000  0.67698000  0.48024000  1
  O  O126  1  0.09585000  0.76613000  0.69395000  1
  O  O127  1  0.15873000  0.80803000  0.85450000  1
  O  O128  1  0.94151000  0.66210000  0.93295000  1
  O  O129  1  0.77643000  0.60768000  0.83223000  1
  O  O130  1  0.88368000  0.35195000  0.99734000  1
  O  O131  1  0.79501000  0.32071000  0.05949000  1
  O  O132  1  0.91356000  0.24468000  0.32580000  1
  O  O133  1  0.07609000  0.28389000  0.41962000  1
  O  O134  1  0.27607000  0.35005000  0.29945000  1
  O  O135  1  0.22987000  0.38774000  0.17622000  1
  O  O136  1  0.56103000  0.92039000  0.91367000  1
  O  O137  1  0.47482000  0.76799000  0.83063000  1
  O  O138  1  0.66567000  0.59667000  0.91560000  1
  O  O139  1  0.79163000  0.65697000  0.07391000  1
  O  O140  1  0.93726000  0.97442000  0.28538000  1
  O  O141  1  0.86783000  0.06192000  0.23959000  1
  O  O142  1  0.99993000  0.11532000  0.64475000  1
  O  O143  1  0.06075000  0.26328000  0.74499000  1
  O  O144  1  0.32750000  0.40331000  0.07823000  1
  O  O145  1  0.42150000  0.33532000  0.13617000  1
  O  O146  1  0.29563000  0.00591000  0.92435000  1
  O  O147  1  0.18853000  0.95529000  0.76201000  1
  O  O148  1  0.39038000  0.88169000  0.02684000  1
  O  O149  1  0.31253000  0.73096000  0.97077000  1
  O  O150  1  0.42942000  0.59961000  0.18725000  1
  O  O151  1  0.55986000  0.68970000  0.34428000  1
  O  O152  1  0.78275000  0.99798000  0.42491000  1
  O  O153  1  0.73708000  0.03376000  0.29967000  1
  O  O154  1  0.15197000  0.10949000  0.50364000  1
  O  O155  1  0.20741000  0.25859000  0.59747000  1
  O  O156  1  0.58347000  0.40700000  0.82693000  1
  O  O157  1  0.65153000  0.31246000  0.85508000  1
  O  O158  1  0.45531000  0.02614000  0.80297000  1
  O  O159  1  0.29496000  0.94739000  0.67715000  1
  O  O160  1  0.49875000  0.35461000  0.39695000  1
  O  O161  1  0.59493000  0.38278000  0.34023000  1
  O  O162  1  0.80807000  0.22192000  0.41496000  1
  O  O163  1  0.86285000  0.20940000  0.55501000  1
  O  O164  1  0.79230000  0.36190000  0.78846000  1
  O  O165  1  0.68392000  0.41890000  0.73533000  1
  O  O166  1  0.04185000  0.65220000  0.14336000  1
  O  O167  1  0.95182000  0.62032000  0.20518000  1
  O  O168  1  0.17252000  0.75856000  0.57375000  1
  O  O169  1  0.29920000  0.72253000  0.63113000  1
  O  O170  1  0.42625000  0.63952000  0.42622000  1
  O  O171  1  0.31441000  0.57693000  0.26305000  1
  O  O172  1  0.46208000  0.48979000  0.31289000  1
  O  O173  1  0.80842000  0.50590000  0.38880000  1
  O  O174  1  0.81930000  0.50966000  0.96719000  1
  O  O175  1  0.87953000  0.47192000  0.27103000  1
  O  O176  1  0.32689000  0.85514000  0.81128000  1
  O  O177  1  0.37461000  0.58354000  0.88404000  1
  O  O178  1  0.97016000  0.14758000  0.46242000  1
  O  O179  1  0.28664000  0.39998000  0.78632000  1
