# generated using pymatgen
data_ErH9(C3O2)3
_symmetry_space_group_name_H-M   'P 1'
_cell_length_a   9.08350000
_cell_length_b   9.08350000
_cell_length_c   15.91930000
_cell_angle_alpha   88.41730000
_cell_angle_beta   88.41730000
_cell_angle_gamma   84.77170000
_symmetry_Int_Tables_number   1
_chemical_formula_structural   ErH9(C3O2)3
_chemical_formula_sum   'Er4 H36 C36 O24'
_cell_volume   1307.12136825
_cell_formula_units_Z   4
loop_
 _symmetry_equiv_pos_site_id
 _symmetry_equiv_pos_as_xyz
  1  'x, y, z'
loop_
 _atom_site_type_symbol
 _atom_site_label
 _atom_site_symmetry_multiplicity
 _atom_site_fract_x
 _atom_site_fract_y
 _atom_site_fract_z
 _atom_site_occupancy
  Er  Er1  1  0.72215000  0.52243000  0.98901000  1.0
  Er  Er2  1  0.47757000  0.27785000  0.51099000  1.0
  Er  Er3  1  0.27785000  0.47757000  0.01099000  1.0
  Er  Er4  1  0.52243000  0.72215000  0.48901000  1.0
  H  H1  1  0.93470000  0.25550000  0.22180000  1.0
  H  H2  1  0.15020000  0.44500000  0.26730000  1.0
  H  H3  1  0.18900000  0.28420000  0.23450000  1.0
  H  H4  1  0.06420000  0.18520000  0.35320000  1.0
  H  H5  1  0.01830000  0.48130000  0.41070000  1.0
  H  H6  1  0.97070000  0.34250000  0.46200000  1.0
  H  H7  1  0.79470000  0.30170000  0.36160000  1.0
  H  H8  1  0.87850000  0.55510000  0.26950000  1.0
  H  H9  1  0.75590000  0.45590000  0.24280000  1.0
  H  H10  1  0.74450000  0.06530000  0.27820000  1.0
  H  H11  1  0.55500000  0.84980000  0.23270000  1.0
  H  H12  1  0.71580000  0.81100000  0.26550000  1.0
  H  H13  1  0.81480000  0.93580000  0.14680000  1.0
  H  H14  1  0.51870000  0.98170000  0.08930000  1.0
  H  H15  1  0.65750000  0.02930000  0.03800000  1.0
  H  H16  1  0.69830000  0.20530000  0.13840000  1.0
  H  H17  1  0.44490000  0.12150000  0.23050000  1.0
  H  H18  1  0.54410000  0.24410000  0.25720000  1.0
  H  H19  1  0.06530000  0.74450000  0.77820000  1.0
  H  H20  1  0.84980000  0.55500000  0.73270000  1.0
  H  H21  1  0.81100000  0.71580000  0.76550000  1.0
  H  H22  1  0.93580000  0.81480000  0.64680000  1.0
  H  H23  1  0.98170000  0.51870000  0.58930000  1.0
  H  H24  1  0.02930000  0.65750000  0.53800000  1.0
  H  H25  1  0.20530000  0.69830000  0.63840000  1.0
  H  H26  1  0.12150000  0.44490000  0.73050000  1.0
  H  H27  1  0.24410000  0.54410000  0.75720000  1.0
  H  H28  1  0.25550000  0.93470000  0.72180000  1.0
  H  H29  1  0.44500000  0.15020000  0.76730000  1.0
  H  H30  1  0.28420000  0.18900000  0.73450000  1.0
  H  H31  1  0.18520000  0.06420000  0.85320000  1.0
  H  H32  1  0.48130000  0.01830000  0.91070000  1.0
  H  H33  1  0.34250000  0.97070000  0.96200000  1.0
  H  H34  1  0.30170000  0.79470000  0.86160000  1.0
  H  H35  1  0.55510000  0.87850000  0.76950000  1.0
  H  H36  1  0.45590000  0.75590000  0.74280000  1.0
  C  C1  1  0.96720000  0.35540000  0.22160000  1.0
  C  C2  1  0.11600000  0.34700000  0.26570000  1.0
  C  C3  1  0.09880000  0.28400000  0.35580000  1.0
  C  C4  1  0.98330000  0.38430000  0.40580000  1.0
  C  C5  1  0.83340000  0.39900000  0.36150000  1.0
  C  C6  1  0.85010000  0.45470000  0.27020000  1.0
  C  C7  1  0.97440000  0.41160000  0.13120000  1.0
  C  C8  1  0.24090000  0.27290000  0.40320000  1.0
  C  C9  1  0.72560000  0.50420000  0.40960000  1.0
  C  C10  1  0.64460000  0.03280000  0.27840000  1.0
  C  C11  1  0.65300000  0.88400000  0.23430000  1.0
  C  C12  1  0.71600000  0.90120000  0.14420000  1.0
  C  C13  1  0.61570000  0.01670000  0.09420000  1.0
  C  C14  1  0.60100000  0.16660000  0.13850000  1.0
  C  C15  1  0.54530000  0.14990000  0.22980000  1.0
  C  C16  1  0.58840000  0.02560000  0.36880000  1.0
  C  C17  1  0.72710000  0.75910000  0.09680000  1.0
  C  C18  1  0.49580000  0.27440000  0.09040000  1.0
  C  C19  1  0.03280000  0.64460000  0.77840000  1.0
  C  C20  1  0.88400000  0.65300000  0.73430000  1.0
  C  C21  1  0.90120000  0.71600000  0.64420000  1.0
  C  C22  1  0.01670000  0.61570000  0.59420000  1.0
  C  C23  1  0.16660000  0.60100000  0.63850000  1.0
  C  C24  1  0.14990000  0.54530000  0.72980000  1.0
  C  C25  1  0.02560000  0.58840000  0.86880000  1.0
  C  C26  1  0.75910000  0.72710000  0.59680000  1.0
  C  C27  1  0.27440000  0.49580000  0.59040000  1.0
  C  C28  1  0.35540000  0.96720000  0.72160000  1.0
  C  C29  1  0.34700000  0.11600000  0.76570000  1.0
  C  C30  1  0.28400000  0.09880000  0.85580000  1.0
  C  C31  1  0.38430000  0.98330000  0.90580000  1.0
  C  C32  1  0.39900000  0.83340000  0.86150000  1.0
  C  C33  1  0.45470000  0.85010000  0.77020000  1.0
  C  C34  1  0.41160000  0.97440000  0.63120000  1.0
  C  C35  1  0.27290000  0.24090000  0.90320000  1.0
  C  C36  1  0.50420000  0.72560000  0.90960000  1.0
  O  O1  1  0.85920000  0.40740000  0.08980000  1.0
  O  O2  1  0.09050000  0.46010000  0.10240000  1.0
  O  O3  1  0.27400000  0.16140000  0.45080000  1.0
  O  O4  1  0.32340000  0.37700000  0.39940000  1.0
  O  O5  1  0.61740000  0.45760000  0.45050000  1.0
  O  O6  1  0.74360000  0.63920000  0.40970000  1.0
  O  O7  1  0.59260000  0.14080000  0.41020000  1.0
  O  O8  1  0.53990000  0.90950000  0.39760000  1.0
  O  O9  1  0.83860000  0.72600000  0.04920000  1.0
  O  O10  1  0.62300000  0.67660000  0.10060000  1.0
  O  O11  1  0.54240000  0.38260000  0.04950000  1.0
  O  O12  1  0.36080000  0.25640000  0.09030000  1.0
  O  O13  1  0.14080000  0.59260000  0.91020000  1.0
  O  O14  1  0.90950000  0.53990000  0.89760000  1.0
  O  O15  1  0.72600000  0.83860000  0.54920000  1.0
  O  O16  1  0.67660000  0.62300000  0.60060000  1.0
  O  O17  1  0.38260000  0.54240000  0.54950000  1.0
  O  O18  1  0.25640000  0.36080000  0.59030000  1.0
  O  O19  1  0.40740000  0.85920000  0.58980000  1.0
  O  O20  1  0.46010000  0.09050000  0.60240000  1.0
  O  O21  1  0.16140000  0.27400000  0.95080000  1.0
  O  O22  1  0.37700000  0.32340000  0.89940000  1.0
  O  O23  1  0.45760000  0.61740000  0.95050000  1.0
  O  O24  1  0.63920000  0.74360000  0.90970000  1.0
