# generated using pymatgen
data_MnH14C15N3O4
_symmetry_space_group_name_H-M   'P 1'
_cell_length_a   9.61442000
_cell_length_b   21.89248568
_cell_length_c   21.91275926
_cell_angle_alpha   87.33944924
_cell_angle_beta   77.52379912
_cell_angle_gamma   77.46758554
_symmetry_Int_Tables_number   1
_chemical_formula_structural   MnH14C15N3O4
_chemical_formula_sum   'Mn8 H112 C120 N24 O32'
_cell_volume   4396.06007026
_cell_formula_units_Z   8
loop_
 _symmetry_equiv_pos_site_id
 _symmetry_equiv_pos_as_xyz
  1  'x, y, z'
loop_
 _atom_site_type_symbol
 _atom_site_label
 _atom_site_symmetry_multiplicity
 _atom_site_fract_x
 _atom_site_fract_y
 _atom_site_fract_z
 _atom_site_occupancy
  Mn  Mn0  1  0.45430000  0.56782000  0.47408000  1
  Mn  Mn1  1  0.49824000  0.93230000  0.02603000  1
  Mn  Mn2  1  0.02477000  0.47427000  0.93218000  1
  Mn  Mn3  1  0.42942000  0.02594000  0.56756000  1
  Mn  Mn4  1  0.54569000  0.43218000  0.52592000  1
  Mn  Mn5  1  0.50175000  0.06770000  0.97397000  1
  Mn  Mn6  1  0.97522000  0.52573000  0.06782000  1
  Mn  Mn7  1  0.57058000  0.97406000  0.43244000  1
  H  H8  1  0.10570000  0.64900000  0.74497000  1
  H  H9  1  0.98656000  0.70911000  0.71098000  1
  H  H10  1  0.94695000  0.63260000  0.72449000  1
  H  H11  1  0.84423000  0.68876000  0.64890000  1
  H  H12  1  0.74487000  0.70666000  0.55232000  1
  H  H13  1  0.90883000  0.67693000  0.44958000  1
  H  H14  1  0.13714000  0.63772000  0.38613000  1
  H  H15  1  0.49059000  0.62311000  0.23773000  1
  H  H16  1  0.66185000  0.60150000  0.13265000  1
  H  H17  1  0.94210000  0.46133000  0.20518000  1
  H  H18  1  0.78332000  0.47700000  0.31404000  1
  H  H19  1  0.79504000  0.50406000  0.54262000  1
  H  H20  1  0.79560000  0.52318000  0.46250000  1
  H  H21  1  0.74094000  0.58358000  0.52084000  1
  H  H22  1  0.50269000  0.85082000  0.75412000  1
  H  H23  1  0.40883000  0.79080000  0.78771000  1
  H  H24  1  0.30763000  0.86747000  0.77454000  1
  H  H25  1  0.18514000  0.81104000  0.84952000  1
  H  H26  1  0.00633000  0.79361000  0.94557000  1
  H  H27  1  0.03723000  0.82383000  0.04879000  1
  H  H28  1  0.16165000  0.86291000  0.11239000  1
  H  H29  1  0.35338000  0.87694000  0.26101000  1
  H  H30  1  0.39613000  0.89830000  0.36713000  1
  H  H31  1  0.60907000  0.03917000  0.29636000  1
  H  H32  1  0.57735000  0.02330000  0.18676000  1
  H  H33  1  0.84126000  0.99677000  0.95752000  1
  H  H34  1  0.78222000  0.97743000  0.03761000  1
  H  H35  1  0.84550000  0.91711000  0.97915000  1
  H  H36  1  0.76412000  0.74534000  0.85191000  1
  H  H37  1  0.70165000  0.71291000  0.79169000  1
  H  H38  1  0.58807000  0.72614000  0.86840000  1
  H  H39  1  0.53850000  0.65077000  0.81100000  1
  H  H40  1  0.45269000  0.55480000  0.79418000  1
  H  H41  1  0.58478000  0.45144000  0.82388000  1
  H  H42  1  0.77506000  0.38689000  0.86263000  1
  H  H43  1  0.11532000  0.23842000  0.87688000  1
  H  H44  1  0.26348000  0.13272000  0.89849000  1
  H  H45  1  0.40564000  0.20439000  0.03908000  1
  H  H46  1  0.26449000  0.31374000  0.02330000  1
  H  H47  1  0.29883000  0.54332000  0.99721000  1
  H  H48  1  0.31793000  0.46314000  0.97821000  1
  H  H49  1  0.32543000  0.52121000  0.91767000  1
  H  H50  1  0.35913000  0.75429000  0.64855000  1
  H  H51  1  0.20527000  0.78689000  0.70866000  1
  H  H52  1  0.18032000  0.77321000  0.63211000  1
  H  H53  1  0.99876000  0.84884000  0.68913000  1
  H  H54  1  0.80183000  0.94466000  0.70655000  1
  H  H55  1  0.86035000  0.04802000  0.67636000  1
  H  H56  1  0.02434000  0.11241000  0.63729000  1
  H  H57  1  0.22997000  0.26223000  0.62273000  1
  H  H58  1  0.29645000  0.36765000  0.60099000  1
  H  H59  1  0.64830000  0.29516000  0.46092000  1
  H  H60  1  0.59761000  0.18605000  0.47674000  1
  H  H61  1  0.83749000  0.95795000  0.50378000  1
  H  H62  1  0.75855000  0.03812000  0.52297000  1
  H  H63  1  0.76245000  0.97979000  0.58332000  1
  H  H64  1  0.89429000  0.35100000  0.25503000  1
  H  H65  1  0.01344000  0.29089000  0.28902000  1
  H  H66  1  0.05304000  0.36740000  0.27552000  1
  H  H67  1  0.15576000  0.31124000  0.35111000  1
  H  H68  1  0.25512000  0.29334000  0.44768000  1
  H  H69  1  0.09115000  0.32307000  0.55043000  1
  H  H70  1  0.86285000  0.36228000  0.61388000  1
  H  H71  1  0.50941000  0.37689000  0.76227000  1
  H  H72  1  0.33814000  0.39850000  0.86736000  1
  H  H73  1  0.05789000  0.53868000  0.79482000  1
  H  H74  1  0.21667000  0.52300000  0.68596000  1
  H  H75  1  0.20495000  0.49594000  0.45738000  1
  H  H76  1  0.20440000  0.47682000  0.53750000  1
  H  H77  1  0.25904000  0.41642000  0.47917000  1
  H  H78  1  0.49729000  0.14918000  0.24589000  1
  H  H79  1  0.59116000  0.20920000  0.21230000  1
  H  H80  1  0.69236000  0.13253000  0.22546000  1
  H  H81  1  0.81486000  0.18896000  0.15048000  1
  H  H82  1  0.99366000  0.20639000  0.05443000  1
  H  H83  1  0.96277000  0.17617000  0.95121000  1
  H  H84  1  0.83833000  0.13710000  0.88761000  1
  H  H85  1  0.64661000  0.12306000  0.73899000  1
  H  H86  1  0.60387000  0.10170000  0.63287000  1
  H  H87  1  0.39092000  0.96083000  0.70364000  1
  H  H88  1  0.42263000  0.97670000  0.81325000  1
  H  H89  1  0.15873000  0.00324000  0.04248000  1
  H  H90  1  0.21777000  0.02258000  0.96239000  1
  H  H91  1  0.15449000  0.08290000  0.02085000  1
  H  H92  1  0.23587000  0.25466000  0.14809000  1
  H  H93  1  0.29834000  0.28709000  0.20831000  1
  H  H94  1  0.41190000  0.27387000  0.13161000  1
  H  H95  1  0.46148000  0.34924000  0.18901000  1
  H  H96  1  0.54730000  0.44520000  0.20582000  1
  H  H97  1  0.41522000  0.54856000  0.17612000  1
  H  H98  1  0.22492000  0.61312000  0.13737000  1
  H  H99  1  0.88466000  0.76159000  0.12312000  1
  H  H100  1  0.73651000  0.86728000  0.10152000  1
  H  H101  1  0.59435000  0.79561000  0.96092000  1
  H  H102  1  0.73551000  0.68626000  0.97670000  1
  H  H103  1  0.70117000  0.45668000  0.00279000  1
  H  H104  1  0.68205000  0.53687000  0.02179000  1
  H  H105  1  0.67456000  0.47880000  0.08233000  1
  H  H106  1  0.64086000  0.24571000  0.35145000  1
  H  H107  1  0.79471000  0.21312000  0.29134000  1
  H  H108  1  0.81965000  0.22680000  0.36790000  1
  H  H109  1  0.00122000  0.15117000  0.31087000  1
  H  H110  1  0.19816000  0.05535000  0.29345000  1
  H  H111  1  0.13963000  0.95199000  0.32364000  1
  H  H112  1  0.97565000  0.88759000  0.36271000  1
  H  H113  1  0.77001000  0.73778000  0.37727000  1
  H  H114  1  0.70353000  0.63236000  0.39901000  1
  H  H115  1  0.35169000  0.70484000  0.53909000  1
  H  H116  1  0.40238000  0.81395000  0.52326000  1
  H  H117  1  0.16249000  0.04206000  0.49622000  1
  H  H118  1  0.24144000  0.96188000  0.47703000  1
  H  H119  1  0.23753000  0.02022000  0.41668000  1
  C  C120  1  0.03490000  0.65867000  0.71112000  1
  C  C121  1  0.06230000  0.64782000  0.60101000  1
  C  C122  1  0.91596000  0.67499000  0.60400000  1
  C  C123  1  0.85915000  0.68508000  0.54936000  1
  C  C124  1  0.95014000  0.66815000  0.49222000  1
  C  C125  1  0.09938000  0.63949000  0.48760000  1
  C  C126  1  0.15866000  0.62737000  0.54256000  1
  C  C127  1  0.18729000  0.62549000  0.42653000  1
  C  C128  1  0.53207000  0.56381000  0.34687000  1
  C  C129  1  0.62529000  0.55180000  0.28380000  1
  C  C130  1  0.58992000  0.58700000  0.23207000  1
  C  C131  1  0.68381000  0.57515000  0.17413000  1
  C  C132  1  0.84127000  0.49668000  0.21485000  1
  C  C133  1  0.75428000  0.50556000  0.27476000  1
  C  C134  1  0.73747000  0.53524000  0.51093000  1
  C  C135  1  0.40796000  0.84118000  0.78789000  1
  C  C136  1  0.31467000  0.85206000  0.89795000  1
  C  C137  1  0.19813000  0.82498000  0.89456000  1
  C  C138  1  0.09621000  0.81517000  0.94893000  1
  C  C139  1  0.11268000  0.83234000  0.00626000  1
  C  C140  1  0.22897000  0.86088000  0.01125000  1
  C  C141  1  0.33169000  0.87276000  0.95661000  1
  C  C142  1  0.24123000  0.87490000  0.07256000  1
  C  C143  1  0.44528000  0.93646000  0.15307000  1
  C  C144  1  0.46293000  0.94857000  0.21627000  1
  C  C145  1  0.41047000  0.91311000  0.26760000  1
  C  C146  1  0.43379000  0.92482000  0.32589000  1
  C  C147  1  0.55383000  0.00365000  0.28612000  1
  C  C148  1  0.53673000  0.99479000  0.22587000  1
  C  C149  1  0.78393000  0.96537000  0.98915000  1
  C  C150  1  0.70129000  0.71220000  0.84200000  1
  C  C151  1  0.71500000  0.60194000  0.85203000  1
  C  C152  1  0.59523000  0.60560000  0.82498000  1
  C  C153  1  0.54648000  0.55127000  0.81532000  1
  C  C154  1  0.61952000  0.49374000  0.83225000  1
  C  C155  1  0.74126000  0.48841000  0.86052000  1
  C  C156  1  0.78967000  0.54314000  0.87256000  1
  C  C157  1  0.81461000  0.42706000  0.87452000  1
  C  C158  1  0.09845000  0.34705000  0.93635000  1
  C  C159  1  0.17950000  0.28390000  0.94850000  1
  C  C160  1  0.17850000  0.23229000  0.91316000  1
  C  C161  1  0.25978000  0.17409000  0.92500000  1
  C  C162  1  0.33999000  0.21439000  0.00366000  1
  C  C163  1  0.26278000  0.27458000  0.99474000  1
  C  C164  1  0.27272000  0.51163000  0.96582000  1
  C  C165  1  0.25373000  0.78737000  0.65836000  1
  C  C166  1  0.16774000  0.89755000  0.64793000  1
  C  C167  1  0.02491000  0.89394000  0.67517000  1
  C  C168  1  0.91277000  0.94821000  0.68505000  1
  C  C169  1  0.94516000  0.00573000  0.66790000  1
  C  C170  1  0.08932000  0.01103000  0.63928000  1
  C  C171  1  0.20404000  0.95640000  0.62724000  1
  C  C172  1  0.11542000  0.07237000  0.62516000  1
  C  C173  1  0.37932000  0.15322000  0.56348000  1
  C  C174  1  0.40976000  0.21638000  0.55141000  1
  C  C175  1  0.32343000  0.26810000  0.58665000  1
  C  C176  1  0.35975000  0.32614000  0.57474000  1
  C  C177  1  0.55734000  0.28541000  0.49630000  1
  C  C178  1  0.52975000  0.22541000  0.50523000  1
  C  C179  1  0.74877000  0.98958000  0.53505000  1
  C  C180  1  0.96507000  0.34134000  0.28889000  1
  C  C181  1  0.93769000  0.35218000  0.39899000  1
  C  C182  1  0.08402000  0.32502000  0.39600000  1
  C  C183  1  0.14083000  0.31493000  0.45064000  1
  C  C184  1  0.04984000  0.33186000  0.50778000  1
  C  C185  1  0.90060000  0.36051000  0.51241000  1
  C  C186  1  0.84133000  0.37263000  0.45745000  1
  C  C187  1  0.81269000  0.37452000  0.57347000  1
  C  C188  1  0.46790000  0.43620000  0.65314000  1
  C  C189  1  0.37469000  0.44820000  0.71621000  1
  C  C190  1  0.41007000  0.41300000  0.76793000  1
  C  C191  1  0.31619000  0.42485000  0.82587000  1
  C  C192  1  0.15873000  0.50332000  0.78515000  1
  C  C193  1  0.24571000  0.49444000  0.72524000  1
  C  C194  1  0.26253000  0.46476000  0.48907000  1
  C  C195  1  0.59202000  0.15882000  0.21212000  1
  C  C196  1  0.68533000  0.14794000  0.10205000  1
  C  C197  1  0.80187000  0.17502000  0.10544000  1
  C  C198  1  0.90379000  0.18483000  0.05107000  1
  C  C199  1  0.88730000  0.16767000  0.99374000  1
  C  C200  1  0.77102000  0.13913000  0.98875000  1
  C  C201  1  0.66829000  0.12725000  0.04339000  1
  C  C202  1  0.75876000  0.12510000  0.92744000  1
  C  C203  1  0.55472000  0.06354000  0.84693000  1
  C  C204  1  0.53706000  0.05143000  0.78373000  1
  C  C205  1  0.58951000  0.08689000  0.73241000  1
  C  C206  1  0.56619000  0.07519000  0.67412000  1
  C  C207  1  0.44615000  0.99636000  0.71388000  1
  C  C208  1  0.46326000  0.00521000  0.77413000  1
  C  C209  1  0.21606000  0.03463000  0.01086000  1
  C  C210  1  0.29870000  0.28780000  0.15800000  1
  C  C211  1  0.28498000  0.39807000  0.14797000  1
  C  C212  1  0.40475000  0.39441000  0.17502000  1
  C  C213  1  0.45350000  0.44874000  0.18468000  1
  C  C214  1  0.38046000  0.50627000  0.16775000  1
  C  C215  1  0.25871000  0.51160000  0.13949000  1
  C  C216  1  0.21032000  0.45686000  0.12744000  1
  C  C217  1  0.18538000  0.57294000  0.12549000  1
  C  C218  1  0.90153000  0.65296000  0.06366000  1
  C  C219  1  0.82049000  0.71610000  0.05150000  1
  C  C220  1  0.82149000  0.76771000  0.08685000  1
  C  C221  1  0.74022000  0.82591000  0.07500000  1
  C  C222  1  0.65999000  0.78562000  0.99634000  1
  C  C223  1  0.73720000  0.72543000  0.00527000  1
  C  C224  1  0.72727000  0.48837000  0.03418000  1
  C  C225  1  0.74626000  0.21263000  0.34164000  1
  C  C226  1  0.83225000  0.10245000  0.35207000  1
  C  C227  1  0.97508000  0.10606000  0.32483000  1
  C  C228  1  0.08722000  0.05179000  0.31495000  1
  C  C229  1  0.05482000  0.99427000  0.33211000  1
  C  C230  1  0.91068000  0.98897000  0.36072000  1
  C  C231  1  0.79595000  0.04360000  0.37276000  1
  C  C232  1  0.88457000  0.92763000  0.37484000  1
  C  C233  1  0.62066000  0.84678000  0.43653000  1
  C  C234  1  0.59022000  0.78363000  0.44859000  1
  C  C235  1  0.67655000  0.73191000  0.41335000  1
  C  C236  1  0.64023000  0.67387000  0.42526000  1
  C  C237  1  0.44266000  0.71459000  0.50370000  1
  C  C238  1  0.47023000  0.77460000  0.49477000  1
  C  C239  1  0.25122000  0.01042000  0.46495000  1
  N  N240  1  0.32695000  0.59957000  0.41405000  1
  N  N241  1  0.39440000  0.59234000  0.35125000  1
  N  N242  1  0.80800000  0.53082000  0.16507000  1
  N  N243  1  0.34296000  0.90041000  0.08560000  1
  N  N244  1  0.34052000  0.90772000  0.14841000  1
  N  N245  1  0.50430000  0.96929000  0.33556000  1
  N  N246  1  0.92918000  0.41427000  0.90013000  1
  N  N247  1  0.98922000  0.35143000  0.90760000  1
  N  N248  1  0.33969000  0.16470000  0.96949000  1
  N  N249  1  0.24219000  0.08542000  0.59937000  1
  N  N250  1  0.24628000  0.14842000  0.59201000  1
  N  N251  1  0.47482000  0.33523000  0.53043000  1
  N  N252  1  0.67303000  0.40044000  0.58595000  1
  N  N253  1  0.60560000  0.40766000  0.64875000  1
  N  N254  1  0.19199000  0.46919000  0.83493000  1
  N  N255  1  0.65703000  0.09959000  0.91440000  1
  N  N256  1  0.65947000  0.09229000  0.85159000  1
  N  N257  1  0.49569000  0.03071000  0.66444000  1
  N  N258  1  0.07081000  0.58573000  0.09987000  1
  N  N259  1  0.01078000  0.64857000  0.09240000  1
  N  N260  1  0.66031000  0.83530000  0.03051000  1
  N  N261  1  0.75780000  0.91458000  0.40063000  1
  N  N262  1  0.75371000  0.85158000  0.40799000  1
  N  N263  1  0.52517000  0.66477000  0.46957000  1
  O  O264  1  0.12688000  0.63866000  0.65187000  1
  O  O265  1  0.29473000  0.60007000  0.54259000  1
  O  O266  1  0.59295000  0.54603000  0.39462000  1
  O  O267  1  0.59074000  0.52721000  0.52163000  1
  O  O268  1  0.42162000  0.86092000  0.84734000  1
  O  O269  1  0.44048000  0.90005000  0.95714000  1
  O  O270  1  0.53618000  0.95430000  0.10558000  1
  O  O271  1  0.64009000  0.97299000  0.97831000  1
  O  O272  1  0.77233000  0.65229000  0.86117000  1
  O  O273  1  0.89847000  0.54277000  0.90007000  1
  O  O274  1  0.14172000  0.39485000  0.95418000  1
  O  O275  1  0.11822000  0.52287000  0.97287000  1
  O  O276  1  0.28424000  0.84727000  0.63891000  1
  O  O277  1  0.33945000  0.95707000  0.59981000  1
  O  O278  1  0.48785000  0.10564000  0.54566000  1
  O  O279  1  0.61285000  0.97847000  0.52718000  1
  O  O280  1  0.87309000  0.36135000  0.34814000  1
  O  O281  1  0.70525000  0.39994000  0.45742000  1
  O  O282  1  0.40703000  0.45398000  0.60538000  1
  O  O283  1  0.40925000  0.47280000  0.47837000  1
  O  O284  1  0.57838000  0.13908000  0.15266000  1
  O  O285  1  0.55950000  0.09996000  0.04286000  1
  O  O286  1  0.46381000  0.04570000  0.89442000  1
  O  O287  1  0.35990000  0.02701000  0.02170000  1
  O  O288  1  0.22765000  0.34772000  0.13883000  1
  O  O289  1  0.10152000  0.45723000  0.09993000  1
  O  O290  1  0.85827000  0.60516000  0.04582000  1
  O  O291  1  0.88177000  0.47713000  0.02713000  1
  O  O292  1  0.71576000  0.15273000  0.36109000  1
  O  O293  1  0.66053000  0.04293000  0.40020000  1
  O  O294  1  0.51214000  0.89436000  0.45434000  1
  O  O295  1  0.38715000  0.02153000  0.47282000  1
