# generated using pymatgen
data_Sm2ZnH12C32(NO4)4
_symmetry_space_group_name_H-M   'P 1'
_cell_length_a   12.74355000
_cell_length_b   13.38854000
_cell_length_c   14.98569017
_cell_angle_alpha   116.47394729
_cell_angle_beta   114.71941639
_cell_angle_gamma   90.24393000
_symmetry_Int_Tables_number   1
_chemical_formula_structural   Sm2ZnH12C32(NO4)4
_chemical_formula_sum   'Sm4 Zn2 H24 C64 N8 O32'
_cell_volume   2021.01302061
_cell_formula_units_Z   2
loop_
 _symmetry_equiv_pos_site_id
 _symmetry_equiv_pos_as_xyz
  1  'x, y, z'
loop_
 _atom_site_type_symbol
 _atom_site_label
 _atom_site_symmetry_multiplicity
 _atom_site_fract_x
 _atom_site_fract_y
 _atom_site_fract_z
 _atom_site_occupancy
  Sm  Sm1  1  0.76956000  0.72490000  0.31542000  1.0
  Sm  Sm2  1  0.45835000  0.27464000  0.68412000  1.0
  Sm  Sm3  1  0.95502000  0.40724000  0.68268000  1.0
  Sm  Sm4  1  0.27137000  0.59290000  0.31702000  1.0
  Zn  Zn1  1  0.14141000  0.50035000  0.00023000  1.0
  Zn  Zn2  1  0.64504000  0.49990000  0.99994000  1.0
  H  H1  1  0.06898000  0.17965000  0.98641000  1.0
  H  H2  1  0.93306000  0.08238000  0.63559000  1.0
  H  H3  1  0.96332000  0.82183000  0.73309000  1.0
  H  H4  1  0.36674000  0.59800000  0.03184000  1.0
  H  H5  1  0.51435000  0.95962000  0.19811000  1.0
  H  H6  1  0.19953000  0.79766000  0.87436000  1.0
  H  H7  1  0.08179000  0.82094000  0.01483000  1.0
  H  H8  1  0.30056000  0.91934000  0.36509000  1.0
  H  H9  1  0.23118000  0.17896000  0.26678000  1.0
  H  H10  1  0.33348000  0.40115000  0.96668000  1.0
  H  H11  1  0.31571000  0.03974000  0.80030000  1.0
  H  H12  1  0.32526000  0.20225000  0.12612000  1.0
  H  H13  1  0.58217000  0.19369000  0.01462000  1.0
  H  H14  1  0.80088000  0.44675000  0.36476000  1.0
  H  H15  1  0.72995000  0.08884000  0.26717000  1.0
  H  H16  1  0.83447000  0.56552000  0.96569000  1.0
  H  H17  1  0.81556000  0.76077000  0.79917000  1.0
  H  H18  1  0.82583000  0.92337000  0.12526000  1.0
  H  H19  1  0.56980000  0.80605000  0.98675000  1.0
  H  H20  1  0.43586000  0.55290000  0.63566000  1.0
  H  H21  1  0.46269000  0.91109000  0.73421000  1.0
  H  H22  1  0.86870000  0.43492000  0.03364000  1.0
  H  H23  1  0.01607000  0.23985000  0.19915000  1.0
  H  H24  1  0.70086000  0.07712000  0.87492000  1.0
  C  C1  1  0.17347000  0.58399000  0.85149000  1.0
  C  C2  1  0.03295000  0.11459000  0.89824000  1.0
  C  C3  1  0.94128000  0.94319000  0.67121000  1.0
  C  C4  1  0.00026000  0.14455000  0.81394000  1.0
  C  C5  1  0.95624000  0.05904000  0.70109000  1.0
  C  C6  1  0.01631000  0.26608000  0.83938000  1.0
  C  C7  1  0.97320000  0.91187000  0.75501000  1.0
  C  C8  1  0.02138000  0.99801000  0.86878000  1.0
  C  C9  1  0.89141000  0.85918000  0.54841000  1.0
  C  C10  1  0.55302000  0.76390000  0.20973000  1.0
  C  C11  1  0.36185000  0.67945000  0.03265000  1.0
  C  C12  1  0.27022000  0.68691000  0.94415000  1.0
  C  C13  1  0.45095000  0.77690000  0.12277000  1.0
  C  C14  1  0.44655000  0.88308000  0.12680000  1.0
  C  C15  1  0.26931000  0.79140000  0.94368000  1.0
  C  C16  1  0.35717000  0.88987000  0.03630000  1.0
  C  C17  1  0.32084000  0.41572000  0.14758000  1.0
  C  C18  1  0.13467000  0.88619000  0.10272000  1.0
  C  C19  1  0.27252000  0.05777000  0.32903000  1.0
  C  C20  1  0.18726000  0.85620000  0.18678000  1.0
  C  C21  1  0.25724000  0.94190000  0.29927000  1.0
  C  C22  1  0.17814000  0.73432000  0.16045000  1.0
  C  C23  1  0.21933000  0.08902000  0.24539000  1.0
  C  C24  1  0.15270000  0.00272000  0.13187000  1.0
  C  C25  1  0.34781000  0.14166000  0.45149000  1.0
  C  C26  1  0.34406000  0.23581000  0.78877000  1.0
  C  C27  1  0.32804000  0.31966000  0.96583000  1.0
  C  C28  1  0.32515000  0.31245000  0.05503000  1.0
  C  C29  1  0.32715000  0.22233000  0.87538000  1.0
  C  C30  1  0.31903000  0.11630000  0.87178000  1.0
  C  C31  1  0.32532000  0.20827000  0.05613000  1.0
  C  C32  1  0.32060000  0.10983000  0.96314000  1.0
  C  C33  1  0.82219000  0.73265000  0.14763000  1.0
  C  C34  1  0.63481000  0.21664000  0.10259000  1.0
  C  C35  1  0.77219000  0.27207000  0.32893000  1.0
  C  C36  1  0.68760000  0.33091000  0.18667000  1.0
  C  C37  1  0.75753000  0.35810000  0.29922000  1.0
  C  C38  1  0.67861000  0.42663000  0.16061000  1.0
  C  C39  1  0.71858000  0.15706000  0.24544000  1.0
  C  C40  1  0.65237000  0.12944000  0.13192000  1.0
  C  C41  1  0.84690000  0.30992000  0.45101000  1.0
  C  C42  1  0.84241000  0.55204000  0.78743000  1.0
  C  C43  1  0.82878000  0.64632000  0.96531000  1.0
  C  C44  1  0.82622000  0.74272000  0.05460000  1.0
  C  C45  1  0.82740000  0.65311000  0.87456000  1.0
  C  C46  1  0.81954000  0.75547000  0.87083000  1.0
  C  C47  1  0.82595000  0.84768000  0.05519000  1.0
  C  C48  1  0.82120000  0.85327000  0.96219000  1.0
  C  C49  1  0.67585000  0.26740000  0.85206000  1.0
  C  C50  1  0.53380000  0.78307000  0.89861000  1.0
  C  C51  1  0.44237000  0.72758000  0.67165000  1.0
  C  C52  1  0.50208000  0.66885000  0.81428000  1.0
  C  C53  1  0.45827000  0.64157000  0.70140000  1.0
  C  C54  1  0.51946000  0.57318000  0.84023000  1.0
  C  C55  1  0.47329000  0.84261000  0.75555000  1.0
  C  C56  1  0.52155000  0.87024000  0.86927000  1.0
  C  C57  1  0.39311000  0.68956000  0.54913000  1.0
  C  C58  1  0.05415000  0.44789000  0.21134000  1.0
  C  C59  1  0.86351000  0.35407000  0.03402000  1.0
  C  C60  1  0.77208000  0.25765000  0.94507000  1.0
  C  C61  1  0.95214000  0.34724000  0.12435000  1.0
  C  C62  1  0.94804000  0.24480000  0.12798000  1.0
  C  C63  1  0.77098000  0.15268000  0.94455000  1.0
  C  C64  1  0.85877000  0.14699000  0.03702000  1.0
  N  N1  1  0.06011000  0.96004000  0.94909000  1.0
  N  N2  1  0.36285000  0.00070000  0.04693000  1.0
  N  N3  1  0.11035000  0.04053000  0.05145000  1.0
  N  N4  1  0.31579000  0.99921000  0.95290000  1.0
  N  N5  1  0.61043000  0.01096000  0.05182000  1.0
  N  N6  1  0.81660000  0.95389000  0.95230000  1.0
  N  N7  1  0.55946000  0.98869000  0.94942000  1.0
  N  N8  1  0.86405000  0.04629000  0.04670000  1.0
  O  O1  1  0.11021000  0.57596000  0.75666000  1.0
  O  O2  1  0.15232000  0.49890000  0.86783000  1.0
  O  O3  1  0.84546000  0.75309000  0.50653000  1.0
  O  O4  1  0.89317000  0.89800000  0.48449000  1.0
  O  O5  1  0.05699000  0.34545000  0.94264000  1.0
  O  O6  1  0.99077000  0.28367000  0.75690000  1.0
  O  O7  1  0.63943000  0.85029000  0.28984000  1.0
  O  O8  1  0.55705000  0.66315000  0.19861000  1.0
  O  O9  1  0.35192000  0.42454000  0.24288000  1.0
  O  O10  1  0.28389000  0.50037000  0.13071000  1.0
  O  O11  1  0.34370000  0.24764000  0.49429000  1.0
  O  O12  1  0.41520000  0.10297000  0.51417000  1.0
  O  O13  1  0.11444000  0.65538000  0.05726000  1.0
  O  O14  1  0.23662000  0.71588000  0.24181000  1.0
  O  O15  1  0.34986000  0.14940000  0.70790000  1.0
  O  O16  1  0.36163000  0.33686000  0.80106000  1.0
  O  O17  1  0.85168000  0.81965000  0.24222000  1.0
  O  O18  1  0.78669000  0.63094000  0.13181000  1.0
  O  O19  1  0.84194000  0.24537000  0.49242000  1.0
  O  O20  1  0.91450000  0.41156000  0.51481000  1.0
  O  O21  1  0.61742000  0.40196000  0.05709000  1.0
  O  O22  1  0.73455000  0.52711000  0.24249000  1.0
  O  O23  1  0.84893000  0.55684000  0.70641000  1.0
  O  O24  1  0.85727000  0.46288000  0.79924000  1.0
  O  O25  1  0.61148000  0.18016000  0.75770000  1.0
  O  O26  1  0.65603000  0.36886000  0.86754000  1.0
  O  O27  1  0.34649000  0.75404000  0.50820000  1.0
  O  O28  1  0.39598000  0.58772000  0.48464000  1.0
  O  O29  1  0.56067000  0.59770000  0.94376000  1.0
  O  O30  1  0.49477000  0.47304000  0.75821000  1.0
  O  O31  1  0.13956000  0.44313000  0.29278000  1.0
  O  O32  1  0.05927000  0.53670000  0.19906000  1.0
