# generated using pymatgen
data_CuH2(C3O2)2
_symmetry_space_group_name_H-M   'P 1'
_cell_length_a   18.69300732
_cell_length_b   18.69259309
_cell_length_c   18.69285330
_cell_angle_alpha   119.99988068
_cell_angle_beta   90.00034253
_cell_angle_gamma   120.00050180
_symmetry_Int_Tables_number   1
_chemical_formula_structural   CuH2(C3O2)2
_chemical_formula_sum   'Cu12 H24 C72 O48'
_cell_volume   4618.54861106
_cell_formula_units_Z   12
loop_
 _symmetry_equiv_pos_site_id
 _symmetry_equiv_pos_as_xyz
  1  'x, y, z'
loop_
 _atom_site_type_symbol
 _atom_site_label
 _atom_site_symmetry_multiplicity
 _atom_site_fract_x
 _atom_site_fract_y
 _atom_site_fract_z
 _atom_site_occupancy
  Cu  Cu1  1  0.49999935  0.99999740  0.06564825  1.0
  Cu  Cu2  1  0.93436032  0.99999994  0.50000240  1.0
  Cu  Cu3  1  0.49999918  0.99999998  0.93439076  1.0
  Cu  Cu4  1  0.06565831  0.99999890  0.49999803  1.0
  Cu  Cu5  1  0.49999961  0.43434845  0.50000228  1.0
  Cu  Cu6  1  0.06565915  0.56565989  0.06565981  1.0
  Cu  Cu7  1  0.49999977  0.56561616  0.49999866  1.0
  Cu  Cu8  1  0.93436126  0.43436033  0.93436200  1.0
  Cu  Cu9  1  0.93434150  0.43434023  0.50000015  1.0
  Cu  Cu10  1  0.50000172  0.43436143  0.93436050  1.0
  Cu  Cu11  1  0.06564123  0.56564123  0.50000081  1.0
  Cu  Cu12  1  0.49999805  0.56565949  0.06566172  1.0
  H  H1  1  0.76734847  0.23483398  0.00217056  1.0
  H  H2  1  0.99782132  0.76516858  0.23265435  1.0
  H  H3  1  0.46748563  0.23482384  0.23265974  1.0
  H  H4  1  0.76735021  0.76517993  0.53251462  1.0
  H  H5  1  0.46748510  0.46531215  0.23264811  1.0
  H  H6  1  0.76734392  0.53468808  0.00217378  1.0
  H  H7  1  0.76734076  0.53468222  0.53251451  1.0
  H  H8  1  0.99782439  0.46530989  0.23265281  1.0
  H  H9  1  0.99782394  0.76517250  0.53251450  1.0
  H  H10  1  0.76734478  0.76517054  0.23265611  1.0
  H  H11  1  0.76734112  0.23482656  0.23265589  1.0
  H  H12  1  0.46748527  0.23483506  0.00217144  1.0
  H  H13  1  0.23265461  0.46531062  0.99782517  1.0
  H  H14  1  0.00217529  0.53468990  0.76734513  1.0
  H  H15  1  0.53251442  0.53468522  0.76734220  1.0
  H  H16  1  0.23265356  0.46531878  0.46748526  1.0
  H  H17  1  0.53251485  0.76517349  0.76734325  1.0
  H  H18  1  0.23265596  0.76517032  0.99782603  1.0
  H  H19  1  0.23265466  0.23482706  0.46748565  1.0
  H  H20  1  0.00217537  0.23482976  0.76734426  1.0
  H  H21  1  0.00217540  0.23482933  0.46748539  1.0
  H  H22  1  0.23265377  0.76516845  0.76733634  1.0
  H  H23  1  0.23265300  0.23482914  0.76734375  1.0
  H  H24  1  0.53251448  0.76517115  0.99782559  1.0
  C  C1  1  0.80141143  0.26750936  0.06889128  1.0
  C  C2  1  0.93109740  0.73249925  0.19859746  1.0
  C  C3  1  0.46609828  0.26749835  0.19860136  1.0
  C  C4  1  0.80141035  0.73251738  0.53390221  1.0
  C  C5  1  0.46609796  0.39720184  0.19858273  1.0
  C  C6  1  0.80140012  0.60279959  0.06889801  1.0
  C  C7  1  0.80140357  0.60279993  0.53390174  1.0
  C  C8  1  0.93109810  0.39719625  0.19859721  1.0
  C  C9  1  0.93109780  0.73250116  0.53390201  1.0
  C  C10  1  0.80139904  0.73249792  0.19859650  1.0
  C  C11  1  0.80140424  0.26750236  0.19860293  1.0
  C  C12  1  0.46609821  0.26751428  0.06889220  1.0
  C  C13  1  0.19859810  0.39719725  0.93109909  1.0
  C  C14  1  0.06890151  0.60280336  0.80139486  1.0
  C  C15  1  0.53390201  0.60280216  0.80139847  1.0
  C  C16  1  0.19858856  0.39720726  0.46609859  1.0
  C  C17  1  0.53390183  0.73250475  0.80139189  1.0
  C  C18  1  0.19859795  0.73250013  0.93109995  1.0
  C  C19  1  0.19859719  0.26749717  0.46609754  1.0
  C  C20  1  0.06890098  0.26749869  0.80140089  1.0
  C  C21  1  0.06890226  0.26750555  0.46609784  1.0
  C  C22  1  0.19858538  0.73248699  0.80137834  1.0
  C  C23  1  0.19859597  0.26749546  0.80139706  1.0
  C  C24  1  0.53390200  0.73249957  0.93109687  1.0
  C  C25  1  0.75818964  0.22460634  0.11229182  1.0
  C  C26  1  0.66348363  0.13766281  0.06885945  1.0
  C  C27  1  0.88771043  0.77542470  0.24183917  1.0
  C  C28  1  0.93118914  0.86235889  0.33654283  1.0
  C  C29  1  0.46641678  0.22461401  0.11229731  1.0
  C  C30  1  0.47417894  0.13765938  0.06886139  1.0
  C  C31  1  0.88771591  0.77543303  0.53358535  1.0
  C  C32  1  0.93119265  0.86236281  0.52581643  1.0
  C  C33  1  0.46641720  0.35412310  0.24180815  1.0
  C  C34  1  0.47417959  0.40533174  0.33652194  1.0
  C  C35  1  0.88770882  0.64587313  0.11228733  1.0
  C  C36  1  0.93118642  0.59464051  0.06882489  1.0
  C  C37  1  0.75818390  0.64589277  0.53358319  1.0
  C  C38  1  0.66347928  0.59463424  0.52582002  1.0
  C  C39  1  0.88771494  0.35412897  0.11228711  1.0
  C  C40  1  0.93118979  0.40537378  0.06882488  1.0
  C  C41  1  0.88771073  0.64587073  0.53358478  1.0
  C  C42  1  0.93117005  0.59462760  0.52581609  1.0
  C  C43  1  0.75816062  0.64587011  0.11228446  1.0
  C  C44  1  0.66345271  0.59463537  0.06881978  1.0
  C  C45  1  0.88771230  0.35412754  0.24183938  1.0
  C  C46  1  0.93117100  0.40535463  0.33654167  1.0
  C  C47  1  0.46641491  0.35413371  0.11228205  1.0
  C  C48  1  0.47418389  0.40536942  0.06881637  1.0
  C  C49  1  0.24183608  0.35412470  0.88771083  1.0
  C  C50  1  0.33654630  0.40536654  0.93118237  1.0
  C  C51  1  0.11228190  0.64586641  0.75814897  1.0
  C  C52  1  0.06881257  0.59462858  0.66345620  1.0
  C  C53  1  0.53358520  0.64587476  0.88770722  1.0
  C  C54  1  0.52581600  0.59463404  0.93118467  1.0
  C  C55  1  0.11228418  0.35413502  0.46641567  1.0
  C  C56  1  0.06881360  0.40535767  0.47418403  1.0
  C  C57  1  0.53358239  0.64589196  0.75818075  1.0
  C  C58  1  0.52581958  0.59463258  0.66347516  1.0
  C  C59  1  0.11229122  0.64587766  0.88770802  1.0
  C  C60  1  0.06882570  0.59464192  0.93118892  1.0
  C  C61  1  0.24181603  0.35412903  0.46641726  1.0
  C  C62  1  0.33652004  0.40533690  0.47417978  1.0
  C  C63  1  0.11228815  0.35412422  0.88771049  1.0
  C  C64  1  0.06882650  0.40537277  0.93118880  1.0
  C  C65  1  0.11228831  0.22457675  0.46641381  1.0
  C  C66  1  0.06883069  0.13763819  0.47418330  1.0
  C  C67  1  0.24181059  0.77539278  0.88768408  1.0
  C  C68  1  0.33651577  0.86233672  0.93119586  1.0
  C  C69  1  0.11228283  0.22457257  0.75815846  1.0
  C  C70  1  0.06883170  0.13764032  0.66345672  1.0
  C  C71  1  0.53358183  0.77539467  0.88768567  1.0
  C  C72  1  0.52582012  0.86233979  0.93119742  1.0
  O  O1  1  0.62678015  0.10520149  0.11365562  1.0
  O  O2  1  0.88636515  0.89483789  0.37327830  1.0
  O  O3  1  0.47841704  0.10522164  0.99155725  1.0
  O  O4  1  0.00846141  0.89482779  0.52156187  1.0
  O  O5  1  0.47842266  0.36475815  0.37321919  1.0
  O  O6  1  0.00845944  0.63518861  0.11362521  1.0
  O  O7  1  0.62677782  0.63522776  0.52157705  1.0
  O  O8  1  0.88636612  0.36480453  0.99153599  1.0
  O  O9  1  0.88637069  0.51310138  0.52156226  1.0
  O  O10  1  0.62672452  0.51309378  0.99153259  1.0
  O  O11  1  0.00846669  0.48690476  0.37327365  1.0
  O  O12  1  0.47843401  0.48689790  0.11363672  1.0
  O  O13  1  0.37327392  0.36480765  0.88636878  1.0
  O  O14  1  0.11363319  0.63519368  0.62672444  1.0
  O  O15  1  0.52156371  0.63520277  0.00846125  1.0
  O  O16  1  0.99154228  0.36480946  0.47843620  1.0
  O  O17  1  0.52157723  0.51311918  0.62678222  1.0
  O  O18  1  0.99153763  0.51309955  0.88636795  1.0
  O  O19  1  0.37322505  0.48687418  0.47842028  1.0
  O  O20  1  0.11362567  0.48689879  0.00846130  1.0
  O  O21  1  0.11363507  0.10517171  0.47843626  1.0
  O  O22  1  0.37321772  0.89479888  0.00845344  1.0
  O  O23  1  0.99152895  0.10516324  0.62672256  1.0
  O  O24  1  0.52158327  0.89478616  0.88633726  1.0
  O  O25  1  0.37320930  0.89479300  0.88633990  1.0
  O  O26  1  0.11363023  0.10516786  0.62673039  1.0
  O  O27  1  0.52158092  0.89479271  0.00845091  1.0
  O  O28  1  0.99152981  0.10516901  0.47844050  1.0
  O  O29  1  0.52157997  0.63523224  0.62678416  1.0
  O  O30  1  0.99153606  0.36481127  0.88637275  1.0
  O  O31  1  0.37322118  0.36476388  0.47842325  1.0
  O  O32  1  0.11363161  0.63519555  0.00846057  1.0
  O  O33  1  0.11363251  0.48691042  0.47843957  1.0
  O  O34  1  0.37327059  0.48690223  0.00846462  1.0
  O  O35  1  0.99154136  0.51310485  0.62673160  1.0
  O  O36  1  0.52156262  0.51309693  0.88636130  1.0
  O  O37  1  0.62672963  0.63519456  0.11363087  1.0
  O  O38  1  0.88637023  0.36480762  0.37326745  1.0
  O  O39  1  0.47843853  0.36479994  0.99153425  1.0
  O  O40  1  0.00846557  0.63519319  0.52156181  1.0
  O  O41  1  0.47841987  0.48686225  0.37320979  1.0
  O  O42  1  0.00846063  0.48689649  0.11362894  1.0
  O  O43  1  0.62677524  0.51311606  0.52157676  1.0
  O  O44  1  0.88637202  0.51309500  0.99153490  1.0
  O  O45  1  0.88636044  0.89483377  0.52156096  1.0
  O  O46  1  0.62679140  0.10521190  0.99155015  1.0
  O  O47  1  0.00846051  0.89483055  0.37326905  1.0
  O  O48  1  0.47841990  0.10520597  0.11366076  1.0
