# generated using pymatgen
data_Zn2SiH16(C7O2)4
_symmetry_space_group_name_H-M   'P 1'
_cell_length_a   13.27704000
_cell_length_b   13.35112000
_cell_length_c   23.10041000
_cell_angle_alpha   89.91134000
_cell_angle_beta   90.00000000
_cell_angle_gamma   90.00000000
_symmetry_Int_Tables_number   1
_chemical_formula_structural   Zn2SiH16(C7O2)4
_chemical_formula_sum   'Zn8 Si4 H64 C112 O32'
_cell_volume   4094.85125944
_cell_formula_units_Z   4
loop_
 _symmetry_equiv_pos_site_id
 _symmetry_equiv_pos_as_xyz
  1  'x, y, z'
loop_
 _atom_site_type_symbol
 _atom_site_label
 _atom_site_symmetry_multiplicity
 _atom_site_fract_x
 _atom_site_fract_y
 _atom_site_fract_z
 _atom_site_occupancy
  Zn  Zn0  1  0.26996000  0.75000000  0.75000000  1
  Zn  Zn1  1  0.23021000  0.25000000  0.75000000  1
  Zn  Zn2  1  0.73004000  0.25000000  0.25000000  1
  Zn  Zn3  1  0.76979000  0.75000000  0.25000000  1
  Zn  Zn4  1  0.74980000  0.00169000  0.29564000  1
  Zn  Zn5  1  0.74980000  0.49831000  0.20436000  1
  Zn  Zn6  1  0.25020000  0.99831000  0.70436000  1
  Zn  Zn7  1  0.25020000  0.50169000  0.79564000  1
  Si  Si8  1  0.75048000  0.49992000  0.53929000  1
  Si  Si9  1  0.75048000  0.00008000  0.96071000  1
  Si  Si10  1  0.24952000  0.50008000  0.46071000  1
  Si  Si11  1  0.24952000  0.99992000  0.03929000  1
  H  H12  1  0.61233000  0.31487000  0.52637000  1
  H  H13  1  0.61066000  0.17744000  0.45351000  1
  H  H14  1  0.86438000  0.31035000  0.36709000  1
  H  H15  1  0.87062000  0.44447000  0.44051000  1
  H  H16  1  0.64373000  0.36904000  0.62671000  1
  H  H17  1  0.50029000  0.39921000  0.69356000  1
  H  H18  1  0.46959000  0.69806000  0.62748000  1
  H  H19  1  0.60973000  0.66821000  0.55849000  1
  H  H20  1  0.88851000  0.68536000  0.52586000  1
  H  H21  1  0.88819000  0.82391000  0.45349000  1
  H  H22  1  0.63514000  0.68983000  0.36727000  1
  H  H23  1  0.63057000  0.55485000  0.44043000  1
  H  H24  1  0.85676000  0.63096000  0.62638000  1
  H  H25  1  0.00021000  0.60069000  0.69354000  1
  H  H26  1  0.03185000  0.30228000  0.62774000  1
  H  H27  1  0.89160000  0.33173000  0.55864000  1
  H  H28  1  0.88851000  0.81464000  0.97413000  1
  H  H29  1  0.88819000  0.67609000  0.04651000  1
  H  H30  1  0.63514000  0.81018000  0.13272000  1
  H  H31  1  0.63057000  0.94515000  0.05957000  1
  H  H32  1  0.85676000  0.86904000  0.87361000  1
  H  H33  1  0.00021000  0.89931000  0.80645000  1
  H  H34  1  0.03185000  0.19772000  0.87225000  1
  H  H35  1  0.89160000  0.16827000  0.94135000  1
  H  H36  1  0.61233000  0.18513000  0.97363000  1
  H  H37  1  0.61066000  0.32256000  0.04649000  1
  H  H38  1  0.86438000  0.18965000  0.13291000  1
  H  H39  1  0.87062000  0.05553000  0.05949000  1
  H  H40  1  0.64373000  0.13096000  0.87329000  1
  H  H41  1  0.50029000  0.10079000  0.80643000  1
  H  H42  1  0.46959000  0.80194000  0.87251000  1
  H  H43  1  0.60973000  0.83179000  0.94151000  1
  H  H44  1  0.38767000  0.68513000  0.47363000  1
  H  H45  1  0.38934000  0.82257000  0.54649000  1
  H  H46  1  0.13562000  0.68965000  0.63290000  1
  H  H47  1  0.12939000  0.55553000  0.55949000  1
  H  H48  1  0.35627000  0.63096000  0.37329000  1
  H  H49  1  0.49971000  0.60079000  0.30644000  1
  H  H50  1  0.53041000  0.30194000  0.37252000  1
  H  H51  1  0.39027000  0.33179000  0.44151000  1
  H  H52  1  0.11150000  0.31464000  0.47414000  1
  H  H53  1  0.11182000  0.17609000  0.54651000  1
  H  H54  1  0.36486000  0.31018000  0.63272000  1
  H  H55  1  0.36943000  0.44515000  0.55957000  1
  H  H56  1  0.14324000  0.36904000  0.37361000  1
  H  H57  1  0.99979000  0.39931000  0.30646000  1
  H  H58  1  0.96815000  0.69772000  0.37225000  1
  H  H59  1  0.10840000  0.66827000  0.44135000  1
  H  H60  1  0.11150000  0.18536000  0.02586000  1
  H  H61  1  0.11182000  0.32391000  0.95348000  1
  H  H62  1  0.36486000  0.18982000  0.86727000  1
  H  H63  1  0.36943000  0.05485000  0.94042000  1
  H  H64  1  0.14324000  0.13096000  0.12639000  1
  H  H65  1  0.99979000  0.10069000  0.19354000  1
  H  H66  1  0.96815000  0.80228000  0.12774000  1
  H  H67  1  0.10840000  0.83173000  0.05864000  1
  H  H68  1  0.38767000  0.81487000  0.02637000  1
  H  H69  1  0.38934000  0.67744000  0.95351000  1
  H  H70  1  0.13562000  0.81035000  0.86709000  1
  H  H71  1  0.12939000  0.94447000  0.94051000  1
  H  H72  1  0.35627000  0.86904000  0.12671000  1
  H  H73  1  0.49971000  0.89921000  0.19356000  1
  H  H74  1  0.53041000  0.19806000  0.12748000  1
  H  H75  1  0.39027000  0.16821000  0.05849000  1
  C  C76  1  0.74207000  0.38942000  0.48929000  1
  C  C77  1  0.66909000  0.31333000  0.49236000  1
  C  C78  1  0.66692000  0.23656000  0.45139000  1
  C  C79  1  0.73643000  0.23630000  0.40563000  1
  C  C80  1  0.81035000  0.31122000  0.40243000  1
  C  C81  1  0.81337000  0.38627000  0.44403000  1
  C  C82  1  0.73131000  0.15797000  0.36050000  1
  C  C83  1  0.63694000  0.51617000  0.58686000  1
  C  C84  1  0.60482000  0.44084000  0.62559000  1
  C  C85  1  0.52479000  0.45724000  0.66358000  1
  C  C86  1  0.47586000  0.55054000  0.66431000  1
  C  C87  1  0.50748000  0.62606000  0.62629000  1
  C  C88  1  0.58635000  0.60874000  0.58781000  1
  C  C89  1  0.39190000  0.57138000  0.70581000  1
  C  C90  1  0.75892000  0.61036000  0.48907000  1
  C  C91  1  0.83140000  0.68690000  0.49205000  1
  C  C92  1  0.83250000  0.76427000  0.45131000  1
  C  C93  1  0.76262000  0.76459000  0.40575000  1
  C  C94  1  0.68952000  0.68893000  0.40245000  1
  C  C95  1  0.68742000  0.61341000  0.44392000  1
  C  C96  1  0.76619000  0.84404000  0.36105000  1
  C  C97  1  0.86391000  0.48379000  0.58689000  1
  C  C98  1  0.89585000  0.55923000  0.62547000  1
  C  C99  1  0.97582000  0.54284000  0.66353000  1
  C  C100  1  0.02486000  0.44966000  0.66437000  1
  C  C101  1  0.99361000  0.37410000  0.62640000  1
  C  C102  1  0.91473000  0.39131000  0.58788000  1
  C  C103  1  0.10872000  0.42895000  0.70593000  1
  C  C104  1  0.75892000  0.88964000  0.01093000  1
  C  C105  1  0.83140000  0.81311000  0.00795000  1
  C  C106  1  0.83250000  0.73573000  0.04868000  1
  C  C107  1  0.76262000  0.73541000  0.09425000  1
  C  C108  1  0.68952000  0.81108000  0.09755000  1
  C  C109  1  0.68742000  0.88660000  0.05608000  1
  C  C110  1  0.76619000  0.65596000  0.13895000  1
  C  C111  1  0.86391000  0.01621000  0.91311000  1
  C  C112  1  0.89585000  0.94077000  0.87453000  1
  C  C113  1  0.97582000  0.95716000  0.83647000  1
  C  C114  1  0.02486000  0.05034000  0.83563000  1
  C  C115  1  0.99361000  0.12590000  0.87359000  1
  C  C116  1  0.91473000  0.10869000  0.91211000  1
  C  C117  1  0.10872000  0.07105000  0.79406000  1
  C  C118  1  0.74207000  0.11058000  0.01071000  1
  C  C119  1  0.66909000  0.18667000  0.00764000  1
  C  C120  1  0.66692000  0.26344000  0.04861000  1
  C  C121  1  0.73643000  0.26371000  0.09437000  1
  C  C122  1  0.81035000  0.18878000  0.09757000  1
  C  C123  1  0.81337000  0.11373000  0.05597000  1
  C  C124  1  0.73131000  0.34203000  0.13949000  1
  C  C125  1  0.63694000  0.98383000  0.91313000  1
  C  C126  1  0.60482000  0.05916000  0.87441000  1
  C  C127  1  0.52479000  0.04276000  0.83641000  1
  C  C128  1  0.47586000  0.94947000  0.83568000  1
  C  C129  1  0.50748000  0.87394000  0.87370000  1
  C  C130  1  0.58635000  0.89127000  0.91219000  1
  C  C131  1  0.39190000  0.92862000  0.79419000  1
  C  C132  1  0.25794000  0.61058000  0.51071000  1
  C  C133  1  0.33091000  0.68667000  0.50764000  1
  C  C134  1  0.33308000  0.76344000  0.54860000  1
  C  C135  1  0.26357000  0.76371000  0.59437000  1
  C  C136  1  0.18965000  0.68878000  0.59757000  1
  C  C137  1  0.18664000  0.61373000  0.55597000  1
  C  C138  1  0.26870000  0.84203000  0.63949000  1
  C  C139  1  0.36306000  0.48383000  0.41314000  1
  C  C140  1  0.39518000  0.55917000  0.37441000  1
  C  C141  1  0.47521000  0.54276000  0.33642000  1
  C  C142  1  0.52414000  0.44947000  0.33568000  1
  C  C143  1  0.49253000  0.37394000  0.37370000  1
  C  C144  1  0.41366000  0.39127000  0.41219000  1
  C  C145  1  0.60811000  0.42862000  0.29419000  1
  C  C146  1  0.24108000  0.38964000  0.51093000  1
  C  C147  1  0.16861000  0.31311000  0.50794000  1
  C  C148  1  0.16751000  0.23573000  0.54868000  1
  C  C149  1  0.23739000  0.23541000  0.59425000  1
  C  C150  1  0.31049000  0.31108000  0.59755000  1
  C  C151  1  0.31259000  0.38659000  0.55607000  1
  C  C152  1  0.23382000  0.15596000  0.63895000  1
  C  C153  1  0.13609000  0.51622000  0.41311000  1
  C  C154  1  0.10415000  0.44077000  0.37453000  1
  C  C155  1  0.02418000  0.45716000  0.33647000  1
  C  C156  1  0.97514000  0.55035000  0.33563000  1
  C  C157  1  0.00639000  0.62590000  0.37359000  1
  C  C158  1  0.08528000  0.60870000  0.41211000  1
  C  C159  1  0.89128000  0.57105000  0.29406000  1
  C  C160  1  0.24108000  0.11036000  0.98907000  1
  C  C161  1  0.16861000  0.18690000  0.99205000  1
  C  C162  1  0.16751000  0.26427000  0.95131000  1
  C  C163  1  0.23739000  0.26459000  0.90574000  1
  C  C164  1  0.31049000  0.18892000  0.90245000  1
  C  C165  1  0.31259000  0.11341000  0.94392000  1
  C  C166  1  0.23382000  0.34404000  0.86105000  1
  C  C167  1  0.13609000  0.98379000  0.08689000  1
  C  C168  1  0.10415000  0.05923000  0.12547000  1
  C  C169  1  0.02418000  0.04284000  0.16353000  1
  C  C170  1  0.97514000  0.94966000  0.16437000  1
  C  C171  1  0.00639000  0.87410000  0.12641000  1
  C  C172  1  0.08528000  0.89131000  0.08788000  1
  C  C173  1  0.89128000  0.92895000  0.20594000  1
  C  C174  1  0.25794000  0.88942000  0.98928000  1
  C  C175  1  0.33091000  0.81334000  0.99235000  1
  C  C176  1  0.33308000  0.73656000  0.95139000  1
  C  C177  1  0.26357000  0.73630000  0.90563000  1
  C  C178  1  0.18965000  0.81122000  0.90243000  1
  C  C179  1  0.18664000  0.88627000  0.94403000  1
  C  C180  1  0.26870000  0.65797000  0.86050000  1
  C  C181  1  0.36306000  0.01617000  0.08686000  1
  C  C182  1  0.39518000  0.94084000  0.12559000  1
  C  C183  1  0.47521000  0.95724000  0.16358000  1
  C  C184  1  0.52414000  0.05054000  0.16431000  1
  C  C185  1  0.49253000  0.12606000  0.12630000  1
  C  C186  1  0.41366000  0.10874000  0.08781000  1
  C  C187  1  0.60811000  0.07138000  0.20581000  1
  O  O188  1  0.78833000  0.16727000  0.31377000  1
  O  O189  1  0.67705000  0.08139000  0.36600000  1
  O  O190  1  0.35423000  0.65979000  0.70352000  1
  O  O191  1  0.36469000  0.50069000  0.73935000  1
  O  O192  1  0.71215000  0.83324000  0.31348000  1
  O  O193  1  0.81658000  0.92297000  0.36821000  1
  O  O194  1  0.14585000  0.34042000  0.70402000  1
  O  O195  1  0.13595000  0.49977000  0.73927000  1
  O  O196  1  0.71215000  0.66677000  0.18652000  1
  O  O197  1  0.81658000  0.57703000  0.13179000  1
  O  O198  1  0.14585000  0.15958000  0.79597000  1
  O  O199  1  0.13595000  0.00023000  0.76073000  1
  O  O200  1  0.78833000  0.33273000  0.18622000  1
  O  O201  1  0.67705000  0.41861000  0.13400000  1
  O  O202  1  0.35423000  0.84021000  0.79648000  1
  O  O203  1  0.36469000  0.99931000  0.76065000  1
  O  O204  1  0.21167000  0.83273000  0.68622000  1
  O  O205  1  0.32295000  0.91861000  0.63400000  1
  O  O206  1  0.64577000  0.34021000  0.29648000  1
  O  O207  1  0.63531000  0.49931000  0.26065000  1
  O  O208  1  0.28785000  0.16676000  0.68652000  1
  O  O209  1  0.18342000  0.07703000  0.63179000  1
  O  O210  1  0.85415000  0.65958000  0.29597000  1
  O  O211  1  0.86405000  0.50023000  0.26073000  1
  O  O212  1  0.28785000  0.33324000  0.81348000  1
  O  O213  1  0.18342000  0.42297000  0.86821000  1
  O  O214  1  0.85415000  0.84043000  0.20403000  1
  O  O215  1  0.86405000  0.99977000  0.23927000  1
  O  O216  1  0.21167000  0.66727000  0.81377000  1
  O  O217  1  0.32295000  0.58139000  0.86600000  1
  O  O218  1  0.64577000  0.15979000  0.20352000  1
  O  O219  1  0.63531000  0.00069000  0.23935000  1
