# generated using pymatgen
data_H24C39N8
_symmetry_space_group_name_H-M   'P 1'
_cell_length_a   26.15840000
_cell_length_b   35.54960000
_cell_length_c   35.54960000
_cell_angle_alpha   90.00000000
_cell_angle_beta   90.00000000
_cell_angle_gamma   90.00000000
_symmetry_Int_Tables_number   1
_chemical_formula_structural   H24C39N8
_chemical_formula_sum   'H192 C312 N64'
_cell_volume   33058.30737529
_cell_formula_units_Z   8
loop_
 _symmetry_equiv_pos_site_id
 _symmetry_equiv_pos_as_xyz
  1  'x, y, z'
loop_
 _atom_site_type_symbol
 _atom_site_label
 _atom_site_symmetry_multiplicity
 _atom_site_fract_x
 _atom_site_fract_y
 _atom_site_fract_z
 _atom_site_occupancy
  H  25  1  0.17227800  0.07113900  0.41555200  1
  H  26  1  0.12410100  0.10577100  0.37066200  1
  H  27  1  0.06937800  0.13103700  0.32193900  1
  H  28  1  0.01190800  0.14529500  0.27218400  1
  H  29  1  0.94538700  0.03681300  0.28202800  1
  H  30  1  0.07631600  0.97630300  0.39894400  1
  H  31  1  0.08291400  0.99109400  0.28323500  1
  H  32  1  0.01462500  0.88372500  0.26873300  1
  H  33  1  0.95517700  0.89736800  0.31748600  1
  H  34  1  0.95147300  0.04910800  0.40050200  1
  H  35  1  0.90052100  0.92149500  0.36742700  1
  H  36  1  0.85419600  0.95452500  0.41444900  1
  H  42  1  0.16193400  0.97291600  0.43712100  1
  H  43  1  0.92642500  0.08126700  0.22555500  1
  H  44  1  0.88058100  0.05002800  0.44878100  1
  H  45  1  0.10794400  0.94810000  0.22887700  1
  H  70  1  0.67223500  0.95487700  0.61047900  1
  H  71  1  0.62407900  0.92026000  0.65538300  1
  H  72  1  0.56941900  0.89502200  0.70416200  1
  H  73  1  0.51191200  0.88075200  0.75388100  1
  H  74  1  0.44532900  0.98920900  0.74398300  1
  H  75  1  0.57627800  0.04971900  0.62707800  1
  H  76  1  0.58286400  0.03493400  0.74282700  1
  H  77  1  0.51466100  0.14234700  0.75723500  1
  H  78  1  0.45523400  0.12870200  0.70846900  1
  H  79  1  0.45148800  0.97693300  0.62550600  1
  H  80  1  0.40056700  0.10456100  0.65854700  1
  H  81  1  0.35427600  0.07154400  0.61149700  1
  H  87  1  0.66157700  0.05314200  0.58870700  1
  H  88  1  0.42622600  0.94476100  0.80040200  1
  H  89  1  0.38069500  0.97605800  0.57714000  1
  H  90  1  0.60788500  0.07793900  0.79717900  1
  H  115  1  0.42229300  0.61049300  0.07111700  1
  H  116  1  0.37413100  0.65538800  0.10575200  1
  H  117  1  0.31938900  0.70410000  0.13103500  1
  H  118  1  0.26189900  0.75383600  0.14530400  1
  H  119  1  0.19534300  0.74397400  0.03683400  1
  H  120  1  0.32629000  0.62708400  0.97630000  1
  H  121  1  0.33293400  0.74277300  0.99108000  1
  H  122  1  0.26458900  0.75732500  0.88373700  1
  H  123  1  0.20512100  0.70858400  0.89739100  1
  H  124  1  0.20149100  0.62551200  0.04910300  1
  H  125  1  0.15048000  0.65863200  0.92151500  1
  H  126  1  0.10418900  0.61158200  0.95453100  1
  H  132  1  0.41164600  0.58874000  0.97287400  1
  H  133  1  0.17620800  0.80036300  0.08128300  1
  H  134  1  0.13068700  0.57715700  0.04997900  1
  H  135  1  0.35808100  0.79707200  0.94806900  1
  H  160  1  0.92225400  0.41561900  0.95490800  1
  H  161  1  0.87408300  0.37073500  0.92026000  1
  H  162  1  0.81945800  0.32194400  0.89501400  1
  H  163  1  0.76201500  0.27217900  0.88074600  1
  H  164  1  0.69542500  0.28203100  0.98920300  1
  H  165  1  0.82630800  0.39895200  0.04974400  1
  H  166  1  0.83289900  0.28323200  0.03492800  1
  H  167  1  0.76462200  0.26874900  0.14230400  1
  H  168  1  0.70518500  0.31750600  0.12866000  1
  H  169  1  0.70150700  0.40054400  0.97693300  1
  H  170  1  0.65051400  0.36742700  0.10452700  1
  H  171  1  0.60421900  0.41447700  0.07151400  1
  H  177  1  0.91190600  0.43715800  0.05314100  1
  H  178  1  0.67638300  0.22560200  0.94475000  1
  H  179  1  0.63068800  0.44888500  0.97605300  1
  H  180  1  0.85785400  0.22883100  0.07790500  1
  H  187  1  0.90799900  0.20586400  0.24159000  1
  H  189  1  0.87292000  0.11971300  0.10781300  1
  H  190  1  0.88838400  0.16293200  0.08601700  1
  H  191  1  0.82480200  0.15413900  0.10155600  1
  H  200  1  0.40850700  0.82008800  0.78456800  1
  H  202  1  0.37209100  0.90637300  0.91806300  1
  H  203  1  0.38781400  0.86328600  0.94002100  1
  H  204  1  0.32425500  0.87172000  0.92424300  1
  H  213  1  0.15814900  0.78447500  0.20589500  1
  H  215  1  0.12264800  0.91816700  0.11970100  1
  H  216  1  0.13824900  0.94001000  0.16287000  1
  H  217  1  0.07465400  0.92442100  0.15422100  1
  H  226  1  0.65847700  0.24148700  0.82009600  1
  H  228  1  0.62240400  0.10793100  0.90637500  1
  H  229  1  0.63790200  0.08602200  0.86322200  1
  H  230  1  0.57437800  0.10177200  0.87186000  1
  H  239  1  0.80966300  0.06670000  0.50479300  1
  H  241  1  0.70744800  0.92489900  0.49016600  1
  H  242  1  0.65456600  0.95115800  0.50677600  1
  H  243  1  0.69900300  0.93149200  0.53911100  1
  H  252  1  0.30986400  0.95943600  0.52105800  1
  H  254  1  0.20708000  0.10096000  0.53616900  1
  H  255  1  0.15428500  0.07465600  0.51948000  1
  H  256  1  0.19866000  0.09449200  0.48720400  1
  H  265  1  0.05998400  0.52096500  0.06654100  1
  H  267  1  0.95677500  0.53641600  0.92522500  1
  H  268  1  0.90403500  0.51972100  0.95158500  1
  H  269  1  0.94830700  0.48744500  0.93162700  1
  H  278  1  0.55987800  0.50497300  0.95943100  1
  H  280  1  0.45703100  0.48984800  0.10092600  1
  H  281  1  0.40423700  0.50649500  0.07459200  1
  H  282  1  0.44855200  0.53880700  0.09444500  1
  H  309  1  0.17227800  0.09926870  0.83749800  1
  H  310  1  0.12410100  0.13390100  0.79260800  1
  H  311  1  0.06937800  0.15916700  0.74388500  1
  H  312  1  0.01190800  0.17342500  0.69413000  1
  H  313  1  0.94538700  0.06494270  0.70397400  1
  H  314  1  0.07631600  0.00443271  0.82089000  1
  H  315  1  0.08291400  0.01922370  0.70518100  1
  H  316  1  0.01462500  0.91185500  0.69067900  1
  H  317  1  0.95517700  0.92549800  0.73943200  1
  H  318  1  0.95147300  0.07723770  0.82244800  1
  H  319  1  0.90052100  0.94962500  0.78937300  1
  H  320  1  0.85419600  0.98265500  0.83639500  1
  H  326  1  0.16193400  0.00104571  0.85906700  1
  H  327  1  0.92642500  0.10939700  0.64750100  1
  H  328  1  0.88058100  0.07815770  0.87072700  1
  H  329  1  0.10794400  0.97623000  0.65082300  1
  H  354  1  0.67223500  0.98300700  0.03242470  1
  H  355  1  0.62407900  0.94839000  0.07732870  1
  H  356  1  0.56941900  0.92315200  0.12610800  1
  H  357  1  0.51191200  0.90888200  0.17582700  1
  H  358  1  0.44532900  0.01733870  0.16592900  1
  H  359  1  0.57627800  0.07784870  0.04902370  1
  H  360  1  0.58286400  0.06306370  0.16477300  1
  H  361  1  0.51466100  0.17047700  0.17918100  1
  H  362  1  0.45523400  0.15683200  0.13041500  1
  H  363  1  0.45148800  0.00506271  0.04745170  1
  H  364  1  0.40056700  0.13269100  0.08049270  1
  H  365  1  0.35427600  0.09967370  0.03344270  1
  H  371  1  0.66157700  0.08127170  0.01065270  1
  H  372  1  0.42622600  0.97289100  0.22234800  1
  H  373  1  0.38069500  0.00418771  0.99908600  1
  H  374  1  0.60788500  0.10606900  0.21912500  1
  H  399  1  0.42229300  0.63862300  0.49306300  1
  H  400  1  0.37413100  0.68351800  0.52769800  1
  H  401  1  0.31938900  0.73223000  0.55298100  1
  H  402  1  0.26189900  0.78196600  0.56725000  1
  H  403  1  0.19534300  0.77210400  0.45878000  1
  H  404  1  0.32629000  0.65521400  0.39824600  1
  H  405  1  0.33293400  0.77090300  0.41302600  1
  H  406  1  0.26458900  0.78545500  0.30568300  1
  H  407  1  0.20512100  0.73671400  0.31933700  1
  H  408  1  0.20149100  0.65364200  0.47104900  1
  H  409  1  0.15048000  0.68676200  0.34346100  1
  H  410  1  0.10418900  0.63971200  0.37647700  1
  H  416  1  0.41164600  0.61687000  0.39482000  1
  H  417  1  0.17620800  0.82849300  0.50322900  1
  H  418  1  0.13068700  0.60528700  0.47192500  1
  H  419  1  0.35808100  0.82520200  0.37001500  1
  H  444  1  0.92225400  0.44374900  0.37685400  1
  H  445  1  0.87408300  0.39886500  0.34220600  1
  H  446  1  0.81945800  0.35007400  0.31696000  1
  H  447  1  0.76201500  0.30030900  0.30269200  1
  H  448  1  0.69542500  0.31016100  0.41114900  1
  H  449  1  0.82630800  0.42708200  0.47169000  1
  H  450  1  0.83289900  0.31136200  0.45687400  1
  H  451  1  0.76462200  0.29687900  0.56425000  1
  H  452  1  0.70518500  0.34563600  0.55060600  1
  H  453  1  0.70150700  0.42867400  0.39887900  1
  H  454  1  0.65051400  0.39555700  0.52647300  1
  H  455  1  0.60421900  0.44260700  0.49346000  1
  H  461  1  0.91190600  0.46528800  0.47508700  1
  H  462  1  0.67638300  0.25373200  0.36669600  1
  H  463  1  0.63068800  0.47701500  0.39799900  1
  H  464  1  0.85785400  0.25696100  0.49985100  1
  H  471  1  0.90799900  0.23399400  0.66353600  1
  H  473  1  0.87292000  0.14784300  0.52975900  1
  H  474  1  0.88838400  0.19106200  0.50796300  1
  H  475  1  0.82480200  0.18226900  0.52350200  1
  H  484  1  0.40850700  0.84821800  0.20651400  1
  H  486  1  0.37209100  0.93450300  0.34000900  1
  H  487  1  0.38781400  0.89141600  0.36196700  1
  H  488  1  0.32425500  0.89985000  0.34618900  1
  H  497  1  0.15814900  0.81260500  0.62784100  1
  H  499  1  0.12264800  0.94629700  0.54164700  1
  H  500  1  0.13824900  0.96814000  0.58481600  1
  H  501  1  0.07465400  0.95255100  0.57616700  1
  H  510  1  0.65847700  0.26961700  0.24204200  1
  H  512  1  0.62240400  0.13606100  0.32832100  1
  H  513  1  0.63790200  0.11415200  0.28516800  1
  H  514  1  0.57437800  0.12990200  0.29380600  1
  H  523  1  0.80966300  0.09482970  0.92673900  1
  H  525  1  0.70744800  0.95302900  0.91211200  1
  H  526  1  0.65456600  0.97928800  0.92872200  1
  H  527  1  0.69900300  0.95962200  0.96105700  1
  H  536  1  0.30986400  0.98756600  0.94300400  1
  H  538  1  0.20708000  0.12909000  0.95811500  1
  H  539  1  0.15428500  0.10278600  0.94142600  1
  H  540  1  0.19866000  0.12262200  0.90915000  1
  H  549  1  0.05998400  0.54909500  0.48848700  1
  H  551  1  0.95677500  0.56454600  0.34717100  1
  H  552  1  0.90403500  0.54785100  0.37353100  1
  H  553  1  0.94830700  0.51557500  0.35357300  1
  H  562  1  0.55987800  0.53310300  0.38137700  1
  H  564  1  0.45703100  0.51797800  0.52287200  1
  H  565  1  0.40423700  0.53462500  0.49653800  1
  H  566  1  0.44855200  0.56693700  0.51639100  1
  C  1  1  0.96772700  0.00247500  0.36570300  1
  C  2  1  0.95270700  0.96585000  0.35658000  1
  C  3  1  0.98445200  0.95186400  0.32878000  1
  C  4  1  0.02092700  0.97905100  0.31934800  1
  C  5  1  0.05664000  0.97103400  0.29041900  1
  C  6  1  0.05550600  0.93580700  0.27123600  1
  C  7  1  0.01766300  0.90916300  0.28202300  1
  C  8  1  0.98235400  0.91685400  0.31065600  1
  C  9  1  0.91117600  0.94828600  0.37428200  1
  C  10  1  0.88419000  0.96813400  0.40196200  1
  C  11  1  0.89778000  0.00549300  0.41242100  1
  C  12  1  0.94025200  0.02238300  0.39377400  1
  C  13  1  0.05828100  0.02420200  0.36626800  1
  C  14  1  0.07233600  0.06139900  0.35870100  1
  C  15  1  0.04082700  0.07592300  0.33106400  1
  C  16  1  0.00534100  0.04859400  0.32012700  1
  C  17  1  0.04285000  0.11147400  0.31404600  1
  C  18  1  0.00868600  0.11952400  0.28480500  1
  C  19  1  0.97201700  0.09273300  0.27233100  1
  C  20  1  0.97077000  0.05698000  0.29051500  1
  C  21  1  0.08656600  0.00349000  0.39332900  1
  C  22  1  0.12870600  0.02029200  0.41244000  1
  C  23  1  0.14165600  0.05807000  0.40329300  1
  C  24  1  0.11371100  0.07875600  0.37680900  1
  C  37  1  0.01315300  0.01355200  0.34271800  1
  C  38  1  0.94029100  0.10152600  0.24188200  1
  C  39  1  0.15827200  0.00067500  0.43873000  1
  C  40  1  0.87012600  0.02450800  0.44041000  1
  C  41  1  0.08903800  0.92756300  0.24168200  1
  C  46  1  0.46771600  0.02355800  0.66032500  1
  C  47  1  0.45271500  0.06019200  0.66942500  1
  C  48  1  0.48441800  0.07416300  0.69725900  1
  C  49  1  0.52089200  0.04697600  0.70669700  1
  C  50  1  0.55659800  0.05499500  0.73563100  1
  C  51  1  0.55547400  0.09023000  0.75480100  1
  C  52  1  0.51766900  0.11689000  0.74397700  1
  C  53  1  0.48235000  0.10918900  0.71535500  1
  C  54  1  0.41121400  0.07776700  0.65169800  1
  C  55  1  0.38424800  0.05792400  0.62400400  1
  C  56  1  0.39782300  0.02056200  0.61355700  1
  C  57  1  0.44027500  0.00366200  0.63222900  1
  C  58  1  0.55827600  0.00183600  0.65978500  1
  C  59  1  0.57236700  0.96465500  0.66738800  1
  C  60  1  0.54082100  0.95011400  0.69499200  1
  C  61  1  0.50530600  0.97743400  0.70590300  1
  C  62  1  0.54282800  0.91455800  0.71199900  1
  C  63  1  0.50864700  0.90650500  0.74122900  1
  C  64  1  0.47195500  0.93329000  0.75368500  1
  C  65  1  0.47070500  0.96904000  0.73549600  1
  C  66  1  0.58654200  0.02253800  0.63270700  1
  C  67  1  0.62868100  0.00573500  0.61359600  1
  C  68  1  0.64163300  0.96796000  0.62275200  1
  C  69  1  0.61371900  0.94728700  0.64926200  1
  C  82  1  0.51313200  0.01247800  0.68332100  1
  C  83  1  0.44023700  0.92449900  0.78414100  1
  C  84  1  0.65825500  0.02534900  0.58730300  1
  C  85  1  0.37017300  0.00154400  0.58557000  1
  C  86  1  0.58899600  0.09847800  0.78436000  1
  C  91  1  0.21771700  0.66033600  0.00248100  1
  C  92  1  0.20267900  0.66946700  0.96586400  1
  C  93  1  0.23441200  0.69727900  0.95187800  1
  C  94  1  0.27091400  0.70668800  0.97905400  1
  C  95  1  0.30664400  0.73560300  0.97102900  1
  C  96  1  0.30549100  0.75480100  0.93580700  1
  C  97  1  0.26762300  0.74403600  0.90917700  1
  C  98  1  0.23229000  0.71542300  0.91687600  1
  C  99  1  0.16114700  0.65176500  0.94830000  1
  C  100  1  0.13418100  0.62407100  0.96814300  1
  C  101  1  0.14778500  0.61359900  0.00549300  1
  C  102  1  0.19025800  0.63225200  0.02238400  1
  C  103  1  0.30827600  0.65976800  0.02419700  1
  C  104  1  0.32235700  0.66734900  0.06138700  1
  C  105  1  0.29085000  0.69498600  0.07591500  1
  C  106  1  0.25536800  0.70592600  0.04858600  1
  C  107  1  0.29287400  0.71200200  0.11146600  1
  C  108  1  0.25868200  0.74122300  0.11952900  1
  C  109  1  0.22198200  0.75367600  0.09275100  1
  C  110  1  0.22074500  0.73549900  0.05699400  1
  C  111  1  0.33655500  0.63270400  0.00348500  1
  C  112  1  0.37870500  0.61360200  0.02027600  1
  C  113  1  0.39167200  0.62275500  0.05804900  1
  C  114  1  0.36375200  0.64925600  0.07873100  1
  C  127  1  0.26314700  0.68331800  0.01355200  1
  C  128  1  0.19025400  0.78412400  0.10154700  1
  C  129  1  0.40826700  0.58730300  0.00066100  1
  C  130  1  0.12014800  0.58559800  0.02450100  1
  C  131  1  0.33907800  0.78431800  0.92754600  1
  C  136  1  0.71773900  0.36572300  0.02355600  1
  C  137  1  0.70270400  0.35659200  0.06017500  1
  C  138  1  0.73442200  0.32876600  0.07414800  1
  C  139  1  0.77091900  0.31935100  0.04697000  1
  C  140  1  0.80662800  0.29041900  0.05498700  1
  C  141  1  0.80549300  0.27123600  0.09021600  1
  C  142  1  0.76767300  0.28204500  0.11686900  1
  C  143  1  0.73235800  0.31067000  0.10917400  1
  C  144  1  0.66118000  0.37429700  0.07774100  1
  C  145  1  0.63420900  0.40199000  0.05790100  1
  C  146  1  0.64780700  0.41246000  0.02054900  1
  C  147  1  0.69027900  0.39380700  0.00365600  1
  C  148  1  0.80829500  0.36627700  0.00183900  1
  C  149  1  0.82237400  0.35870700  0.96464900  1
  C  150  1  0.79080900  0.33112300  0.95009200  1
  C  151  1  0.75534400  0.32015800  0.97742500  1
  C  152  1  0.79290000  0.31406500  0.91456100  1
  C  153  1  0.75875100  0.28481600  0.90650800  1
  C  154  1  0.72206300  0.27234300  0.93328400  1
  C  155  1  0.72078600  0.29054000  0.96903100  1
  C  156  1  0.83656900  0.39334000  0.02255800  1
  C  157  1  0.87870100  0.41246300  0.00576300  1
  C  158  1  0.89164100  0.40334300  0.96797700  1
  C  159  1  0.86371100  0.37685400  0.94728400  1
  C  172  1  0.76315800  0.34273200  0.01247500  1
  C  173  1  0.69036300  0.24187700  0.92449100  1
  C  174  1  0.90825100  0.43876100  0.02538200  1
  C  175  1  0.62016800  0.44045800  0.00154100  1
  C  176  1  0.83899200  0.24165800  0.09845100  1
  C  181  1  0.90851500  0.15652900  0.20769100  1
  C  183  1  0.87762300  0.16672900  0.14476300  1
  C  184  1  0.86884100  0.20520800  0.15337300  1
  C  186  1  0.89984900  0.19473000  0.21575400  1
  C  188  1  0.86521000  0.14988800  0.10793900  1
  C  194  1  0.40854600  0.86948900  0.81838000  1
  C  196  1  0.37746200  0.85928600  0.88125000  1
  C  197  1  0.36919700  0.82072000  0.87275200  1
  C  199  1  0.40023500  0.83123000  0.81038000  1
  C  201  1  0.36466100  0.87615800  0.91798700  1
  C  207  1  0.15847200  0.81833800  0.15653100  1
  C  209  1  0.12757500  0.88125800  0.16673800  1
  C  210  1  0.11902100  0.87269900  0.20525400  1
  C  212  1  0.14996000  0.81030400  0.19475800  1
  C  214  1  0.11505300  0.91806000  0.14989200  1
  C  220  1  0.65872500  0.20763100  0.86946100  1
  C  222  1  0.62749300  0.14479500  0.85931200  1
  C  223  1  0.61889500  0.15337100  0.82080200  1
  C  225  1  0.65018500  0.21568300  0.83124400  1
  C  227  1  0.61480800  0.10803600  0.87618400  1
  C  233  1  0.79506800  0.01272800  0.48142000  1
  C  235  1  0.72515900  0.97995400  0.51036800  1
  C  236  1  0.71682900  0.01086000  0.53474800  1
  C  238  1  0.78674200  0.04347300  0.50572700  1
  C  240  1  0.69485500  0.94482300  0.51162900  1
  C  246  1  0.29497400  0.01325500  0.54467500  1
  C  248  1  0.22496800  0.04599300  0.51581100  1
  C  249  1  0.21675900  0.01515200  0.49132700  1
  C  251  1  0.28680500  0.98259300  0.52023600  1
  C  253  1  0.19455200  0.08107500  0.51465000  1
  C  259  1  0.04493200  0.54471800  0.01280400  1
  C  261  1  0.97479200  0.51595800  0.98013100  1
  C  262  1  0.96661500  0.49142900  0.01094800  1
  C  264  1  0.03681500  0.52023900  0.04344200  1
  C  266  1  0.94427400  0.51487500  0.94509600  1
  C  272  1  0.54501800  0.48138900  0.01327200  1
  C  274  1  0.47494100  0.51020800  0.04596300  1
  C  275  1  0.46669100  0.53466700  0.01510600  1
  C  277  1  0.53682900  0.50580300  0.98259300  1
  C  279  1  0.44449200  0.51135600  0.08103000  1
  C  285  1  0.96772700  0.03060470  0.78764900  1
  C  286  1  0.95270700  0.99398000  0.77852600  1
  C  287  1  0.98445200  0.97999400  0.75072600  1
  C  288  1  0.02092700  0.00718071  0.74129400  1
  C  289  1  0.05664000  0.99916400  0.71236500  1
  C  290  1  0.05550600  0.96393700  0.69318200  1
  C  291  1  0.01766300  0.93729300  0.70396900  1
  C  292  1  0.98235400  0.94498400  0.73260200  1
  C  293  1  0.91117600  0.97641600  0.79622800  1
  C  294  1  0.88419000  0.99626400  0.82390800  1
  C  295  1  0.89778000  0.03362270  0.83436700  1
  C  296  1  0.94025200  0.05051270  0.81572000  1
  C  297  1  0.05828100  0.05233170  0.78821400  1
  C  298  1  0.07233600  0.08952870  0.78064700  1
  C  299  1  0.04082700  0.10405300  0.75301000  1
  C  300  1  0.00534100  0.07672370  0.74207300  1
  C  301  1  0.04285000  0.13960400  0.73599200  1
  C  302  1  0.00868600  0.14765400  0.70675100  1
  C  303  1  0.97201700  0.12086300  0.69427700  1
  C  304  1  0.97077000  0.08510970  0.71246100  1
  C  305  1  0.08656600  0.03161970  0.81527500  1
  C  306  1  0.12870600  0.04842170  0.83438600  1
  C  307  1  0.14165600  0.08619970  0.82523900  1
  C  308  1  0.11371100  0.10688600  0.79875500  1
  C  321  1  0.01315300  0.04168170  0.76466400  1
  C  322  1  0.94029100  0.12965600  0.66382800  1
  C  323  1  0.15827200  0.02880470  0.86067600  1
  C  324  1  0.87012600  0.05263770  0.86235600  1
  C  325  1  0.08903800  0.95569300  0.66362800  1
  C  330  1  0.46771600  0.05168770  0.08227070  1
  C  331  1  0.45271500  0.08832170  0.09137070  1
  C  332  1  0.48441800  0.10229300  0.11920500  1
  C  333  1  0.52089200  0.07510570  0.12864300  1
  C  334  1  0.55659800  0.08312470  0.15757700  1
  C  335  1  0.55547400  0.11836000  0.17674700  1
  C  336  1  0.51766900  0.14502000  0.16592300  1
  C  337  1  0.48235000  0.13731900  0.13730100  1
  C  338  1  0.41121400  0.10589700  0.07364370  1
  C  339  1  0.38424800  0.08605370  0.04594970  1
  C  340  1  0.39782300  0.04869170  0.03550270  1
  C  341  1  0.44027500  0.03179170  0.05417470  1
  C  342  1  0.55827600  0.02996570  0.08173070  1
  C  343  1  0.57236700  0.99278500  0.08933370  1
  C  344  1  0.54082100  0.97824400  0.11693800  1
  C  345  1  0.50530600  0.00556371  0.12784900  1
  C  346  1  0.54282800  0.94268800  0.13394500  1
  C  347  1  0.50864700  0.93463500  0.16317500  1
  C  348  1  0.47195500  0.96142000  0.17563100  1
  C  349  1  0.47070500  0.99717000  0.15744200  1
  C  350  1  0.58654200  0.05066770  0.05465270  1
  C  351  1  0.62868100  0.03386470  0.03554170  1
  C  352  1  0.64163300  0.99609000  0.04469770  1
  C  353  1  0.61371900  0.97541700  0.07120770  1
  C  366  1  0.51313200  0.04060770  0.10526700  1
  C  367  1  0.44023700  0.95262900  0.20608700  1
  C  368  1  0.65825500  0.05347870  0.00924868  1
  C  369  1  0.37017300  0.02967370  0.00751568  1
  C  370  1  0.58899600  0.12660800  0.20630600  1
  C  375  1  0.21771700  0.68846600  0.42442700  1
  C  376  1  0.20267900  0.69759700  0.38781000  1
  C  377  1  0.23441200  0.72540900  0.37382400  1
  C  378  1  0.27091400  0.73481800  0.40100000  1
  C  379  1  0.30664400  0.76373300  0.39297500  1
  C  380  1  0.30549100  0.78293100  0.35775300  1
  C  381  1  0.26762300  0.77216600  0.33112300  1
  C  382  1  0.23229000  0.74355300  0.33882200  1
  C  383  1  0.16114700  0.67989500  0.37024600  1
  C  384  1  0.13418100  0.65220100  0.39008900  1
  C  385  1  0.14778500  0.64172900  0.42743900  1
  C  386  1  0.19025800  0.66038200  0.44433000  1
  C  387  1  0.30827600  0.68789800  0.44614300  1
  C  388  1  0.32235700  0.69547900  0.48333300  1
  C  389  1  0.29085000  0.72311600  0.49786100  1
  C  390  1  0.25536800  0.73405600  0.47053200  1
  C  391  1  0.29287400  0.74013200  0.53341200  1
  C  392  1  0.25868200  0.76935300  0.54147500  1
  C  393  1  0.22198200  0.78180600  0.51469700  1
  C  394  1  0.22074500  0.76362900  0.47894000  1
  C  395  1  0.33655500  0.66083400  0.42543100  1
  C  396  1  0.37870500  0.64173200  0.44222200  1
  C  397  1  0.39167200  0.65088500  0.47999500  1
  C  398  1  0.36375200  0.67738600  0.50067700  1
  C  411  1  0.26314700  0.71144800  0.43549800  1
  C  412  1  0.19025400  0.81225400  0.52349300  1
  C  413  1  0.40826700  0.61543300  0.42260700  1
  C  414  1  0.12014800  0.61372800  0.44644700  1
  C  415  1  0.33907800  0.81244800  0.34949200  1
  C  420  1  0.71773900  0.39385300  0.44550200  1
  C  421  1  0.70270400  0.38472200  0.48212100  1
  C  422  1  0.73442200  0.35689600  0.49609400  1
  C  423  1  0.77091900  0.34748100  0.46891600  1
  C  424  1  0.80662800  0.31854900  0.47693300  1
  C  425  1  0.80549300  0.29936600  0.51216200  1
  C  426  1  0.76767300  0.31017500  0.53881500  1
  C  427  1  0.73235800  0.33880000  0.53112000  1
  C  428  1  0.66118000  0.40242700  0.49968700  1
  C  429  1  0.63420900  0.43012000  0.47984700  1
  C  430  1  0.64780700  0.44059000  0.44249500  1
  C  431  1  0.69027900  0.42193700  0.42560200  1
  C  432  1  0.80829500  0.39440700  0.42378500  1
  C  433  1  0.82237400  0.38683700  0.38659500  1
  C  434  1  0.79080900  0.35925300  0.37203800  1
  C  435  1  0.75534400  0.34828800  0.39937100  1
  C  436  1  0.79290000  0.34219500  0.33650700  1
  C  437  1  0.75875100  0.31294600  0.32845400  1
  C  438  1  0.72206300  0.30047300  0.35523000  1
  C  439  1  0.72078600  0.31867000  0.39097700  1
  C  440  1  0.83656900  0.42147000  0.44450400  1
  C  441  1  0.87870100  0.44059300  0.42770900  1
  C  442  1  0.89164100  0.43147300  0.38992300  1
  C  443  1  0.86371100  0.40498400  0.36923000  1
  C  456  1  0.76315800  0.37086200  0.43442100  1
  C  457  1  0.69036300  0.27000700  0.34643700  1
  C  458  1  0.90825100  0.46689100  0.44732800  1
  C  459  1  0.62016800  0.46858800  0.42348700  1
  C  460  1  0.83899200  0.26978800  0.52039700  1
  C  465  1  0.90851500  0.18465900  0.62963700  1
  C  467  1  0.87762300  0.19485900  0.56670900  1
  C  468  1  0.86884100  0.23333800  0.57531900  1
  C  470  1  0.89984900  0.22286000  0.63770000  1
  C  472  1  0.86521000  0.17801800  0.52988500  1
  C  478  1  0.40854600  0.89761900  0.24032600  1
  C  480  1  0.37746200  0.88741600  0.30319600  1
  C  481  1  0.36919700  0.84885000  0.29469800  1
  C  483  1  0.40023500  0.85936000  0.23232600  1
  C  485  1  0.36466100  0.90428800  0.33993300  1
  C  491  1  0.15847200  0.84646800  0.57847700  1
  C  493  1  0.12757500  0.90938800  0.58868400  1
  C  494  1  0.11902100  0.90082900  0.62720000  1
  C  496  1  0.14996000  0.83843400  0.61670400  1
  C  498  1  0.11505300  0.94619000  0.57183800  1
  C  504  1  0.65872500  0.23576100  0.29140700  1
  C  506  1  0.62749300  0.17292500  0.28125800  1
  C  507  1  0.61889500  0.18150100  0.24274800  1
  C  509  1  0.65018500  0.24381300  0.25319000  1
  C  511  1  0.61480800  0.13616600  0.29813000  1
  C  517  1  0.79506800  0.04085770  0.90336600  1
  C  519  1  0.72515900  0.00808371  0.93231400  1
  C  520  1  0.71682900  0.03898970  0.95669400  1
  C  522  1  0.78674200  0.07160270  0.92767300  1
  C  524  1  0.69485500  0.97295300  0.93357500  1
  C  530  1  0.29497400  0.04138470  0.96662100  1
  C  532  1  0.22496800  0.07412270  0.93775700  1
  C  533  1  0.21675900  0.04328170  0.91327300  1
  C  535  1  0.28680500  0.01072270  0.94218200  1
  C  537  1  0.19455200  0.10920500  0.93659600  1
  C  543  1  0.04493200  0.57284800  0.43475000  1
  C  545  1  0.97479200  0.54408800  0.40207700  1
  C  546  1  0.96661500  0.51955900  0.43289400  1
  C  548  1  0.03681500  0.54836900  0.46538800  1
  C  550  1  0.94427400  0.54300500  0.36704200  1
  C  556  1  0.54501800  0.50951900  0.43521800  1
  C  558  1  0.47494100  0.53833800  0.46790900  1
  C  559  1  0.46669100  0.56279700  0.43705200  1
  C  561  1  0.53682900  0.53393300  0.40453900  1
  C  563  1  0.44449200  0.53948600  0.50297600  1
  N  182  1  0.89747500  0.14423200  0.17234500  1
  N  185  1  0.87974800  0.21710300  0.18873600  1
  N  192  1  0.93172400  0.13618700  0.23364600  1
  N  193  1  0.84499400  0.23062400  0.13263300  1
  N  195  1  0.39725300  0.88181500  0.85366900  1
  N  198  1  0.38021300  0.80882700  0.83740400  1
  N  205  1  0.43175000  0.88984100  0.79243000  1
  N  206  1  0.34510600  0.79532200  0.89335700  1
  N  208  1  0.14738400  0.85367200  0.14422800  1
  N  211  1  0.12992500  0.83733400  0.21714800  1
  N  218  1  0.18173700  0.79239400  0.13620700  1
  N  219  1  0.09506500  0.89337400  0.23066600  1
  N  221  1  0.64741700  0.17235100  0.88180700  1
  N  224  1  0.63001200  0.18869000  0.80887800  1
  N  231  1  0.68189200  0.23358800  0.88983000  1
  N  232  1  0.59500200  0.13266300  0.79538700  1
  N  234  1  0.76381600  0.98255600  0.48504300  1
  N  237  1  0.74845600  0.04121000  0.53168800  1
  N  244  1  0.83125900  0.00871700  0.45592000  1
  N  245  1  0.68350100  0.00683500  0.56241400  1
  N  247  1  0.26363100  0.04338400  0.54113100  1
  N  250  1  0.24851800  0.98486900  0.49427500  1
  N  257  1  0.33121500  0.01729000  0.57013600  1
  N  258  1  0.18338000  0.01919300  0.46369000  1
  N  260  1  0.01348900  0.54124900  0.98272200  1
  N  263  1  0.99851300  0.49429200  0.04116500  1
  N  270  1  0.08117200  0.57018100  0.00876500  1
  N  271  1  0.93329900  0.46376000  0.00687200  1
  N  273  1  0.51362900  0.48490800  0.04337800  1
  N  276  1  0.49850900  0.53173800  0.98485200  1
  N  283  1  0.58123200  0.45590600  0.01729600  1
  N  284  1  0.43341700  0.56236300  0.01917400  1
  N  466  1  0.89747500  0.17236200  0.59429100  1
  N  469  1  0.87974800  0.24523300  0.61068200  1
  N  476  1  0.93172400  0.16431700  0.65559200  1
  N  477  1  0.84499400  0.25875400  0.55457900  1
  N  479  1  0.39725300  0.90994500  0.27561500  1
  N  482  1  0.38021300  0.83695700  0.25935000  1
  N  489  1  0.43175000  0.91797100  0.21437600  1
  N  490  1  0.34510600  0.82345200  0.31530300  1
  N  492  1  0.14738400  0.88180200  0.56617400  1
  N  495  1  0.12992500  0.86546400  0.63909400  1
  N  502  1  0.18173700  0.82052400  0.55815300  1
  N  503  1  0.09506500  0.92150400  0.65261200  1
  N  505  1  0.64741700  0.20048100  0.30375300  1
  N  508  1  0.63001200  0.21682000  0.23082400  1
  N  515  1  0.68189200  0.26171800  0.31177600  1
  N  516  1  0.59500200  0.16079300  0.21733300  1
  N  518  1  0.76381600  0.01068570  0.90698900  1
  N  521  1  0.74845600  0.06933970  0.95363400  1
  N  528  1  0.83125900  0.03684670  0.87786600  1
  N  529  1  0.68350100  0.03496470  0.98436000  1
  N  531  1  0.26363100  0.07151370  0.96307700  1
  N  534  1  0.24851800  0.01299870  0.91622100  1
  N  541  1  0.33121500  0.04541970  0.99208200  1
  N  542  1  0.18338000  0.04732270  0.88563600  1
  N  544  1  0.01348900  0.56937900  0.40466800  1
  N  547  1  0.99851300  0.52242200  0.46311100  1
  N  554  1  0.08117200  0.59831100  0.43071100  1
  N  555  1  0.93329900  0.49189000  0.42881800  1
  N  557  1  0.51362900  0.51303800  0.46532400  1
  N  560  1  0.49850900  0.55986800  0.40679800  1
  N  567  1  0.58123200  0.48403600  0.43924200  1
  N  568  1  0.43341700  0.59049300  0.44112000  1
