# generated using pymatgen
data_Cr6H29C48NO28
_symmetry_space_group_name_H-M   'P 1'
_cell_length_a   10.65259000
_cell_length_b   10.70393000
_cell_length_c   16.84549000
_cell_angle_alpha   81.12487000
_cell_angle_beta   80.78698000
_cell_angle_gamma   61.65225000
_symmetry_Int_Tables_number   1
_chemical_formula_structural   Cr6H29C48NO28
_chemical_formula_sum   'Cr6 H29 C48 N1 O28'
_cell_volume   1661.86948833
_cell_formula_units_Z   1
loop_
 _symmetry_equiv_pos_site_id
 _symmetry_equiv_pos_as_xyz
  1  'x, y, z'
loop_
 _atom_site_type_symbol
 _atom_site_label
 _atom_site_symmetry_multiplicity
 _atom_site_fract_x
 _atom_site_fract_y
 _atom_site_fract_z
 _atom_site_occupancy
  Cr  Cr0  1  0.61104000  0.60834000  0.47957000  1
  Cr  Cr1  1  0.60112000  0.28765000  0.51065000  1
  Cr  Cr2  1  0.28787000  0.60404000  0.50972000  1
  Cr  Cr3  1  0.05270000  0.05402000  0.02915000  1
  Cr  Cr4  1  0.37512000  0.05923000  0.00661000  1
  Cr  Cr5  1  0.06120000  0.37495000  0.00766000  1
  H  H6  1  0.50575000  0.57588000  0.73075000  1
  H  H7  1  0.25744000  0.66450000  0.84332000  1
  H  H8  1  0.10517000  0.88040000  0.72115000  1
  H  H9  1  0.18632000  0.06703000  0.78591000  1
  H  H10  1  0.58169000  0.76420000  0.79244000  1
  H  H11  1  0.63684000  0.31698000  0.76142000  1
  H  H12  1  0.69661000  0.50308000  0.83526000  1
  H  H13  1  0.84349000  0.54939000  0.68428000  1
  H  H14  1  0.10178000  0.31692000  0.73585000  1
  H  H15  1  0.02735000  0.12899000  0.66227000  1
  H  H16  1  0.89201000  0.08581000  0.81009000  1
  H  H17  1  0.08811000  0.45400000  0.32961000  1
  H  H18  1  0.20025000  0.19503000  0.25671000  1
  H  H19  1  0.45838000  0.09145000  0.32895000  1
  H  H20  1  0.57199000  0.20572000  0.18783000  1
  H  H21  1  0.55583000  0.70391000  0.19380000  1
  H  H22  1  0.72033000  0.54702000  0.19861000  1
  H  H23  1  0.65738000  0.62839000  0.10184000  1
  H  H24  1  0.62138000  0.41072000  0.14560000  1
  H  H25  1  0.45830000  0.57137000  0.12889000  1
  H  H26  1  0.40453000  0.59376000  0.27806000  1
  H  H27  1  0.56710000  0.43512000  0.29591000  1
  H  H28  1  0.49178000  0.06338000  0.49230000  1
  H  H29  1  0.38659000  0.97325000  0.49101000  1
  H  H30  1  0.30610000  0.15644000  0.46737000  1
  H  H31  1  0.23230000  0.08086000  0.60597000  1
  H  H32  1  0.28590000  0.21443000  0.60063000  1
  H  H33  1  0.44669000  0.07835000  0.69359000  1
  H  H34  1  0.54483000  0.94432000  0.62468000  1
  C  C35  1  0.77172000  0.35609000  0.60211000  1
  C  C36  1  0.37405000  0.40648000  0.64245000  1
  C  C37  1  0.37763000  0.77316000  0.59953000  1
  C  C38  1  0.78368000  0.35110000  0.37585000  1
  C  C39  1  0.34843000  0.37045000  0.41257000  1
  C  C40  1  0.37519000  0.78328000  0.37270000  1
  C  C41  1  0.36140000  0.37565000  0.72731000  1
  C  C42  1  0.34373000  0.34958000  0.79854000  1
  C  C43  1  0.29443000  0.73597000  0.80363000  1
  C  C44  1  0.43377000  0.68686000  0.74515000  1
  C  C45  1  0.35031000  0.80627000  0.68179000  1
  C  C46  1  0.21168000  0.85399000  0.73867000  1
  C  C47  1  0.25251000  0.95724000  0.76950000  1
  C  C48  1  0.39042000  0.90750000  0.71198000  1
  C  C49  1  0.47461000  0.79051000  0.77582000  1
  C  C50  1  0.33552000  0.83852000  0.83300000  1
  C  C51  1  0.77292000  0.42084000  0.79470000  1
  C  C52  1  0.74131000  0.31800000  0.75649000  1
  C  C53  1  0.82554000  0.34035000  0.67778000  1
  C  C54  1  0.85564000  0.44491000  0.71433000  1
  C  C55  1  0.99651000  0.31722000  0.74062000  1
  C  C56  1  0.96333000  0.21438000  0.70248000  1
  C  C57  1  0.88066000  0.19111000  0.78196000  1
  C  C58  1  0.91253000  0.29382000  0.81942000  1
  C  C59  1  0.26073000  0.45932000  0.22322000  1
  C  C60  1  0.40198000  0.40376000  0.25888000  1
  C  C61  1  0.33921000  0.34157000  0.33383000  1
  C  C62  1  0.19692000  0.39882000  0.29747000  1
  C  C63  1  0.25903000  0.25639000  0.25894000  1
  C  C64  1  0.40171000  0.19884000  0.29688000  1
  C  C65  1  0.46404000  0.26140000  0.22076000  1
  C  C66  1  0.32160000  0.32055000  0.18453000  1
  C  C67  1  0.32431000  0.85555000  0.29621000  1
  C  C68  1  0.29050000  0.90044000  0.22850000  1
  C  C69  1  0.85395000  0.31652000  0.29659000  1
  C  C70  1  0.89877000  0.27955000  0.22931000  1
  C  C71  1  0.31381000  0.88627000  0.91177000  1
  C  C72  1  0.30286000  0.32189000  0.88081000  1
  C  C73  1  0.95620000  0.25909000  0.90047000  1
  C  C74  1  0.27472000  0.94425000  0.14416000  1
  C  C75  1  0.29429000  0.30877000  0.10683000  1
  C  C76  1  0.94441000  0.24555000  0.14715000  1
  C  C77  1  0.48181000  0.49091000  0.25538000  1
  C  C78  1  0.54529000  0.51481000  0.16925000  1
  C  C79  1  0.62416000  0.60356000  0.16573000  1
  C  C80  1  0.43679000  0.00807000  0.65563000  1
  C  C81  1  0.32639000  0.09983000  0.59423000  1
  C  C82  1  0.38329000  0.07093000  0.50646000  1
  N  N83  1  0.18398000  0.60410000  0.18553000  1
  O  O84  1  0.49923000  0.75122000  0.56483000  1
  O  O85  1  0.72760000  0.47722000  0.56313000  1
  O  O86  1  0.74512000  0.25865000  0.58853000  1
  O  O87  1  0.46724000  0.29707000  0.60404000  1
  O  O88  1  0.25261000  0.48883000  0.61221000  1
  O  O89  1  0.30239000  0.72440000  0.57902000  1
  O  O90  1  0.50121000  0.75210000  0.38781000  1
  O  O91  1  0.72944000  0.47804000  0.39903000  1
  O  O92  1  0.74711000  0.25953000  0.41151000  1
  O  O93  1  0.46908000  0.29788000  0.43995000  1
  O  O94  1  0.25459000  0.48972000  0.43519000  1
  O  O95  1  0.30423000  0.72522000  0.41492000  1
  O  O96  1  0.50001000  0.50001000  0.49998000  1
  O  O97  1  0.91388000  0.17183000  0.94249000  1
  O  O98  1  0.18605000  0.94069000  0.94527000  1
  O  O99  1  0.40572000  0.92047000  0.92499000  1
  O  O100  1  0.37046000  0.19669000  0.91588000  1
  O  O101  1  0.18075000  0.41299000  0.90839000  1
  O  O102  1  0.94313000  0.36662000  0.93424000  1
  O  O103  1  0.90633000  0.16051000  0.12079000  1
  O  O104  1  0.17905000  0.93019000  0.11055000  1
  O  O105  1  0.39817000  0.90914000  0.10329000  1
  O  O106  1  0.36346000  0.18619000  0.08117000  1
  O  O107  1  0.17320000  0.40167000  0.08669000  1
  O  O108  1  0.93613000  0.35612000  0.09953000  1
  O  O109  1  0.16301000  0.16274000  0.01447000  1
  O  O110  1  0.11217000  0.70896000  0.23089000  1
  O  O111  1  0.20155000  0.63180000  0.10780000  1
