# generated using pymatgen
data_Sm2H36(C17O4)3
_symmetry_space_group_name_H-M   'P 1'
_cell_length_a   11.63178000
_cell_length_b   13.64928000
_cell_length_c   23.98546057
_cell_angle_alpha   76.36766826
_cell_angle_beta   76.10187988
_cell_angle_gamma   67.27177000
_symmetry_Int_Tables_number   1
_chemical_formula_structural   Sm2H36(C17O4)3
_chemical_formula_sum   'Sm4 H72 C102 O24'
_cell_volume   3365.83237128
_cell_formula_units_Z   2
loop_
 _symmetry_equiv_pos_site_id
 _symmetry_equiv_pos_as_xyz
  1  'x, y, z'
loop_
 _atom_site_type_symbol
 _atom_site_label
 _atom_site_symmetry_multiplicity
 _atom_site_fract_x
 _atom_site_fract_y
 _atom_site_fract_z
 _atom_site_occupancy
  Sm  Sm1  1  0.33252000  0.58997000  0.04082000  1.0
  Sm  Sm2  1  0.14123000  0.29229000  0.48265000  1.0
  Sm  Sm3  1  0.66703000  0.40854000  0.95959000  1.0
  Sm  Sm4  1  0.85863000  0.70867000  0.51691000  1.0
  H  H1  1  0.29536000  0.86705000  0.14213000  1.0
  H  H2  1  0.09829000  0.65477000  0.24153000  1.0
  H  H3  1  0.03886000  0.75100000  0.32774000  1.0
  H  H4  1  0.41769000  0.01531000  0.23943000  1.0
  H  H5  1  0.44041000  0.93453000  0.18668000  1.0
  H  H6  1  0.42874000  0.87862000  0.26222000  1.0
  H  H7  1  0.22561000  0.15186000  0.19467000  1.0
  H  H8  1  0.23533000  0.06782000  0.14604000  1.0
  H  H9  1  0.09391000  0.11455000  0.19624000  1.0
  H  H10  1  0.00424000  0.87775000  0.40186000  1.0
  H  H11  1  0.23155000  0.13594000  0.30715000  1.0
  H  H12  1  0.00520000  0.01277000  0.45607000  1.0
  H  H13  1  0.17223000  0.11199000  0.67956000  1.0
  H  H14  1  0.50078000  0.98539000  0.55241000  1.0
  H  H15  1  0.61044000  0.84996000  0.63105000  1.0
  H  H16  1  0.22512000  0.04486000  0.85249000  1.0
  H  H17  1  0.33340000  0.08637000  0.79498000  1.0
  H  H18  1  0.17130000  0.12954000  0.78819000  1.0
  H  H19  1  0.17543000  0.86233000  0.76886000  1.0
  H  H20  1  0.13106000  0.90811000  0.83725000  1.0
  H  H21  1  0.07880000  0.99877000  0.77430000  1.0
  H  H22  1  0.32616000  0.83609000  0.89136000  1.0
  H  H23  1  0.67913000  0.72710000  0.72521000  1.0
  H  H24  1  0.69957000  0.62995000  0.82795000  1.0
  H  H25  1  0.28071000  0.29876000  0.61029000  1.0
  H  H26  1  0.00424000  0.59515000  0.66095000  1.0
  H  H27  1  0.38553000  0.26539000  0.69642000  1.0
  H  H28  1  0.96807000  0.50890000  0.81536000  1.0
  H  H29  1  0.90393000  0.63283000  0.76949000  1.0
  H  H30  1  0.95502000  0.63255000  0.83370000  1.0
  H  H31  1  0.21155000  0.68122000  0.70848000  1.0
  H  H32  1  0.04695000  0.73383000  0.70553000  1.0
  H  H33  1  0.10090000  0.73757000  0.76808000  1.0
  H  H34  1  0.47075000  0.28387000  0.78547000  1.0
  H  H35  1  0.16554000  0.61587000  0.86505000  1.0
  H  H36  1  0.50550000  0.33597000  0.87174000  1.0
  H  H37  1  0.70437000  0.13259000  0.85782000  1.0
  H  H38  1  0.90130000  0.34498000  0.75865000  1.0
  H  H39  1  0.96110000  0.24891000  0.67241000  1.0
  H  H40  1  0.58218000  0.98468000  0.76056000  1.0
  H  H41  1  0.55958000  0.06544000  0.81330000  1.0
  H  H42  1  0.57126000  0.12134000  0.73777000  1.0
  H  H43  1  0.77443000  0.84798000  0.80534000  1.0
  H  H44  1  0.76469000  0.93214000  0.85392000  1.0
  H  H45  1  0.90607000  0.88540000  0.80373000  1.0
  H  H46  1  0.99579000  0.12207000  0.59803000  1.0
  H  H47  1  0.76838000  0.86392000  0.69288000  1.0
  H  H48  1  0.99473000  0.98703000  0.54391000  1.0
  H  H49  1  0.82781000  0.88809000  0.32044000  1.0
  H  H50  1  0.49923000  0.01485000  0.44748000  1.0
  H  H51  1  0.38955000  0.15007000  0.36885000  1.0
  H  H52  1  0.77500000  0.95497000  0.14748000  1.0
  H  H53  1  0.66672000  0.91363000  0.20499000  1.0
  H  H54  1  0.82881000  0.87031000  0.21176000  1.0
  H  H55  1  0.82474000  0.13752000  0.23113000  1.0
  H  H56  1  0.86927000  0.09179000  0.16274000  1.0
  H  H57  1  0.92151000  0.00114000  0.22569000  1.0
  H  H58  1  0.67443000  0.16339000  0.10854000  1.0
  H  H59  1  0.32125000  0.27327000  0.27419000  1.0
  H  H60  1  0.30126000  0.37022000  0.17151000  1.0
  H  H61  1  0.71963000  0.70128000  0.38986000  1.0
  H  H62  1  0.99601000  0.40483000  0.33922000  1.0
  H  H63  1  0.61471000  0.73467000  0.30369000  1.0
  H  H64  1  0.03201000  0.49112000  0.18464000  1.0
  H  H65  1  0.09621000  0.36716000  0.23050000  1.0
  H  H66  1  0.04485000  0.36750000  0.16634000  1.0
  H  H67  1  0.78845000  0.31886000  0.29156000  1.0
  H  H68  1  0.95306000  0.26616000  0.29452000  1.0
  H  H69  1  0.89908000  0.26264000  0.23192000  1.0
  H  H70  1  0.52965000  0.71691000  0.21527000  1.0
  H  H71  1  0.83361000  0.38467000  0.13520000  1.0
  H  H72  1  0.49374000  0.66495000  0.12912000  1.0
  C  C1  1  0.22915000  0.70320000  0.13507000  1.0
  C  C2  1  0.19870000  0.75577000  0.18712000  1.0
  C  C3  1  0.24058000  0.84188000  0.18270000  1.0
  C  C4  1  0.12774000  0.72234000  0.23944000  1.0
  C  C5  1  0.21105000  0.89323000  0.23033000  1.0
  C  C6  1  0.09557000  0.77522000  0.28740000  1.0
  C  C7  1  0.13761000  0.86097000  0.28247000  1.0
  C  C8  1  0.24777000  0.98584000  0.23578000  1.0
  C  C9  1  0.11989000  0.93046000  0.32423000  1.0
  C  C10  1  0.39278000  0.95124000  0.23066000  1.0
  C  C11  1  0.18289000  0.00424000  0.29738000  1.0
  C  C12  1  0.19750000  0.08621000  0.19043000  1.0
  C  C13  1  0.05472000  0.93301000  0.38149000  1.0
  C  C14  1  0.18309000  0.07914000  0.32733000  1.0
  C  C15  1  0.05471000  0.00885000  0.41156000  1.0
  C  C16  1  0.11825000  0.08173000  0.38488000  1.0
  C  C17  1  0.12055000  0.16014000  0.41720000  1.0
  C  C18  1  0.26477000  0.13710000  0.56621000  1.0
  C  C19  1  0.33119000  0.05620000  0.61162000  1.0
  C  C20  1  0.26702000  0.05426000  0.66953000  1.0
  C  C21  1  0.45435000  0.98251000  0.59762000  1.0
  C  C22  1  0.32733000  0.97903000  0.71271000  1.0
  C  C23  1  0.51488000  0.90643000  0.64127000  1.0
  C  C24  1  0.27807000  0.96136000  0.77763000  1.0
  C  C25  1  0.45068000  0.90474000  0.69867000  1.0
  C  C26  1  0.25036000  0.06174000  0.80497000  1.0
  C  C27  1  0.39016000  0.86741000  0.79875000  1.0
  C  C28  1  0.15847000  0.93059000  0.79025000  1.0
  C  C29  1  0.49040000  0.83617000  0.75222000  1.0
  C  C30  1  0.40209000  0.81444000  0.85492000  1.0
  C  C31  1  0.60332000  0.75079000  0.76165000  1.0
  C  C32  1  0.51511000  0.72847000  0.86461000  1.0
  C  C33  1  0.61500000  0.69778000  0.81836000  1.0
  C  C34  1  0.52517000  0.66690000  0.92406000  1.0
  C  C35  1  0.08422000  0.47327000  0.57675000  1.0
  C  C36  1  0.13889000  0.44866000  0.63044000  1.0
  C  C37  1  0.24496000  0.35533000  0.64094000  1.0
  C  C38  1  0.08684000  0.52380000  0.66928000  1.0
  C  C39  1  0.30303000  0.33719000  0.68884000  1.0
  C  C40  1  0.14496000  0.50596000  0.71662000  1.0
  C  C41  1  0.25383000  0.41407000  0.72638000  1.0
  C  C42  1  0.10924000  0.57763000  0.76242000  1.0
  C  C43  1  0.29720000  0.42123000  0.77727000  1.0
  C  C44  1  0.97603000  0.58837000  0.79753000  1.0
  C  C45  1  0.11752000  0.68940000  0.73429000  1.0
  C  C46  1  0.21236000  0.51556000  0.79956000  1.0
  C  C47  1  0.40385000  0.35547000  0.80293000  1.0
  C  C48  1  0.23059000  0.54324000  0.84794000  1.0
  C  C49  1  0.42366000  0.38455000  0.85085000  1.0
  C  C50  1  0.33731000  0.47696000  0.87389000  1.0
  C  C51  1  0.35858000  0.50639000  0.92540000  1.0
  C  C52  1  0.77072000  0.29694000  0.86474000  1.0
  C  C53  1  0.80082000  0.24401000  0.81293000  1.0
  C  C54  1  0.75924000  0.15779000  0.81734000  1.0
  C  C55  1  0.87203000  0.27733000  0.76069000  1.0
  C  C56  1  0.78886000  0.10662000  0.76965000  1.0
  C  C57  1  0.90432000  0.22465000  0.71271000  1.0
  C  C58  1  0.86242000  0.13883000  0.71755000  1.0
  C  C59  1  0.75221000  0.01404000  0.76419000  1.0
  C  C60  1  0.88007000  0.06950000  0.67573000  1.0
  C  C61  1  0.60720000  0.04870000  0.76932000  1.0
  C  C62  1  0.81708000  0.99566000  0.70261000  1.0
  C  C63  1  0.80249000  0.91368000  0.80955000  1.0
  C  C64  1  0.94532000  0.06684000  0.61846000  1.0
  C  C65  1  0.81688000  0.92074000  0.67273000  1.0
  C  C66  1  0.94534000  0.99095000  0.58842000  1.0
  C  C67  1  0.88175000  0.91820000  0.61521000  1.0
  C  C68  1  0.87942000  0.83970000  0.58296000  1.0
  C  C69  1  0.73518000  0.86296000  0.43376000  1.0
  C  C70  1  0.66889000  0.94383000  0.38833000  1.0
  C  C71  1  0.73300000  0.94583000  0.33038000  1.0
  C  C72  1  0.54573000  0.01756000  0.40228000  1.0
  C  C73  1  0.67266000  0.02110000  0.28719000  1.0
  C  C74  1  0.48515000  0.09366000  0.35864000  1.0
  C  C75  1  0.72205000  0.03874000  0.22227000  1.0
  C  C76  1  0.54925000  0.09540000  0.30117000  1.0
  C  C77  1  0.74976000  0.93823000  0.19500000  1.0
  C  C78  1  0.61006000  0.13284000  0.20104000  1.0
  C  C79  1  0.84179000  0.06929000  0.20973000  1.0
  C  C80  1  0.50964000  0.16420000  0.24755000  1.0
  C  C81  1  0.59831000  0.18559000  0.14487000  1.0
  C  C82  1  0.39726000  0.24971000  0.23772000  1.0
  C  C83  1  0.48598000  0.27128000  0.13454000  1.0
  C  C84  1  0.38585000  0.30255000  0.18088000  1.0
  C  C85  1  0.47617000  0.33168000  0.07473000  1.0
  C  C86  1  0.91563000  0.52688000  0.42345000  1.0
  C  C87  1  0.86130000  0.55142000  0.36975000  1.0
  C  C88  1  0.75519000  0.64472000  0.35925000  1.0
  C  C89  1  0.91334000  0.47620000  0.33095000  1.0
  C  C90  1  0.69725000  0.66289000  0.31137000  1.0
  C  C91  1  0.85543000  0.49405000  0.28364000  1.0
  C  C92  1  0.74659000  0.58604000  0.27388000  1.0
  C  C93  1  0.89092000  0.42250000  0.23779000  1.0
  C  C94  1  0.70297000  0.57922000  0.22307000  1.0
  C  C95  1  0.02403000  0.41167000  0.20251000  1.0
  C  C96  1  0.88248000  0.31070000  0.26578000  1.0
  C  C97  1  0.78770000  0.48480000  0.20077000  1.0
  C  C98  1  0.59619000  0.64524000  0.19765000  1.0
  C  C99  1  0.76885000  0.45723000  0.15257000  1.0
  C  C100  1  0.57567000  0.61615000  0.14990000  1.0
  C  C101  1  0.66198000  0.52347000  0.12690000  1.0
  C  C102  1  0.64022000  0.49407000  0.07558000  1.0
  O  O1  1  0.20954000  0.61524000  0.13804000  1.0
  O  O2  1  0.42914000  0.69043000  0.96365000  1.0
  O  O3  1  0.27804000  0.74660000  0.08621000  1.0
  O  O4  1  0.62984000  0.58884000  0.93229000  1.0
  O  O5  1  0.05730000  0.16771000  0.46909000  1.0
  O  O6  1  0.18631000  0.22171000  0.39331000  1.0
  O  O7  1  0.32483000  0.15641000  0.51425000  1.0
  O  O8  1  0.14599000  0.19104000  0.57866000  1.0
  O  O9  1  0.26707000  0.56794000  0.95654000  1.0
  O  O10  1  0.47117000  0.46884000  0.93752000  1.0
  O  O11  1  0.98530000  0.55716000  0.57058000  1.0
  O  O12  1  0.13886000  0.41199000  0.53813000  1.0
  O  O13  1  0.78981000  0.38507000  0.86124000  1.0
  O  O14  1  0.57400000  0.30715000  0.03543000  1.0
  O  O15  1  0.72257000  0.25330000  0.91391000  1.0
  O  O16  1  0.37183000  0.40806000  0.06593000  1.0
  O  O17  1  0.94313000  0.83144000  0.53111000  1.0
  O  O18  1  0.81349000  0.77858000  0.60662000  1.0
  O  O19  1  0.67532000  0.84353000  0.48572000  1.0
  O  O20  1  0.85407000  0.80877000  0.42133000  1.0
  O  O21  1  0.73146000  0.43317000  0.04395000  1.0
  O  O22  1  0.52644000  0.53115000  0.06488000  1.0
  O  O23  1  0.01468000  0.44306000  0.42971000  1.0
  O  O24  1  0.86141000  0.58793000  0.46206000  1.0
