# generated using pymatgen
data_ZnH6(C3O)4
_symmetry_space_group_name_H-M   'P 1'
_cell_length_a   7.37510000
_cell_length_b   11.66530000
_cell_length_c   12.38845334
_cell_angle_alpha   118.08710989
_cell_angle_beta   99.07692162
_cell_angle_gamma   90.00000000
_symmetry_Int_Tables_number   1
_chemical_formula_structural   ZnH6(C3O)4
_chemical_formula_sum   'Zn2 H12 C24 O8'
_cell_volume   925.13923265
_cell_formula_units_Z   2
loop_
 _symmetry_equiv_pos_site_id
 _symmetry_equiv_pos_as_xyz
  1  'x, y, z'
loop_
 _atom_site_type_symbol
 _atom_site_label
 _atom_site_symmetry_multiplicity
 _atom_site_fract_x
 _atom_site_fract_y
 _atom_site_fract_z
 _atom_site_occupancy
  C  C1  1  0.05550000  0.99330000  0.82980000  1.0
  C  C2  1  0.05430000  0.97920000  0.70160000  1.0
  C  C3  1  0.16250000  0.90490000  0.62460000  1.0
  C  C4  1  0.15830000  0.90010000  0.50580000  1.0
  C  C5  1  0.05890000  0.96270000  0.46220000  1.0
  C  C6  1  0.94470000  0.04520000  0.65880000  1.0
  C  C7  1  0.44450000  0.16350000  0.17020000  1.0
  C  C8  1  0.44570000  0.27760000  0.29840000  1.0
  C  C9  1  0.33750000  0.28030000  0.37540000  1.0
  C  C10  1  0.34170000  0.39430000  0.49420000  1.0
  C  C11  1  0.44110000  0.50050000  0.53780000  1.0
  C  C12  1  0.55530000  0.38640000  0.34120000  1.0
  C  C13  1  0.94450000  0.00670000  0.17020000  1.0
  C  C14  1  0.94570000  0.02080000  0.29840000  1.0
  C  C15  1  0.83750000  0.09510000  0.37540000  1.0
  C  C16  1  0.84170000  0.09990000  0.49420000  1.0
  C  C17  1  0.94110000  0.03730000  0.53780000  1.0
  C  C18  1  0.05530000  0.95480000  0.34120000  1.0
  C  C19  1  0.55550000  0.83650000  0.82980000  1.0
  C  C20  1  0.55430000  0.72240000  0.70160000  1.0
  C  C21  1  0.66250000  0.71970000  0.62460000  1.0
  C  C22  1  0.65830000  0.60570000  0.50580000  1.0
  C  C23  1  0.55890000  0.49950000  0.46220000  1.0
  C  C24  1  0.44470000  0.61360000  0.65880000  1.0
  H  H1  1  0.24210000  0.85520000  0.64740000  1.0
  H  H2  1  0.23680000  0.84540000  0.45600000  1.0
  H  H3  1  0.86630000  0.09930000  0.70920000  1.0
  H  H4  1  0.25790000  0.20780000  0.35260000  1.0
  H  H5  1  0.26320000  0.38940000  0.54400000  1.0
  H  H6  1  0.63370000  0.39010000  0.29080000  1.0
  H  H7  1  0.75790000  0.14480000  0.35260000  1.0
  H  H8  1  0.76320000  0.15460000  0.54400000  1.0
  H  H9  1  0.13370000  0.90070000  0.29080000  1.0
  H  H10  1  0.74210000  0.79220000  0.64740000  1.0
  H  H11  1  0.73680000  0.61060000  0.45600000  1.0
  H  H12  1  0.36630000  0.60990000  0.70920000  1.0
  O  O1  1  0.13140000  0.90559000  0.84678000  1.0
  O  O2  1  0.98690000  0.08776000  0.90492000  1.0
  O  O3  1  0.36860000  0.05881000  0.15322000  1.0
  O  O4  1  0.51310000  0.18284000  0.09508000  1.0
  O  O5  1  0.86860000  0.09441000  0.15322000  1.0
  O  O6  1  0.01310000  0.91224000  0.09508000  1.0
  O  O7  1  0.63140000  0.94119000  0.84678000  1.0
  O  O8  1  0.48690000  0.81716000  0.90492000  1.0
  Zn  Zn1  1  0.25000000  0.88397000  0.00000000  1.0
  Zn  Zn2  1  0.75000000  0.11603000  0.00000000  1.0
