# generated using pymatgen
data_H9C15N4
_symmetry_space_group_name_H-M   'P 1'
_cell_length_a   15.37340000
_cell_length_b   17.04560000
_cell_length_c   47.20890000
_cell_angle_alpha   87.67030000
_cell_angle_beta   90.00010000
_cell_angle_gamma   90.00430000
_symmetry_Int_Tables_number   1
_chemical_formula_structural   H9C15N4
_chemical_formula_sum   'H72 C120 N32'
_cell_volume   12360.81165504
_cell_formula_units_Z   8
loop_
 _symmetry_equiv_pos_site_id
 _symmetry_equiv_pos_as_xyz
  1  'x, y, z'
loop_
 _atom_site_type_symbol
 _atom_site_label
 _atom_site_symmetry_multiplicity
 _atom_site_fract_x
 _atom_site_fract_y
 _atom_site_fract_z
 _atom_site_occupancy
  C  1  1  0.68572400  0.24090850  0.87242125  1
  C  2  1  0.65673800  0.17370600  0.85787500  1
  C  3  1  0.66232500  0.17300050  0.82782900  1
  C  4  1  0.69176000  0.24062300  0.81282200  1
  C  5  1  0.71906700  0.30776500  0.82659700  1
  C  6  1  0.71972400  0.30721150  0.85662800  1
  C  7  1  0.62397300  0.10922250  0.87412750  1
  C  8  1  0.75571300  0.36952300  0.87148375  1
  C  10  1  0.68163400  0.24173200  0.90273400  1
  C  11  1  0.63976800  0.17935200  0.91849000  1
  C  12  1  0.62935900  0.18379050  0.94844000  1
  C  13  1  0.67679100  0.24193250  0.96250700  1
  C  14  1  0.72316700  0.30213700  0.94749700  1
  C  15  1  0.72046000  0.30444600  0.91736400  1
  C  16  1  0.61535600  0.11231400  0.90363000  1
  C  18  1  0.75812900  0.36722800  0.90113725  1
  C  27  1  0.68345400  0.75909750  0.62250100  1
  C  28  1  0.65465600  0.82596300  0.63725700  1
  C  29  1  0.65971300  0.82566950  0.66731500  1
  C  30  1  0.68808500  0.75738250  0.68214000  1
  C  31  1  0.71573600  0.69068900  0.66816025  1
  C  32  1  0.71710200  0.69229600  0.63810700  1
  C  33  1  0.62238600  0.89107150  0.62122900  1
  C  34  1  0.75358900  0.63065500  0.62302600  1
  C  36  1  0.67973900  0.75925300  0.59216850  1
  C  37  1  0.63821500  0.82216650  0.57658800  1
  C  38  1  0.62805400  0.81853950  0.54659600  1
  C  39  1  0.67545850  0.76066700  0.53236950  1
  C  40  1  0.72168700  0.70010650  0.54722400  1
  C  41  1  0.71866300  0.69696400  0.57734850  1
  C  42  1  0.61402200  0.88885450  0.59168750  1
  C  44  1  0.75636000  0.63384400  0.59338100  1
  C  53  1  0.12771100  0.76323900  0.12267350  1
  C  54  1  0.15785100  0.83013050  0.13716550  1
  C  55  1  0.15236800  0.83108050  0.16720400  1
  C  56  1  0.12185400  0.76394400  0.18226200  1
  C  57  1  0.09344800  0.69707550  0.16854050  1
  C  58  1  0.09263400  0.69748600  0.13850850  1
  C  59  1  0.19156100  0.89411700  0.12086675  1
  C  60  1  0.05555100  0.63561800  0.12368450  1
  C  62  1  0.13190400  0.76211250  0.09237050  1
  C  63  1  0.17508800  0.82369350  0.07660400  1
  C  64  1  0.18611400  0.81867000  0.04669800  1
  C  65  1  0.13755750  0.76130700  0.03263300  1
  C  66  1  0.08955800  0.70206450  0.04762050  1
  C  67  1  0.09203000  0.69988500  0.07776000  1
  C  68  1  0.20018400  0.89067400  0.09138350  1
  C  70  1  0.05306900  0.63784350  0.09402250  1
  C  79  1  0.13010200  0.24428400  0.37213800  1
  C  80  1  0.15981600  0.17790900  0.35728150  1
  C  81  1  0.15536600  0.17870850  0.32720650  1
  C  82  1  0.12668000  0.24706700  0.31249050  1
  C  83  1  0.09817600  0.31329500  0.32657750  1
  C  84  1  0.09610800  0.31109450  0.35663025  1
  C  85  1  0.19247300  0.11282150  0.37323150  1
  C  86  1  0.05855600  0.37207100  0.37180100  1
  C  88  1  0.13343200  0.24370900  0.40247850  1
  C  89  1  0.17569400  0.18106600  0.41796500  1
  C  90  1  0.18612300  0.18457650  0.44795100  1
  C  91  1  0.13772100  0.24157100  0.46227000  1
  C  92  1  0.09036400  0.30166300  0.44752400  1
  C  93  1  0.09357800  0.30533000  0.41739750  1
  C  94  1  0.20052500  0.11471700  0.40278400  1
  C  96  1  0.05527200  0.36829300  0.40144650  1
  C  105  1  0.76423100  0.47192100  0.77533200  1
  C  107  1  0.76535500  0.44167700  0.72585100  1
  C  108  1  0.76190700  0.52302800  0.71832650  1
  C  110  1  0.76517900  0.55250950  0.76769700  1
  C  112  1  0.76489500  0.37846100  0.70529950  1
  C  116  1  0.75836100  0.44393900  0.80358300  1
  C  118  1  0.75463500  0.55375950  0.69036500  1
  C  120  1  0.61917300  0.97971600  0.71923250  1
  C  122  1  0.61526600  0.93687600  0.76867600  1
  C  123  1  0.61919450  0.01609900  0.77684650  1
  C  125  1  0.61932600  0.05819250  0.72748650  1
  C  127  1  0.61307900  0.86828800  0.78888150  1
  C  131  1  0.62325900  0.95919950  0.69068600  1
  C  133  1  0.62303800  0.03933500  0.80516875  1
  C  135  1  0.04753000  0.53309600  0.21979200  1
  C  137  1  0.04786200  0.56284200  0.26932500  1
  C  138  1  0.05099100  0.48141700  0.27674000  1
  C  140  1  0.04626350  0.45244650  0.22733250  1
  C  142  1  0.04939100  0.62582550  0.28996425  1
  C  146  1  0.05293600  0.56131300  0.19155050  1
  C  148  1  0.05867000  0.45035650  0.30464650  1
  C  150  1  0.19812800  0.02476000  0.27550150  1
  C  152  1  0.20398200  0.06695150  0.22601750  1
  C  153  1  0.19867400  0.98768850  0.21797050  1
  C  155  1  0.19693200  0.94617550  0.26737800  1
  C  157  1  0.20789200  0.13525900  0.20571550  1
  C  161  1  0.19347800  0.04566200  0.30399350  1
  C  163  1  0.19470700  0.96419550  0.18968750  1
  C  165  1  0.84844200  0.44054200  0.99233500  1
  C  167  1  0.93787500  0.54745000  0.97364300  1
  C  168  1  0.96336250  0.56689200  0.00150700  1
  C  170  1  0.87380100  0.46036700  0.01988900  1
  C  172  1  0.96777000  0.59027700  0.94755050  1
  C  176  1  0.79207000  0.37714700  0.98721800  1
  C  178  1  0.02025000  0.62938350  0.00762800  1
  C  180  1  0.84791850  0.56227100  0.50247250  1
  C  182  1  0.93614300  0.45482900  0.52141650  1
  C  183  1  0.96292300  0.43576300  0.49364450  1
  C  185  1  0.87451000  0.54278850  0.47500700  1
  C  187  1  0.96463300  0.41148750  0.54757150  1
  C  191  1  0.79145200  0.62570700  0.50743600  1
  C  193  1  0.01992400  0.37324000  0.48766250  1
  C  195  1  0.45505800  0.95441100  0.51634400  1
  C  197  1  0.44042400  0.00948700  0.46879450  1
  C  198  1  0.36420300  0.05114000  0.47663250  1
  C  200  1  0.37958300  0.99601500  0.52393200  1
  C  202  1  0.47827450  0.01220650  0.43994050  1
  C  206  1  0.50141300  0.90686700  0.53622250  1
  C  208  1  0.31516800  0.09924100  0.45753400  1
  C  210  1  0.45589300  0.04839800  0.97858800  1
  C  212  1  0.44159500  0.99206750  0.02596150  1
  C  213  1  0.36514500  0.95087600  0.01804350  1
  C  215  1  0.38025000  0.00716450  0.97091200  1
  C  217  1  0.47975300  0.98840800  0.05477250  1
  C  221  1  0.50228500  0.09623100  0.95881900  1
  C  223  1  0.31595600  0.90265950  0.03704950  1
  H  9  1  0.69338600  0.24102650  0.79102700  1
  H  17  1  0.67286400  0.24360100  0.98410800  1
  H  19  1  0.59586750  0.06204100  0.91422300  1
  H  20  1  0.60440000  0.05938500  0.86476475  1
  H  21  1  0.78681400  0.41343050  0.91067400  1
  H  22  1  0.78535800  0.41562950  0.86109800  1
  H  35  1  0.68933000  0.75639100  0.70394500  1
  H  43  1  0.67183800  0.75961000  0.51074750  1
  H  45  1  0.59456700  0.93938100  0.58125800  1
  H  46  1  0.60290600  0.94064850  0.63081700  1
  H  47  1  0.78540300  0.58805350  0.58370550  1
  H  48  1  0.78371850  0.58454800  0.63321600  1
  H  61  1  0.12041600  0.76365300  0.20405650  1
  H  69  1  0.14181600  0.75950950  0.01104750  1
  H  71  1  0.22069400  0.94054400  0.08073500  1
  H  72  1  0.21200300  0.94374300  0.13017700  1
  H  73  1  0.02360000  0.59200950  0.08450350  1
  H  74  1  0.02497200  0.59005350  0.13409500  1
  H  87  1  0.12591200  0.24848700  0.29068050  1
  H  95  1  0.14147200  0.24237900  0.48388950  1
  H  97  1  0.22049200  0.06424250  0.41315400  1
  H  98  1  0.21280300  0.06362400  0.36359350  1
  H  99  1  0.02566200  0.41367000  0.41119250  1
  H  100  1  0.02826400  0.41815600  0.36164450  1
  H  111  1  0.76340400  0.59452300  0.78252900  1
  H  113  1  0.76746700  0.32052100  0.71603200  1
  H  114  1  0.82130150  0.38452400  0.69135000  1
  H  115  1  0.70564200  0.38186800  0.69258050  1
  H  117  1  0.75606700  0.48192850  0.81971475  1
  H  119  1  0.75311200  0.51757950  0.67373400  1
  H  126  1  0.62202300  0.10412700  0.71291250  1
  H  128  1  0.61097800  0.81323900  0.77784100  1
  H  129  1  0.55539400  0.87119550  0.80226825  1
  H  130  1  0.67108200  0.86779550  0.80221175  1
  H  132  1  0.62203100  0.00136700  0.67469750  1
  H  134  1  0.61895350  0.99901000  0.82165800  1
  H  141  1  0.04755000  0.41058900  0.21244050  1
  H  143  1  0.04702000  0.68388700  0.27931500  1
  H  144  1  0.99332100  0.61997850  0.30406200  1
  H  145  1  0.10895800  0.62190400  0.30251525  1
  H  147  1  0.05480100  0.52329150  0.17542000  1
  H  149  1  0.06047500  0.48623100  0.32136750  1
  H  156  1  0.19296700  0.90047150  0.28201650  1
  H  158  1  0.21090400  0.19040700  0.21667500  1
  H  159  1  0.26575200  0.13123500  0.19246150  1
  H  160  1  0.15015000  0.13654900  0.19226250  1
  H  162  1  0.19280800  0.00360500  0.32001650  1
  H  164  1  0.19931200  0.00426600  0.17313850  1
  H  171  1  0.85161600  0.42944350  0.03742900  1
  H  173  1  0.94011300  0.56532700  0.92860100  1
  H  174  1  0.03850200  0.58709200  0.94603550  1
  H  175  1  0.94795100  0.65169950  0.94796575  1
  H  177  1  0.76862800  0.34352150  0.00394450  1
  H  179  1  0.04522200  0.66394200  0.99144500  1
  H  186  1  0.85325650  0.57402850  0.45741300  1
  H  188  1  0.93613600  0.43620050  0.56643400  1
  H  189  1  0.03528800  0.41442700  0.54945950  1
  H  190  1  0.94464400  0.35014900  0.54691700  1
  H  192  1  0.76881500  0.65970300  0.49068400  1
  H  194  1  0.04406100  0.33820850  0.50385700  1
  H  201  1  0.35551850  0.99240650  0.54412650  1
  H  203  1  0.53634800  0.97552750  0.43887900  1
  H  204  1  0.49657100  0.07237400  0.43379750  1
  H  205  1  0.43086200  0.99105000  0.42483300  1
  H  207  1  0.47652400  0.90147800  0.55626950  1
  H  209  1  0.33830100  0.10694400  0.43738450  1
  H  216  1  0.35601950  0.01137050  0.95074550  1
  H  218  1  0.53805250  0.02478450  0.05589650  1
  H  219  1  0.49776900  0.92801900  0.06068550  1
  H  220  1  0.43263800  0.00935700  0.07001550  1
  H  222  1  0.47736900  0.10200050  0.93877975  1
  H  224  1  0.33894300  0.89469250  0.05721150  1
  N  23  1  0.73811400  0.36777900  0.80815325  1
  N  24  1  0.64478100  0.11392500  0.81039350  1
  N  25  1  0.77070700  0.35789000  0.96054075  1
  N  26  1  0.57344000  0.13966550  0.96508350  1
  N  49  1  0.73443900  0.63018350  0.68645550  1
  N  50  1  0.64303500  0.88460950  0.68487125  1
  N  51  1  0.76934200  0.64467350  0.53407250  1
  N  52  1  0.57232100  0.86304750  0.53001550  1
  N  75  1  0.07392700  0.63731750  0.18704050  1
  N  76  1  0.17128400  0.88993200  0.18458800  1
  N  77  1  0.04100000  0.64703150  0.03453350  1
  N  78  1  0.24362200  0.86152500  0.03018850  1
  N  101  1  0.07920800  0.37395900  0.30838500  1
  N  102  1  0.17306600  0.12032800  0.30950450  1
  N  103  1  0.04169600  0.35622600  0.46079150  1
  N  104  1  0.24320600  0.14093300  0.46435500  1
  N  106  1  0.76478300  0.42074850  0.75392900  1
  N  109  1  0.76227700  0.57418700  0.73981100  1
  N  121  1  0.61707300  0.92317400  0.74045050  1
  N  124  1  0.62107500  0.07264850  0.75554450  1
  N  136  1  0.04786200  0.58404800  0.24126725  1
  N  139  1  0.04979700  0.43049150  0.25518700  1
  N  151  1  0.20174500  0.08102250  0.25420925  1
  N  154  1  0.19541000  0.93141500  0.23934700  1
  N  166  1  0.88237400  0.48578700  0.97062400  1
  N  169  1  0.92921600  0.52156900  0.02324250  1
  N  181  1  0.88068200  0.51659850  0.52426900  1
  N  184  1  0.92993000  0.48151100  0.47182450  1
  N  196  1  0.48158500  0.96360150  0.48898250  1
  N  199  1  0.33768800  0.04184900  0.50405950  1
  N  211  1  0.48270300  0.03838600  0.00589250  1
  N  214  1  0.33838400  0.96093900  0.99067000  1
