# generated using pymatgen
data_H14C20N7O4
_symmetry_space_group_name_H-M   'P 1'
_cell_length_a   31.15135000
_cell_length_b   31.15140000
_cell_length_c   35.34270000
_cell_angle_alpha   90.00000000
_cell_angle_beta   90.00000000
_cell_angle_gamma   120.00015929
_symmetry_Int_Tables_number   1
_chemical_formula_structural   H14C20N7O4
_chemical_formula_sum   'H84 C120 N42 O24'
_cell_volume   29701.89104700
_cell_formula_units_Z   6
loop_
 _symmetry_equiv_pos_site_id
 _symmetry_equiv_pos_as_xyz
  1  'x, y, z'
loop_
 _atom_site_type_symbol
 _atom_site_label
 _atom_site_symmetry_multiplicity
 _atom_site_fract_x
 _atom_site_fract_y
 _atom_site_fract_z
 _atom_site_occupancy
  H  7  1  0.48710200  0.48948600  0.05109000  1
  H  16  1  0.44919000  0.51930200  0.94674000  1
  H  17  1  0.32638100  0.56400100  0.02279300  1
  H  18  1  0.34849800  0.58656900  0.98058600  1
  H  19  1  0.52246800  0.35572900  0.98237300  1
  H  20  1  0.54851000  0.38230500  0.02272200  1
  H  21  1  0.41957100  0.41996500  0.94858900  1
  H  22  1  0.39000700  0.45940200  0.05321200  1
  H  33  1  0.91188900  0.43417300  0.38441300  1
  H  42  1  0.97961000  0.47213600  0.28005700  1
  H  43  1  0.14713600  0.59486600  0.35611800  1
  H  44  1  0.14758000  0.57279900  0.31388900  1
  H  45  1  0.74276900  0.39889200  0.31573900  1
  H  46  1  0.74330200  0.37281100  0.35606700  1
  H  47  1  0.90990900  0.50176800  0.28194400  1
  H  48  1  0.97892300  0.53126100  0.38655700  1
  H  59  1  0.43178200  0.00950400  0.71772700  1
  H  68  1  0.40197600  0.94165200  0.61342200  1
  H  69  1  0.35714500  0.77419100  0.68960200  1
  H  70  1  0.33458800  0.77371100  0.64738700  1
  H  71  1  0.56553300  0.17851300  0.64887800  1
  H  72  1  0.53894800  0.17804200  0.68920600  1
  H  73  1  0.50130100  0.01131600  0.61526700  1
  H  74  1  0.46183500  0.94243700  0.71992500  1
  H  85  1  0.45762500  0.28108500  0.93741300  1
  H  92  1  0.54312200  0.24698800  0.81944900  1
  H  93  1  0.38800100  0.16371900  0.82677800  1
  H  94  1  0.48554000  0.29882500  0.80218800  1
  H  96  1  0.58730200  0.21448700  0.78774900  1
  H  97  1  0.56015700  0.15904100  0.76785500  1
  H  101  1  0.44226200  0.19910500  0.93438100  1
  H  102  1  0.44534400  0.17297400  0.89452500  1
  H  109  1  0.45578200  0.06436300  0.77249200  1
  H  110  1  0.51615200  0.40329800  0.90879700  1
  H  117  1  0.73301700  0.46380500  0.27077900  1
  H  124  1  0.61323000  0.37832800  0.15303200  1
  H  125  1  0.68547800  0.53349600  0.15996700  1
  H  126  1  0.72278900  0.43585200  0.13555500  1
  H  128  1  0.53643100  0.33418200  0.12148400  1
  H  129  1  0.50820800  0.36137100  0.10153900  1
  H  133  1  0.66646100  0.47926800  0.26774100  1
  H  134  1  0.63726800  0.47622600  0.22787900  1
  H  141  1  0.51842200  0.46615800  0.10582000  1
  H  142  1  0.79667200  0.40523000  0.24214500  1
  H  149  1  0.64024200  0.18816500  0.60403700  1
  H  156  1  0.67457600  0.30796600  0.48631200  1
  H  157  1  0.75756400  0.23579300  0.49327000  1
  H  158  1  0.62260100  0.19842500  0.46880600  1
  H  160  1  0.70721000  0.38477700  0.45478600  1
  H  161  1  0.76263700  0.41303700  0.43486400  1
  H  165  1  0.72225600  0.25473000  0.60103200  1
  H  166  1  0.74842900  0.28393500  0.56117900  1
  H  173  1  0.85723900  0.40287500  0.43915400  1
  H  174  1  0.51804100  0.12456800  0.57536900  1
  H  181  1  0.45075400  0.67394200  0.93602100  1
  H  188  1  0.34696500  0.70532400  0.82260500  1
  H  189  1  0.50176600  0.79162400  0.83154100  1
  H  190  1  0.40201900  0.65559800  0.80428600  1
  H  192  1  0.30206400  0.73631300  0.78964500  1
  H  193  1  0.32874400  0.79161200  0.76945900  1
  H  197  1  0.45943000  0.75366200  0.93713900  1
  H  198  1  0.44827700  0.77872700  0.89988500  1
  H  205  1  0.43016800  0.88722100  0.77484400  1
  H  206  1  0.44237100  0.56810400  0.89724900  1
  H  213  1  0.13268100  0.47054100  0.26931900  1
  H  220  1  0.26779200  0.57432200  0.15585600  1
  H  221  1  0.19933800  0.41952500  0.16484200  1
  H  222  1  0.16302500  0.51925800  0.13758100  1
  H  224  1  0.34365200  0.61922100  0.12285600  1
  H  225  1  0.37226700  0.59254000  0.10266200  1
  H  229  1  0.20372800  0.46187500  0.27042300  1
  H  230  1  0.23993500  0.47302400  0.23316500  1
  H  237  1  0.36656400  0.49124300  0.10810900  1
  H  238  1  0.03521900  0.47895300  0.23055900  1
  H  245  1  0.24733300  0.78851400  0.60269800  1
  H  252  1  0.21605600  0.65342200  0.48921200  1
  H  253  1  0.12972300  0.72188600  0.49820100  1
  H  254  1  0.26577400  0.75820000  0.47096500  1
  H  256  1  0.18509300  0.57757000  0.45619800  1
  H  257  1  0.12980400  0.54896600  0.43599600  1
  H  261  1  0.16763000  0.71744800  0.60378200  1
  H  262  1  0.14259600  0.68124500  0.56651800  1
  H  269  1  0.03419500  0.55469600  0.44144600  1
  H  270  1  0.35319500  0.88600600  0.56394900  1
  C  1  1  0.44964800  0.45893000  0.99971500  1
  C  2  1  0.48202200  0.46505400  0.02983500  1
  C  3  1  0.50814200  0.43880500  0.03091600  1
  C  4  1  0.50222400  0.40551700  0.00114800  1
  C  5  1  0.46987200  0.39964200  0.97062400  1
  C  6  1  0.44383000  0.42587200  0.97022300  1
  C  9  1  0.42286200  0.48491400  0.99965300  1
  C  10  1  0.39349900  0.48204600  0.03101200  1
  C  11  1  0.36804600  0.50894500  0.03203400  1
  C  12  1  0.37157800  0.53958000  0.00092100  1
  C  13  1  0.40159500  0.54301300  0.96936800  1
  C  14  1  0.42649600  0.51551900  0.96896000  1
  C  27  1  0.91879400  0.47165500  0.33305500  1
  C  28  1  0.89254400  0.43928500  0.36317500  1
  C  29  1  0.84017300  0.41316100  0.36425000  1
  C  30  1  0.81280200  0.41910700  0.33449600  1
  C  31  1  0.83928600  0.45148400  0.30398600  1
  C  32  1  0.89156000  0.47747400  0.30355800  1
  C  35  1  0.97156400  0.49842900  0.33298700  1
  C  36  1  0.99806800  0.52775800  0.36435700  1
  C  37  1  0.05041800  0.55321600  0.36536800  1
  C  38  1  0.07751500  0.54970600  0.33424100  1
  C  39  1  0.05092100  0.51972400  0.30267300  1
  C  40  1  0.99852700  0.49481200  0.30228200  1
  C  53  1  0.46234000  0.00251300  0.66638100  1
  C  54  1  0.45623500  0.02881200  0.69647400  1
  C  55  1  0.48248300  0.08118100  0.69750200  1
  C  56  1  0.51576600  0.10850800  0.66771600  1
  C  57  1  0.52164400  0.08197400  0.63724000  1
  C  58  1  0.49540000  0.02970100  0.63687800  1
  C  61  1  0.43632600  0.94974300  0.66635500  1
  C  62  1  0.43916200  0.92327000  0.69773900  1
  C  63  1  0.41227000  0.87091600  0.69878000  1
  C  64  1  0.38163500  0.84379500  0.66767400  1
  C  65  1  0.37821700  0.87035800  0.63610000  1
  C  66  1  0.40570700  0.92275000  0.63567300  1
  C  79  1  0.47535100  0.33054500  0.89136700  1
  C  80  1  0.48382400  0.33556300  0.85177300  1
  C  81  1  0.47886600  0.29468300  0.83072500  1
  C  82  1  0.46618600  0.24906500  0.84822600  1
  C  83  1  0.45766200  0.24363200  0.88791700  1
  C  84  1  0.46215300  0.28451600  0.90863900  1
  C  86  1  0.46559200  0.21108500  0.82566600  1
  C  87  1  0.51047100  0.21565700  0.81271700  1
  C  88  1  0.51159300  0.17762400  0.79164300  1
  C  89  1  0.46577700  0.13398400  0.78293400  1
  C  90  1  0.42027200  0.12881200  0.79599800  1
  C  91  1  0.42079300  0.16753100  0.81727900  1
  C  107  1  0.46466200  0.09679200  0.76085200  1
  C  108  1  0.48542000  0.37115000  0.91387900  1
  C  111  1  0.76471200  0.44603000  0.22473300  1
  C  112  1  0.76124400  0.43755000  0.18513800  1
  C  113  1  0.72533700  0.44253600  0.16409200  1
  C  114  1  0.69243100  0.45525700  0.18159500  1
  C  115  1  0.69553700  0.46379300  0.22128400  1
  C  116  1  0.73191000  0.45926600  0.24200700  1
  C  118  1  0.65505300  0.45587300  0.15904200  1
  C  119  1  0.61463100  0.41099500  0.14621900  1
  C  120  1  0.57548200  0.40990700  0.12516200  1
  C  121  1  0.57778200  0.45575000  0.11633400  1
  C  122  1  0.61823100  0.50125500  0.12927900  1
  C  123  1  0.65641500  0.50070400  0.15055400  1
  C  139  1  0.54171700  0.45689000  0.09424800  1
  C  140  1  0.79524400  0.43595100  0.24724100  1
  C  143  1  0.59080200  0.15647700  0.55797100  1
  C  144  1  0.58581500  0.15995300  0.51837500  1
  C  145  1  0.62672000  0.19586800  0.49734400  1
  C  146  1  0.67233500  0.22877700  0.51486400  1
  C  147  1  0.67773900  0.22565900  0.55455500  1
  C  148  1  0.63682900  0.18927500  0.57526100  1
  C  150  1  0.71033200  0.26617700  0.49232700  1
  C  151  1  0.70585800  0.30658800  0.47951000  1
  C  152  1  0.74391700  0.34575900  0.45847000  1
  C  153  1  0.78748200  0.34349000  0.44965700  1
  C  154  1  0.79256000  0.30305300  0.46259900  1
  C  155  1  0.75382000  0.26484600  0.48385600  1
  C  171  1  0.82468200  0.37957000  0.42757600  1
  C  172  1  0.55017100  0.12595800  0.58046700  1
  C  175  1  0.42704200  0.62494000  0.88935000  1
  C  176  1  0.41282100  0.61973800  0.85078600  1
  C  177  1  0.41208100  0.65960300  0.83223300  1
  C  178  1  0.42516300  0.70450900  0.85113500  1
  C  179  1  0.43931300  0.70992900  0.88988700  1
  C  180  1  0.44040600  0.67007000  0.90812700  1
  C  182  1  0.42435500  0.74301000  0.83015000  1
  C  183  1  0.37928400  0.73734300  0.81652100  1
  C  184  1  0.37759900  0.77482100  0.79505800  1
  C  185  1  0.42300800  0.81907700  0.78675900  1
  C  186  1  0.46868000  0.82546000  0.80055000  1
  C  187  1  0.46872400  0.78721500  0.82206100  1
  C  203  1  0.42380400  0.85528700  0.76369100  1
  C  204  1  0.42759200  0.58666400  0.90903800  1
  C  207  1  0.10737200  0.49424500  0.22265600  1
  C  208  1  0.11637700  0.50846200  0.18409100  1
  C  209  1  0.15697900  0.50920200  0.16552700  1
  C  210  1  0.18881000  0.49612400  0.18442500  1
  C  211  1  0.18009400  0.48197800  0.22317700  1
  C  212  1  0.13914600  0.48088600  0.24142700  1
  C  214  1  0.22811500  0.49693200  0.16343000  1
  C  215  1  0.26749700  0.54200200  0.14977800  1
  C  216  1  0.30665400  0.54369200  0.12830300  1
  C  217  1  0.30551100  0.49828200  0.12001500  1
  C  218  1  0.26624100  0.45261100  0.13382600  1
  C  219  1  0.22795800  0.45256500  0.15534900  1
  C  235  1  0.34092100  0.49748900  0.09694400  1
  C  236  1  0.06855800  0.49370300  0.24235200  1
  C  239  1  0.29636700  0.81384000  0.55604600  1
  C  240  1  0.30159700  0.80483900  0.51748100  1
  C  241  1  0.26175200  0.76423800  0.49891200  1
  C  242  1  0.21683800  0.73239800  0.51779500  1
  C  243  1  0.21138800  0.74110400  0.55654700  1
  C  244  1  0.25122700  0.78205100  0.57480600  1
  C  246  1  0.17834600  0.69310100  0.49678900  1
  C  247  1  0.18403500  0.65372000  0.48313200  1
  C  248  1  0.14656800  0.61457400  0.46164800  1
  C  249  1  0.10230300  0.61572000  0.45336000  1
  C  250  1  0.09590800  0.65499200  0.46717400  1
  C  251  1  0.13414000  0.69326500  0.48870300  1
  C  267  1  0.06610200  0.58031600  0.43028600  1
  C  268  1  0.33461500  0.85267300  0.57574800  1
  N  8  1  0.52639300  0.37904000  0.00214400  1
  N  15  1  0.34707100  0.56577000  0.00159500  1
  N  23  1  0.40814800  0.57515000  0.94214200  1
  N  24  1  0.34018200  0.50601700  0.06150300  1
  N  25  1  0.46009700  0.36603600  0.94396800  1
  N  26  1  0.53810400  0.44385000  0.05944000  1
  N  34  1  0.76215600  0.39494500  0.33549700  1
  N  41  1  0.12820900  0.57420100  0.33490900  1
  N  49  1  0.07650300  0.51315400  0.27545400  1
  N  50  1  0.07536500  0.58106100  0.39484200  1
  N  51  1  0.81544500  0.46125600  0.27733800  1
  N  52  1  0.81525900  0.38318400  0.39276800  1
  N  60  1  0.54222800  0.15915600  0.66866100  1
  N  67  1  0.35543800  0.79309700  0.66836700  1
  N  75  1  0.34610000  0.84475700  0.60886600  1
  N  76  1  0.41519500  0.84599600  0.72825800  1
  N  77  1  0.55525600  0.10576300  0.61057800  1
  N  78  1  0.47743000  0.10613800  0.72599000  1
  N  95  1  0.55668600  0.18444200  0.78109500  1
  N  98  1  0.37488300  0.08520600  0.78757200  1
  N  99  1  0.49749600  0.38137300  0.83388900  1
  N  100  1  0.44721900  0.20156700  0.90709500  1
  N  127  1  0.53708700  0.36481400  0.11474700  1
  N  130  1  0.62014500  0.54667500  0.12073400  1
  N  131  1  0.79335400  0.42384500  0.16725300  1
  N  132  1  0.66395300  0.47429500  0.24045600  1
  N  159  1  0.73720100  0.38414300  0.44805800  1
  N  162  1  0.83609200  0.30117700  0.45407300  1
  N  163  1  0.54001200  0.12784600  0.50047300  1
  N  164  1  0.71981000  0.25724300  0.57374500  1
  N  191  1  0.33246100  0.76679100  0.78338200  1
  N  194  1  0.51372400  0.86953700  0.79227500  1
  N  195  1  0.39890600  0.57470900  0.83156100  1
  N  196  1  0.45065200  0.75123600  0.91047400  1
  N  223  1  0.34373900  0.58882400  0.11660000  1
  N  226  1  0.26528600  0.40757200  0.12556100  1
  N  227  1  0.08525900  0.52237300  0.16487100  1
  N  228  1  0.21007000  0.47064600  0.24375800  1
  N  255  1  0.15461300  0.57748900  0.44994200  1
  N  258  1  0.05182900  0.65595400  0.45890600  1
  N  259  1  0.34663300  0.83597500  0.49827500  1
  N  260  1  0.17007400  0.71111400  0.57711700  1
  O  103  1  0.35266000  0.06275700  0.81718400  1
  O  104  1  0.53933200  0.39943400  0.81844500  1
  O  105  1  0.34661100  0.09469100  0.76846900  1
  O  106  1  0.46628400  0.37667900  0.80931300  1
  O  135  1  0.62007000  0.56907400  0.15028800  1
  O  136  1  0.76955500  0.38201300  0.15181000  1
  O  137  1  0.65788600  0.57477900  0.10155300  1
  O  138  1  0.81988500  0.45505000  0.14267400  1
  O  167  1  0.85855200  0.30125900  0.48363800  1
  O  168  1  0.52198500  0.15165000  0.48502200  1
  O  169  1  0.82649300  0.26345100  0.43489000  1
  O  170  1  0.54470000  0.10132300  0.47589700  1
  O  199  1  0.53533100  0.89232100  0.82195500  1
  O  200  1  0.42668700  0.58145100  0.80372400  1
  O  201  1  0.54273900  0.86069500  0.77356100  1
  O  202  1  0.35484500  0.55454200  0.82013300  1
  O  231  1  0.26649200  0.38598900  0.15524800  1
  O  232  1  0.06420900  0.49459200  0.13703700  1
  O  233  1  0.22742200  0.37853700  0.10686400  1
  O  234  1  0.10914900  0.56643500  0.15344000  1
  O  263  1  0.02903200  0.65474500  0.48858700  1
  O  264  1  0.33990200  0.85702200  0.47043900  1
  O  265  1  0.06066500  0.69382500  0.44021200  1
  O  266  1  0.36682300  0.81209900  0.48685000  1
