# generated using pymatgen
data_Cd2SiH16(C7O2)4
_symmetry_space_group_name_H-M   'P 1'
_cell_length_a   13.01959000
_cell_length_b   14.20500000
_cell_length_c   14.93410741
_cell_angle_alpha   116.14744409
_cell_angle_beta   113.60692383
_cell_angle_gamma   94.27381000
_symmetry_Int_Tables_number   1
_chemical_formula_structural   Cd2SiH16(C7O2)4
_chemical_formula_sum   'Cd4 Si2 H32 C56 O16'
_cell_volume   2163.47235701
_cell_formula_units_Z   2
loop_
 _symmetry_equiv_pos_site_id
 _symmetry_equiv_pos_as_xyz
  1  'x, y, z'
loop_
 _atom_site_type_symbol
 _atom_site_label
 _atom_site_symmetry_multiplicity
 _atom_site_fract_x
 _atom_site_fract_y
 _atom_site_fract_z
 _atom_site_occupancy
  Cd  Cd1  1  0.43479000  0.68474000  0.37048000  1.0
  Cd  Cd2  1  0.56521000  0.31525000  0.62952000  1.0
  Cd  Cd3  1  0.50000000  0.50000000  0.50000000  1.0
  Cd  Cd4  1  0.50000000  0.00000000  0.50000000  1.0
  Si  Si1  1  0.20576000  0.95608000  0.91163000  1.0
  Si  Si2  1  0.79425000  0.04393000  0.08838000  1.0
  H  H1  1  0.04644000  0.94548000  0.69835000  1.0
  H  H2  1  0.83152000  0.85823000  0.56220000  1.0
  H  H3  1  0.79215000  0.74866000  0.77561000  1.0
  H  H4  1  0.00554000  0.83704000  0.91416000  1.0
  H  H5  1  0.42460000  0.11925000  0.12196000  1.0
  H  H6  1  0.48298000  0.31993000  0.25510000  1.0
  H  H7  1  0.14665000  0.33144000  0.04759000  1.0
  H  H8  1  0.08548000  0.12871000  0.91280000  1.0
  H  H9  1  0.15208000  0.75381000  0.69930000  1.0
  H  H10  1  0.23109000  0.70480000  0.56303000  1.0
  H  H11  1  0.48351000  0.02660000  0.77514000  1.0
  H  H12  1  0.40849000  0.07695000  0.91394000  1.0
  H  H13  1  0.19765000  0.00280000  0.12167000  1.0
  H  H14  1  0.27214000  0.93501000  0.25529000  1.0
  H  H15  1  0.40081000  0.71630000  0.04811000  1.0
  H  H16  1  0.32752000  0.78445000  0.91279000  1.0
  H  H17  1  0.95356000  0.05452000  0.30165000  1.0
  H  H18  1  0.16848000  0.14177000  0.43780000  1.0
  H  H19  1  0.20784000  0.25134000  0.22439000  1.0
  H  H20  1  0.99446000  0.16296000  0.08584000  1.0
  H  H21  1  0.57540000  0.88075000  0.87804000  1.0
  H  H22  1  0.51702000  0.68006000  0.74490000  1.0
  H  H23  1  0.85335000  0.66856000  0.95241000  1.0
  H  H24  1  0.91453000  0.87129000  0.08721000  1.0
  H  H25  1  0.84792000  0.24619000  0.30070000  1.0
  H  H26  1  0.76891000  0.29520000  0.43697000  1.0
  H  H27  1  0.51649000  0.97340000  0.22486000  1.0
  H  H28  1  0.59150000  0.92304000  0.08606000  1.0
  H  H29  1  0.80234000  0.99720000  0.87833000  1.0
  H  H30  1  0.72786000  0.06500000  0.74472000  1.0
  H  H31  1  0.59918000  0.28370000  0.95189000  1.0
  H  H32  1  0.67249000  0.21556000  0.08722000  1.0
  C  C1  1  0.04217000  0.89766000  0.81632000  1.0
  C  C2  1  0.99087000  0.90402000  0.71689000  1.0
  C  C3  1  0.87073000  0.85492000  0.63979000  1.0
  C  C4  1  0.79946000  0.79685000  0.66031000  1.0
  C  C5  1  0.84876000  0.79254000  0.76027000  1.0
  C  C6  1  0.96867000  0.84285000  0.83781000  1.0
  C  C7  1  0.67228000  0.73555000  0.57382000  1.0
  C  C8  1  0.25035000  0.10922000  0.00743000  1.0
  C  C9  1  0.36308000  0.16473000  0.10417000  1.0
  C  C10  1  0.39640000  0.27746000  0.17998000  1.0
  C  C11  1  0.31755000  0.33710000  0.15999000  1.0
  C  C12  1  0.20619000  0.28358000  0.06211000  1.0
  C  C13  1  0.17295000  0.17048000  0.98711000  1.0
  C  C14  1  0.35097000  0.45662000  0.24169000  1.0
  C  C15  1  0.27399000  0.91912000  0.81633000  1.0
  C  C16  1  0.22610000  0.81349000  0.71741000  1.0
  C  C17  1  0.26929000  0.78547000  0.64037000  1.0
  C  C18  1  0.36090000  0.86377000  0.66047000  1.0
  C  C19  1  0.41160000  0.96773000  0.76018000  1.0
  C  C20  1  0.36913000  0.99506000  0.83773000  1.0
  C  C21  1  0.40158000  0.83842000  0.57387000  1.0
  C  C22  1  0.25732000  0.89842000  0.00740000  1.0
  C  C23  1  0.24137000  0.93958000  0.10417000  1.0
  C  C24  1  0.28375000  0.90258000  0.18023000  1.0
  C  C25  1  0.34262000  0.82308000  0.16041000  1.0
  C  C26  1  0.35600000  0.77875000  0.06244000  1.0
  C  C27  1  0.31437000  0.81693000  0.98717000  1.0
  C  C28  1  0.39077000  0.78510000  0.24230000  1.0
  C  C29  1  0.95783000  0.10234000  0.18368000  1.0
  C  C30  1  0.00913000  0.09597000  0.28311000  1.0
  C  C31  1  0.12927000  0.14508000  0.36021000  1.0
  C  C32  1  0.20054000  0.20314000  0.33969000  1.0
  C  C33  1  0.15124000  0.20746000  0.23973000  1.0
  C  C34  1  0.03133000  0.15715000  0.16219000  1.0
  C  C35  1  0.32773000  0.26446000  0.42619000  1.0
  C  C36  1  0.74965000  0.89077000  0.99257000  1.0
  C  C37  1  0.63693000  0.83528000  0.89584000  1.0
  C  C38  1  0.60360000  0.72254000  0.82002000  1.0
  C  C39  1  0.68245000  0.66291000  0.84002000  1.0
  C  C40  1  0.79381000  0.71642000  0.93789000  1.0
  C  C41  1  0.82704000  0.82952000  0.01289000  1.0
  C  C42  1  0.64902000  0.54337000  0.75831000  1.0
  C  C43  1  0.72601000  0.08088000  0.18367000  1.0
  C  C44  1  0.77391000  0.18651000  0.28260000  1.0
  C  C45  1  0.73071000  0.21453000  0.35963000  1.0
  C  C46  1  0.63909000  0.13623000  0.33953000  1.0
  C  C47  1  0.58840000  0.03226000  0.23982000  1.0
  C  C48  1  0.63087000  0.00494000  0.16227000  1.0
  C  C49  1  0.59843000  0.16159000  0.42614000  1.0
  C  C50  1  0.74268000  0.10158000  0.99260000  1.0
  C  C51  1  0.75862000  0.06042000  0.89583000  1.0
  C  C52  1  0.71625000  0.09741000  0.81977000  1.0
  C  C53  1  0.65738000  0.17692000  0.83959000  1.0
  C  C54  1  0.64400000  0.22124000  0.93756000  1.0
  C  C55  1  0.68562000  0.18307000  0.01283000  1.0
  C  C56  1  0.60923000  0.21489000  0.75770000  1.0
  O  O1  1  0.62786000  0.75473000  0.49301000  1.0
  O  O2  1  0.61904000  0.66916000  0.58945000  1.0
  O  O3  1  0.44860000  0.50315000  0.33983000  1.0
  O  O4  1  0.29002000  0.51424000  0.21562000  1.0
  O  O5  1  0.36456000  0.73873000  0.49314000  1.0
  O  O6  1  0.47110000  0.91993000  0.58953000  1.0
  O  O7  1  0.39191000  0.83666000  0.34065000  1.0
  O  O8  1  0.42494000  0.70111000  0.21606000  1.0
  O  O9  1  0.37213000  0.24526000  0.50699000  1.0
  O  O10  1  0.38096000  0.33084000  0.41055000  1.0
  O  O11  1  0.55140000  0.49685000  0.66017000  1.0
  O  O12  1  0.70998000  0.48575000  0.78438000  1.0
  O  O13  1  0.63544000  0.26126000  0.50686000  1.0
  O  O14  1  0.52891000  0.08008000  0.41048000  1.0
  O  O15  1  0.60809000  0.16334000  0.65935000  1.0
  O  O16  1  0.57506000  0.29890000  0.78395000  1.0
