# generated using pymatgen
data_H28C47N4
_symmetry_space_group_name_H-M   'P 1'
_cell_length_a   12.92160000
_cell_length_b   31.81010000
_cell_length_c   60.14200000
_cell_angle_alpha   90.00000000
_cell_angle_beta   90.00000000
_cell_angle_gamma   90.00100000
_symmetry_Int_Tables_number   1
_chemical_formula_structural   H28C47N4
_chemical_formula_sum   'H224 C376 N32'
_cell_volume   24720.61059495
_cell_formula_units_Z   8
loop_
 _symmetry_equiv_pos_site_id
 _symmetry_equiv_pos_as_xyz
  1  'x, y, z'
loop_
 _atom_site_type_symbol
 _atom_site_label
 _atom_site_symmetry_multiplicity
 _atom_site_fract_x
 _atom_site_fract_y
 _atom_site_fract_z
 _atom_site_occupancy
  C  1  1  0.70542600  0.03968600  0.87873500  1
  C  2  1  0.80658200  0.03908600  0.86955800  1
  C  3  1  0.80637600  0.95955700  0.86965700  1
  C  4  1  0.70512000  0.95909500  0.87879200  1
  C  5  1  0.65627000  0.91959900  0.88227500  1
  C  6  1  0.70376100  0.88137300  0.87607700  1
  C  7  1  0.80436100  0.88271900  0.86700900  1
  C  8  1  0.85559500  0.92124400  0.86419500  1
  C  9  1  0.85586600  0.07732200  0.86396100  1
  C  10  1  0.80483100  0.11591400  0.86670700  1
  C  11  1  0.70438500  0.11741300  0.87584300  1
  C  12  1  0.65688400  0.07926800  0.88217500  1
  C  13  1  0.55182400  0.99955800  0.86973600  1
  C  14  1  0.45166600  0.00036600  0.87937100  1
  C  15  1  0.52924100  0.00032500  0.91802600  1
  C  16  1  0.63063700  0.99954800  0.90894700  1
  C  17  1  0.51555000  0.00064200  0.94136000  1
  C  18  1  0.60096400  0.00013000  0.95577500  1
  C  19  1  0.70217000  0.99924400  0.94711900  1
  C  20  1  0.71610300  0.99901700  0.92385700  1
  C  21  1  0.55980600  0.99909400  0.84614000  1
  C  22  1  0.47192200  0.99911900  0.83208700  1
  C  23  1  0.37343000  0.00009500  0.84227000  1
  C  24  1  0.36346300  0.00075900  0.86549900  1
  C  37  1  0.64827400  0.99943800  0.88408300  1
  C  38  1  0.43555000  0.00092500  0.90378600  1
  C  41  1  0.86243700  0.99928100  0.86501300  1
  C  44  1  0.29348000  0.03969300  0.12057700  1
  C  45  1  0.19236400  0.03907700  0.12977600  1
  C  46  1  0.19237300  0.95956000  0.12954100  1
  C  47  1  0.29349800  0.95911200  0.12033800  1
  C  48  1  0.34210200  0.91960300  0.11672500  1
  C  49  1  0.29457000  0.88136500  0.12289000  1
  C  50  1  0.19407200  0.88270200  0.13200900  1
  C  51  1  0.14306600  0.92123900  0.13495000  1
  C  52  1  0.14299900  0.07730000  0.13535800  1
  C  53  1  0.19384600  0.11591400  0.13253800  1
  C  54  1  0.29422100  0.11743500  0.12336600  1
  C  55  1  0.34189100  0.07928700  0.11710100  1
  C  56  1  0.44745500  0.99939700  0.12919500  1
  C  57  1  0.54711800  0.00006700  0.11931400  1
  C  58  1  0.46776200  0.00031900  0.08084000  1
  C  59  1  0.36679000  0.99975600  0.09013600  1
  C  60  1  0.48045300  0.00075500  0.05748200  1
  C  61  1  0.39441800  0.00070800  0.04324200  1
  C  62  1  0.29358600  0.00018000  0.05210500  1
  C  63  1  0.28066300  0.99973400  0.07539400  1
  C  64  1  0.44078900  0.99873600  0.15282000  1
  C  65  1  0.52951600  0.99840300  0.16663700  1
  C  66  1  0.62741900  0.99938500  0.15619300  1
  C  67  1  0.63609300  0.00023400  0.13295000  1
  C  80  1  0.35032200  0.99946300  0.11504700  1
  C  81  1  0.56209300  0.00065500  0.09487000  1
  C  84  1  0.13644100  0.99927200  0.13427300  1
  C  87  1  0.29408100  0.45895900  0.87816500  1
  C  88  1  0.19260700  0.45959700  0.86914900  1
  C  89  1  0.19281200  0.53910000  0.86929200  1
  C  90  1  0.29437000  0.53956500  0.87827600  1
  C  91  1  0.34356800  0.57906500  0.88154700  1
  C  92  1  0.29629200  0.61721900  0.87515600  1
  C  93  1  0.19522200  0.61587400  0.86633300  1
  C  94  1  0.14357000  0.57738300  0.86379500  1
  C  95  1  0.14323400  0.42140800  0.86351000  1
  C  96  1  0.19464700  0.38284100  0.86596000  1
  C  97  1  0.29555200  0.38130100  0.87485800  1
  C  98  1  0.34291000  0.41935800  0.88138400  1
  C  99  1  0.44816700  0.49912500  0.86949300  1
  C  100  1  0.54779600  0.49827900  0.87938200  1
  C  101  1  0.46830200  0.49816900  0.91785900  1
  C  102  1  0.36736800  0.49902800  0.90855200  1
  C  103  1  0.48089200  0.49777000  0.94122200  1
  C  104  1  0.39481800  0.49829200  0.95545300  1
  C  105  1  0.29399800  0.49925400  0.94659000  1
  C  106  1  0.28120500  0.49954900  0.92329200  1
  C  107  1  0.44150200  0.49976000  0.84586900  1
  C  108  1  0.53022300  0.49999000  0.83205100  1
  C  109  1  0.62811200  0.49888600  0.84249900  1
  C  110  1  0.63677100  0.49799300  0.86574400  1
  C  123  1  0.35101800  0.49920000  0.88364000  1
  C  124  1  0.56267300  0.49758100  0.90383300  1
  C  127  1  0.13640800  0.49939800  0.86481800  1
  C  130  1  0.70461900  0.45899000  0.12001700  1
  C  131  1  0.80618400  0.45961900  0.12898400  1
  C  132  1  0.80610000  0.53913700  0.12880100  1
  C  133  1  0.70451100  0.53960900  0.11983800  1
  C  134  1  0.65523400  0.57910900  0.11660000  1
  C  135  1  0.70235600  0.61724800  0.12307300  1
  C  136  1  0.80346000  0.61589900  0.13187700  1
  C  137  1  0.85528400  0.57742400  0.13432700  1
  C  138  1  0.85546300  0.42142600  0.13465300  1
  C  139  1  0.80378300  0.38288800  0.13231800  1
  C  140  1  0.70280400  0.38136400  0.12345700  1
  C  141  1  0.65555200  0.41941500  0.11689300  1
  C  142  1  0.55114100  0.49925700  0.12893600  1
  C  143  1  0.45101800  0.49870400  0.11928600  1
  C  144  1  0.52880400  0.49862500  0.08063200  1
  C  145  1  0.63016300  0.49902800  0.08973200  1
  C  146  1  0.51527100  0.49833000  0.05729200  1
  C  147  1  0.60078600  0.49836400  0.04289600  1
  C  148  1  0.70199000  0.49871000  0.05156900  1
  C  149  1  0.71573800  0.49901800  0.07483900  1
  C  150  1  0.55910400  0.49967500  0.15253200  1
  C  151  1  0.47122000  0.49976600  0.16658400  1
  C  152  1  0.37273400  0.49903100  0.15638800  1
  C  153  1  0.36279500  0.49846800  0.13315400  1
  C  166  1  0.64762300  0.49924400  0.11459700  1
  C  167  1  0.43502400  0.49831700  0.09486000  1
  C  170  1  0.86246300  0.49942400  0.13328100  1
  C  173  1  0.72014100  0.03963000  0.37814500  1
  C  174  1  0.82093400  0.03916800  0.36877200  1
  C  175  1  0.82093400  0.95967600  0.36857100  1
  C  176  1  0.72017100  0.95906900  0.37794900  1
  C  177  1  0.67188700  0.91947900  0.38150300  1
  C  178  1  0.71934100  0.88133700  0.37515500  1
  C  179  1  0.81939100  0.88285200  0.36581900  1
  C  180  1  0.87010600  0.92145900  0.36290400  1
  C  181  1  0.87008500  0.07747000  0.36326500  1
  C  182  1  0.81926300  0.11601400  0.36629800  1
  C  183  1  0.71908400  0.11736900  0.37557700  1
  C  184  1  0.67171700  0.07914600  0.38182600  1
  C  185  1  0.56570800  0.99933200  0.36964000  1
  C  186  1  0.46649600  0.99874300  0.37973100  1
  C  187  1  0.54760200  0.99863500  0.41803000  1
  C  188  1  0.64816200  0.99906400  0.40852300  1
  C  189  1  0.53593000  0.99832100  0.44141200  1
  C  190  1  0.62257800  0.99836000  0.45547300  1
  C  191  1  0.72301500  0.99873200  0.44640700  1
  C  192  1  0.73493200  0.99906400  0.42309000  1
  C  193  1  0.57125600  0.99982500  0.34600400  1
  C  194  1  0.48189200  0.99998800  0.33237300  1
  C  195  1  0.38447300  0.99912200  0.34302600  1
  C  196  1  0.37688600  0.99849400  0.36628800  1
  C  209  1  0.66351700  0.99929800  0.38357700  1
  C  210  1  0.45262900  0.99831300  0.40420300  1
  C  213  1  0.87668300  0.99946300  0.36395300  1
  C  216  1  0.30933100  0.03955800  0.61985800  1
  C  217  1  0.20786600  0.03909500  0.62889000  1
  C  218  1  0.20766500  0.95959000  0.62898800  1
  C  219  1  0.30903000  0.95898900  0.61991400  1
  C  220  1  0.35756600  0.91940100  0.61650600  1
  C  221  1  0.30976200  0.88126200  0.62273400  1
  C  222  1  0.20912400  0.88276200  0.63177100  1
  C  223  1  0.15814200  0.92136300  0.63450100  1
  C  224  1  0.15844600  0.07739500  0.63429000  1
  C  225  1  0.20962200  0.11592900  0.63148700  1
  C  226  1  0.31040900  0.11726900  0.62252100  1
  C  227  1  0.35815100  0.07906100  0.61639100  1
  C  228  1  0.46255600  0.99910800  0.62904600  1
  C  229  1  0.56287900  0.99829300  0.61948700  1
  C  230  1  0.48603600  0.99834200  0.58077500  1
  C  231  1  0.38446500  0.99911900  0.58976700  1
  C  232  1  0.50020900  0.99803800  0.55745500  1
  C  233  1  0.41510100  0.99856500  0.54296300  1
  C  234  1  0.31373200  0.99944800  0.55152800  1
  C  235  1  0.29931400  0.99966100  0.57477600  1
  C  236  1  0.45422800  0.99959500  0.65263700  1
  C  237  1  0.54192300  0.99957300  0.66674900  1
  C  238  1  0.64056800  0.99857500  0.65663400  1
  C  239  1  0.65087900  0.99788600  0.63341700  1
  C  252  1  0.36633900  0.99922700  0.61462000  1
  C  253  1  0.57945600  0.99773400  0.59509000  1
  C  256  1  0.15172600  0.99938200  0.63349200  1
  C  259  1  0.30996100  0.45915700  0.37886800  1
  C  260  1  0.20816200  0.45961900  0.37001100  1
  C  261  1  0.20805800  0.53911200  0.36982100  1
  C  262  1  0.30981700  0.53975000  0.37869000  1
  C  263  1  0.35885800  0.57933500  0.38178800  1
  C  264  1  0.31130800  0.61737000  0.37530300  1
  C  265  1  0.21015000  0.61584600  0.36654100  1
  C  266  1  0.15856800  0.57729200  0.36421400  1
  C  267  1  0.15879400  0.42134200  0.36455400  1
  C  268  1  0.21056600  0.38285700  0.36699400  1
  C  269  1  0.31184400  0.38151800  0.37570500  1
  C  270  1  0.35925500  0.41965700  0.38206900  1
  C  271  1  0.46323900  0.49950500  0.36963700  1
  C  272  1  0.56353700  0.50003400  0.37921100  1
  C  273  1  0.48649600  0.50004900  0.41792200  1
  C  274  1  0.38495500  0.49971600  0.40891000  1
  C  275  1  0.50052600  0.50024700  0.44124700  1
  C  276  1  0.41531900  0.50018800  0.45572300  1
  C  277  1  0.31394700  0.49993900  0.44714300  1
  C  278  1  0.29970000  0.49973200  0.42388600  1
  C  279  1  0.45492100  0.49908100  0.34604400  1
  C  280  1  0.54260500  0.49896800  0.33193200  1
  C  281  1  0.64124600  0.49972900  0.34205800  1
  C  282  1  0.65154700  0.50027900  0.36528000  1
  C  295  1  0.36699000  0.49951200  0.38405700  1
  C  296  1  0.57999700  0.50036700  0.40361800  1
  C  299  1  0.15169200  0.49932000  0.36557900  1
  C  302  1  0.71933600  0.45907200  0.62059600  1
  C  303  1  0.82059200  0.45956200  0.62973800  1
  C  304  1  0.82072100  0.53904300  0.62985200  1
  C  305  1  0.71956600  0.53965900  0.62066800  1
  C  306  1  0.67080100  0.57925000  0.61739000  1
  C  307  1  0.71794200  0.61731100  0.62398300  1
  C  308  1  0.81856400  0.61578900  0.63303000  1
  C  309  1  0.86989800  0.57722900  0.63556600  1
  C  310  1  0.86978100  0.42130100  0.63529800  1
  C  311  1  0.81826800  0.38280000  0.63270100  1
  C  312  1  0.71748300  0.38142000  0.62372900  1
  C  313  1  0.67033200  0.41955300  0.61725900  1
  C  314  1  0.56503100  0.49949900  0.62903300  1
  C  315  1  0.46584800  0.50025000  0.61893500  1
  C  316  1  0.54708300  0.50022500  0.58063200  1
  C  317  1  0.64760700  0.49952100  0.59014800  1
  C  318  1  0.53550800  0.50048300  0.55724600  1
  C  319  1  0.62219800  0.49998000  0.54319300  1
  C  320  1  0.72262600  0.49919700  0.55226100  1
  C  321  1  0.73441500  0.49903100  0.57558300  1
  C  322  1  0.57058800  0.49902800  0.65266800  1
  C  323  1  0.48123400  0.49896200  0.66630300  1
  C  324  1  0.38382900  0.49994200  0.65564600  1
  C  325  1  0.37624600  0.50061500  0.63238200  1
  C  338  1  0.66285200  0.49940800  0.61509400  1
  C  339  1  0.45207500  0.50078500  0.59445600  1
  C  342  1  0.87681200  0.49926600  0.63428700  1
  C  345  1  0.78804500  0.99858000  0.96165700  1
  C  346  1  0.83206100  0.96025000  0.96870700  1
  C  347  1  0.91537000  0.96008200  0.98379500  1
  C  348  1  0.95554500  0.99851800  0.99200800  1
  C  350  1  0.83005700  0.03621000  0.97011800  1
  C  351  1  0.03943300  0.00053900  0.00742700  1
  C  352  1  0.08108600  0.03904200  0.01520300  1
  C  353  1  0.16463600  0.03897300  0.03021800  1
  C  354  1  0.20714400  0.00067400  0.03772200  1
  C  355  1  0.16353000  0.96296700  0.02973700  1
  C  363  1  0.20750600  0.49996100  0.96098000  1
  C  364  1  0.16381400  0.53831700  0.96809100  1
  C  365  1  0.08033300  0.53854000  0.98314000  1
  C  366  1  0.03966700  0.50013700  0.99128600  1
  C  368  1  0.16499000  0.46236300  0.96937300  1
  C  369  1  0.95570200  0.49818200  0.00670500  1
  C  370  1  0.91438200  0.45972200  0.01462500  1
  C  371  1  0.83092400  0.45985400  0.02967100  1
  C  372  1  0.78801400  0.49816900  0.03704800  1
  C  373  1  0.83125600  0.53583300  0.02890900  1
  C  381  1  0.81000900  0.99821400  0.46063000  1
  C  382  1  0.85271700  0.95989900  0.46805400  1
  C  383  1  0.93633100  0.95979600  0.48305300  1
  C  384  1  0.97781800  0.99828100  0.49089300  1
  C  386  1  0.85353700  0.03590500  0.46865700  1
  C  387  1  0.06147000  0.00027100  0.50636600  1
  C  388  1  0.10140800  0.03869000  0.51465500  1
  C  389  1  0.18433500  0.03848600  0.52983900  1
  C  390  1  0.22818400  0.00013900  0.53690700  1
  C  391  1  0.18646800  0.96252800  0.52835800  1
  C  399  1  0.22826900  0.50045200  0.46175400  1
  C  400  1  0.18509600  0.53875400  0.46907600  1
  C  401  1  0.10202600  0.53886100  0.48422200  1
  C  402  1  0.06133200  0.50039200  0.49227800  1
  C  404  1  0.18571200  0.46277800  0.47004600  1
  C  405  1  0.97758700  0.49840800  0.50774600  1
  C  406  1  0.93687100  0.45998700  0.51585600  1
  C  407  1  0.85327700  0.46017800  0.53087700  1
  C  408  1  0.80967600  0.49852100  0.53803000  1
  C  409  1  0.85232600  0.53614200  0.52969300  1
  C  417  1  0.35155200  0.34289200  0.87544300  1
  C  418  1  0.36564300  0.31905300  0.85585000  1
  C  419  1  0.42481200  0.28200200  0.85612200  1
  C  420  1  0.46945300  0.26789400  0.87626100  1
  C  422  1  0.39868100  0.32795900  0.89511000  1
  C  423  1  0.52984000  0.23061600  0.87738200  1
  C  424  1  0.54434700  0.20755800  0.89725300  1
  C  425  1  0.60222500  0.17004100  0.89687300  1
  C  426  1  0.64892800  0.15591000  0.87697200  1
  C  427  1  0.63384700  0.18040000  0.85765900  1
  C  435  1  0.64651500  0.34302400  0.12300500  1
  C  436  1  0.63231500  0.31943400  0.14267700  1
  C  437  1  0.57291600  0.28244200  0.14252900  1
  C  438  1  0.52823900  0.26812300  0.12243300  1
  C  440  1  0.59926200  0.32791900  0.10339000  1
  C  441  1  0.46787300  0.23083000  0.12143000  1
  C  442  1  0.45333900  0.20756100  0.10162900  1
  C  443  1  0.39580500  0.16996300  0.10214400  1
  C  444  1  0.34937100  0.15598600  0.12210400  1
  C  445  1  0.36429800  0.18072300  0.14133300  1
  C  453  1  0.64591600  0.65554700  0.12260400  1
  C  454  1  0.63194000  0.67920900  0.14226000  1
  C  455  1  0.57274900  0.71625400  0.14209200  1
  C  456  1  0.52815100  0.73057100  0.12198900  1
  C  458  1  0.59868800  0.67064000  0.10298400  1
  C  459  1  0.46808800  0.76794200  0.12097300  1
  C  460  1  0.45378100  0.79123900  0.10117300  1
  C  461  1  0.39642700  0.82888500  0.10168200  1
  C  462  1  0.34990900  0.84286400  0.12163200  1
  C  463  1  0.36472900  0.81812500  0.14086600  1
  C  471  1  0.35247200  0.65556900  0.87573900  1
  C  472  1  0.36634800  0.67943200  0.85614900  1
  C  473  1  0.42527600  0.71653800  0.85642300  1
  C  474  1  0.46980400  0.73068600  0.87656600  1
  C  476  1  0.39953300  0.67052000  0.89540800  1
  C  477  1  0.52982200  0.76805400  0.87767800  1
  C  478  1  0.54405700  0.79118500  0.89753400  1
  C  479  1  0.60154400  0.82880100  0.89712600  1
  C  480  1  0.64820800  0.84291600  0.87721900  1
  C  481  1  0.63341000  0.81835100  0.85792300  1
  C  489  1  0.36820400  0.34322200  0.37613600  1
  C  490  1  0.38220500  0.31966600  0.35644900  1
  C  491  1  0.44124200  0.28259000  0.35658100  1
  C  492  1  0.48580600  0.26819200  0.37667200  1
  C  494  1  0.41537500  0.32805700  0.39574500  1
  C  495  1  0.54578700  0.23080500  0.37764600  1
  C  496  1  0.56030600  0.20748200  0.39743100  1
  C  497  1  0.61768700  0.16984900  0.39687900  1
  C  498  1  0.66379900  0.15586600  0.37688800  1
  C  499  1  0.64870700  0.18061300  0.35766700  1
  C  507  1  0.66140000  0.34305800  0.62308800  1
  C  508  1  0.64741100  0.31913800  0.64265600  1
  C  509  1  0.58847200  0.28204300  0.64233500  1
  C  510  1  0.54412000  0.26795000  0.62216400  1
  C  512  1  0.61444400  0.32817000  0.60339300  1
  C  513  1  0.48413800  0.23059400  0.62100800  1
  C  514  1  0.47006100  0.20750400  0.60113500  1
  C  515  1  0.41262800  0.16987500  0.60151000  1
  C  516  1  0.36584600  0.15573800  0.62139700  1
  C  517  1  0.38049600  0.18025800  0.64071200  1
  C  525  1  0.66194600  0.65570700  0.62334800  1
  C  526  1  0.64769100  0.67957700  0.64292300  1
  C  527  1  0.58850400  0.71661700  0.64260900  1
  C  528  1  0.54413100  0.73070300  0.62244000  1
  C  530  1  0.61506300  0.67061800  0.60364800  1
  C  531  1  0.48382400  0.76798700  0.62127800  1
  C  532  1  0.46951400  0.79101400  0.60139100  1
  C  533  1  0.41186000  0.82858500  0.60174700  1
  C  534  1  0.36508600  0.84275000  0.62163200  1
  C  535  1  0.37985900  0.81826500  0.64095600  1
  C  543  1  0.36745500  0.65572000  0.37572900  1
  C  544  1  0.38162400  0.67923100  0.35603200  1
  C  545  1  0.44088500  0.71625300  0.35615200  1
  C  546  1  0.48548300  0.73065200  0.37623900  1
  C  548  1  0.41459000  0.67090700  0.39533900  1
  C  549  1  0.54577200  0.76796000  0.37721000  1
  C  550  1  0.56054800  0.79122800  0.39700300  1
  C  551  1  0.61807300  0.82882300  0.39645100  1
  C  552  1  0.66420600  0.84279800  0.37645900  1
  C  553  1  0.64898200  0.81807200  0.35723600  1
  C  561  1  0.48171000  0.99830200  0.80839800  1
  C  562  1  0.41718500  0.97269200  0.79503700  1
  C  563  1  0.42617400  0.97262200  0.77171800  1
  C  564  1  0.50047900  0.99855000  0.76120200  1
  C  566  1  0.55542400  0.02334600  0.79714200  1
  C  567  1  0.51298700  0.00018600  0.73762700  1
  C  568  1  0.58732900  0.02611200  0.72711900  1
  C  569  1  0.59637000  0.02604600  0.70380400  1
  C  570  1  0.53190000  0.00043200  0.69043200  1
  C  571  1  0.45816100  0.97538500  0.70167900  1
  C  579  1  0.52155100  0.99729900  0.19035900  1
  C  580  1  0.58709200  0.97147700  0.20337800  1
  C  581  1  0.58111600  0.97153300  0.22673600  1
  C  582  1  0.50891300  0.99783100  0.23766000  1
  C  584  1  0.44959800  0.02253800  0.20200800  1
  C  585  1  0.50017100  0.99981600  0.26131300  1
  C  586  1  0.42791500  0.02605900  0.27225500  1
  C  587  1  0.42257400  0.02632600  0.29562500  1
  C  588  1  0.48880400  0.00076800  0.30862900  1
  C  589  1  0.56049500  0.97545300  0.29695200  1
  C  597  1  0.52221300  0.50111800  0.80832500  1
  C  598  1  0.58786800  0.52688300  0.79530100  1
  C  599  1  0.58166300  0.52691800  0.77194100  1
  C  600  1  0.50910900  0.50077200  0.76102000  1
  C  602  1  0.44999800  0.47599400  0.79667800  1
  C  603  1  0.50005500  0.49890800  0.73736800  1
  C  604  1  0.42746000  0.47281300  0.72642700  1
  C  605  1  0.42187500  0.47264300  0.70305900  1
  C  606  1  0.48820700  0.49815000  0.69004800  1
  C  607  1  0.56021300  0.52332500  0.70172400  1
  C  615  1  0.48106200  0.50048000  0.19027900  1
  C  616  1  0.41679900  0.52612000  0.20368300  1
  C  617  1  0.42602600  0.52616000  0.22699700  1
  C  618  1  0.50031100  0.50016200  0.23747800  1
  C  620  1  0.55467500  0.47532800  0.20150300  1
  C  621  1  0.51311800  0.49851500  0.26104800  1
  C  622  1  0.58742700  0.47251700  0.27151700  1
  C  623  1  0.59672800  0.47255800  0.29483000  1
  C  624  1  0.53251300  0.49820400  0.30824300  1
  C  625  1  0.45886200  0.52335300  0.29703000  1
  H  25  1  0.30751900  0.00105100  0.83284900  1
  H  26  1  0.29077800  0.00160700  0.87226200  1
  H  27  1  0.44275000  0.00123600  0.94806800  1
  H  28  1  0.58865900  0.00031200  0.97259500  1
  H  29  1  0.78987000  0.99849300  0.91763900  1
  H  30  1  0.63180900  0.99785700  0.83908400  1
  H  31  1  0.58228500  0.91890500  0.88836800  1
  H  32  1  0.84106500  0.85562700  0.86229100  1
  H  33  1  0.92821600  0.92121200  0.85738800  1
  H  34  1  0.58296200  0.08008600  0.88829300  1
  H  35  1  0.92843600  0.07724400  0.85713200  1
  H  36  1  0.84159100  0.14294000  0.86190500  1
  H  39  1  0.39143300  0.02923700  0.90788400  1
  H  40  1  0.38853400  0.97352500  0.90813300  1
  H  42  1  0.93371400  0.99930000  0.87482100  1
  H  43  1  0.88353400  0.99919200  0.84738900  1
  H  68  1  0.69390400  0.00014200  0.16543100  1
  H  69  1  0.70841400  0.00100100  0.12600500  1
  H  70  1  0.55296100  0.00122700  0.05062600  1
  H  71  1  0.40598900  0.00117000  0.02640000  1
  H  72  1  0.20716000  0.99950700  0.08175600  1
  H  73  1  0.36919400  0.99760000  0.16006700  1
  H  74  1  0.41600200  0.91891100  0.11058600  1
  H  75  1  0.15729600  0.85559700  0.13668100  1
  H  76  1  0.07046700  0.92120100  0.14177100  1
  H  77  1  0.41570600  0.08012300  0.11092200  1
  H  78  1  0.07040800  0.07721200  0.14217800  1
  H  79  1  0.15695500  0.14294300  0.13728800  1
  H  82  1  0.60640100  0.02888500  0.09069800  1
  H  83  1  0.60852100  0.97316500  0.09039700  1
  H  85  1  0.06509500  0.99936900  0.12448700  1
  H  86  1  0.11545700  0.99909300  0.15190300  1
  H  111  1  0.69459100  0.49805000  0.83326000  1
  H  112  1  0.70907700  0.49710700  0.87269200  1
  H  113  1  0.55336900  0.49712200  0.94808700  1
  H  114  1  0.40636100  0.49806200  0.97229800  1
  H  115  1  0.20773000  0.50013100  0.91692300  1
  H  116  1  0.36990900  0.50101700  0.83862400  1
  H  117  1  0.41777000  0.57978200  0.88751600  1
  H  118  1  0.15861800  0.64292500  0.86151200  1
  H  119  1  0.07065400  0.57740800  0.85713400  1
  H  120  1  0.41707300  0.41850600  0.88736200  1
  H  121  1  0.07038000  0.42152100  0.85681900  1
  H  122  1  0.15794000  0.35587200  0.86104900  1
  H  125  1  0.60648900  0.46922300  0.90799300  1
  H  126  1  0.60956000  0.52493400  0.90832900  1
  H  128  1  0.06578200  0.49936100  0.87484200  1
  H  129  1  0.11414300  0.49951800  0.84725900  1
  H  154  1  0.30679800  0.49818800  0.16580400  1
  H  155  1  0.29011100  0.49781400  0.12638500  1
  H  156  1  0.44250000  0.49798100  0.05056500  1
  H  157  1  0.58856500  0.49800000  0.02607400  1
  H  158  1  0.78947600  0.49914700  0.08107600  1
  H  159  1  0.63112300  0.50077200  0.15958700  1
  H  160  1  0.58088300  0.57981300  0.11072200  1
  H  161  1  0.83995000  0.64293500  0.13675900  1
  H  162  1  0.92816200  0.57744000  0.14100600  1
  H  163  1  0.58131600  0.41858100  0.11095400  1
  H  164  1  0.92828000  0.42153300  0.14136200  1
  H  165  1  0.84036400  0.35592200  0.13728000  1
  H  168  1  0.39031300  0.47017800  0.09072000  1
  H  169  1  0.38862000  0.52589600  0.09053400  1
  H  171  1  0.93304400  0.49935400  0.12324500  1
  H  172  1  0.88479900  0.49956500  0.15083600  1
  H  197  1  0.31756600  0.99825800  0.33393300  1
  H  198  1  0.30489100  0.99778400  0.37339100  1
  H  199  1  0.46371900  0.99795000  0.44841700  1
  H  200  1  0.61174100  0.99798000  0.47234000  1
  H  201  1  0.80815800  0.99920500  0.41658200  1
  H  202  1  0.64252200  0.00089700  0.33860300  1
  H  203  1  0.59832700  0.91864200  0.38782000  1
  H  204  1  0.85610100  0.85582600  0.36099900  1
  H  205  1  0.94244100  0.92155200  0.35595700  1
  H  206  1  0.59803600  0.07986900  0.38808600  1
  H  207  1  0.94245800  0.07749200  0.35633600  1
  H  208  1  0.85590300  0.14310900  0.36155900  1
  H  211  1  0.40656500  0.02587300  0.40872900  1
  H  212  1  0.40836000  0.97014800  0.40851500  1
  H  214  1  0.94840800  0.99937500  0.37361200  1
  H  215  1  0.89696700  0.99961700  0.34628700  1
  H  240  1  0.70634300  0.99758900  0.66609800  1
  H  241  1  0.72367200  0.99702100  0.62670500  1
  H  242  1  0.57314700  0.99744900  0.55081400  1
  H  243  1  0.42774000  0.99839600  0.52615500  1
  H  244  1  0.22541600  0.00018600  0.58092500  1
  H  245  1  0.38212800  0.00081500  0.65964500  1
  H  246  1  0.43158200  0.91856500  0.61044200  1
  H  247  1  0.17220100  0.85573500  0.63651300  1
  H  248  1  0.08544200  0.92145100  0.64126700  1
  H  249  1  0.43229000  0.07977400  0.61038400  1
  H  250  1  0.08564600  0.07742000  0.64100800  1
  H  251  1  0.17275800  0.14302500  0.63614400  1
  H  254  1  0.62656100  0.02513100  0.59078300  1
  H  255  1  0.62363400  0.96941600  0.59102800  1
  H  257  1  0.08062700  0.99936300  0.62362400  1
  H  258  1  0.13031900  0.99947000  0.65109900  1
  H  283  1  0.70704900  0.50055900  0.33259900  1
  H  284  1  0.72433900  0.50092000  0.37199800  1
  H  285  1  0.57343600  0.50053600  0.44790600  1
  H  286  1  0.42788800  0.50047400  0.47253300  1
  H  287  1  0.22583200  0.49964700  0.41772300  1
  H  288  1  0.38279500  0.49799600  0.33903900  1
  H  289  1  0.43321100  0.58018100  0.38765900  1
  H  290  1  0.17339900  0.64281200  0.36164000  1
  H  291  1  0.08555500  0.57717200  0.35760500  1
  H  292  1  0.43369800  0.41893400  0.38789500  1
  H  293  1  0.08573800  0.42132300  0.35796700  1
  H  294  1  0.17392000  0.35581200  0.36218100  1
  H  297  1  0.62643900  0.47276200  0.40788600  1
  H  298  1  0.62482400  0.52848700  0.40773600  1
  H  300  1  0.08132200  0.49938900  0.37568600  1
  H  301  1  0.12899400  0.49916900  0.34804600  1
  H  326  1  0.31692900  0.50087600  0.66474000  1
  H  327  1  0.30425900  0.50143600  0.62527800  1
  H  328  1  0.46332600  0.50100800  0.55023300  1
  H  329  1  0.61137900  0.50010900  0.52632400  1
  H  330  1  0.80761600  0.49855000  0.58209700  1
  H  331  1  0.64185500  0.49784200  0.66006400  1
  H  332  1  0.59690500  0.58010500  0.61126000  1
  H  333  1  0.85510400  0.64276200  0.63799200  1
  H  334  1  0.94252500  0.57712500  0.64237100  1
  H  335  1  0.59633900  0.41881400  0.61117300  1
  H  336  1  0.94241900  0.42131300  0.64209700  1
  H  337  1  0.85476700  0.35576800  0.63758400  1
  H  340  1  0.40557500  0.47335600  0.58990900  1
  H  341  1  0.40827100  0.52907100  0.59015600  1
  H  343  1  0.94777900  0.49930400  0.62437500  1
  H  344  1  0.89846500  0.49916900  0.65188200  1
  H  357  1  0.19197000  0.93437300  0.03452400  1
  H  358  1  0.05215100  0.06727500  0.00996400  1
  H  359  1  0.19464800  0.06703900  0.03549700  1
  H  360  1  0.80067100  0.06482000  0.96563300  1
  H  361  1  0.80329200  0.93223100  0.96305400  1
  H  362  1  0.94554500  0.93183600  0.98868400  1
  H  375  1  0.80266700  0.56444700  0.03362300  1
  H  376  1  0.94360300  0.43146700  0.00949000  1
  H  377  1  0.80128500  0.43180700  0.03507300  1
  H  378  1  0.19421600  0.43372800  0.96488200  1
  H  379  1  0.19306800  0.56632400  0.96253700  1
  H  380  1  0.05051600  0.56681100  0.98809000  1
  H  393  1  0.21576700  0.93390800  0.53285400  1
  H  394  1  0.07133600  0.06694500  0.50975300  1
  H  395  1  0.21297100  0.06649200  0.53554100  1
  H  396  1  0.82484900  0.06450600  0.46395000  1
  H  397  1  0.82263500  0.93184400  0.46277600  1
  H  398  1  0.96530200  0.93155000  0.48826600  1
  H  411  1  0.82307400  0.56476400  0.53419400  1
  H  412  1  0.96653400  0.43172200  0.51085200  1
  H  413  1  0.82382900  0.43215900  0.53636400  1
  H  414  1  0.21454600  0.43417700  0.46537500  1
  H  415  1  0.21425000  0.56680500  0.46356300  1
  H  416  1  0.07253400  0.56710300  0.48930000  1
  H  429  1  0.66353200  0.17135800  0.84264300  1
  H  430  1  0.51072100  0.21697900  0.91182200  1
  H  431  1  0.61061300  0.15324800  0.91127800  1
  H  432  1  0.39109200  0.34385700  0.90979000  1
  H  433  1  0.33475000  0.32895000  0.84107300  1
  H  434  1  0.43362300  0.26544500  0.84166200  1
  H  447  1  0.33476700  0.17181400  0.15638400  1
  H  448  1  0.48693300  0.21682500  0.08702900  1
  H  449  1  0.38746100  0.15299900  0.08779300  1
  H  450  1  0.60693800  0.34364000  0.08865800  1
  H  451  1  0.66331600  0.32946500  0.15741700  1
  H  452  1  0.56413200  0.26603600  0.15703800  1
  H  465  1  0.33518000  0.82705100  0.15591200  1
  H  466  1  0.48736100  0.78194200  0.08657800  1
  H  467  1  0.38814700  0.84584900  0.08733100  1
  H  468  1  0.60624600  0.65486800  0.08826400  1
  H  469  1  0.66289800  0.66918700  0.15700500  1
  H  470  1  0.56411800  0.73270600  0.15659100  1
  H  483  1  0.66313900  0.82736700  0.84290800  1
  H  484  1  0.51039000  0.78177700  0.91210100  1
  H  485  1  0.60981000  0.84564200  0.91151900  1
  H  486  1  0.39203400  0.65460100  0.91008400  1
  H  487  1  0.33543100  0.66953000  0.84137600  1
  H  488  1  0.43387400  0.73313300  0.84196900  1
  H  501  1  0.67802900  0.17170400  0.34259600  1
  H  502  1  0.52707400  0.21680900  0.41205800  1
  H  503  1  0.62619200  0.15288000  0.41122100  1
  H  504  1  0.40777700  0.34376600  0.41048200  1
  H  505  1  0.35119600  0.32974800  0.34171800  1
  H  506  1  0.44988700  0.26620500  0.34206200  1
  H  519  1  0.35067700  0.17121100  0.65571500  1
  H  520  1  0.50382800  0.21694100  0.58658300  1
  H  521  1  0.40447100  0.15305000  0.58710900  1
  H  522  1  0.62205200  0.34412700  0.58873100  1
  H  523  1  0.67813900  0.32901600  0.65745200  1
  H  524  1  0.57980900  0.26540100  0.65677400  1
  H  537  1  0.35013400  0.82735300  0.65596100  1
  H  538  1  0.50331600  0.78158700  0.58684300  1
  H  539  1  0.40364300  0.84537800  0.58733800  1
  H  540  1  0.62277900  0.65468900  0.58897900  1
  H  541  1  0.67830700  0.66968100  0.65772700  1
  H  542  1  0.57956900  0.73319900  0.65705800  1
  H  555  1  0.67826600  0.82698600  0.34216300  1
  H  556  1  0.52717700  0.78195600  0.41162600  1
  H  557  1  0.62663200  0.84578300  0.41079600  1
  H  558  1  0.40695500  0.65522000  0.41008100  1
  H  559  1  0.35071700  0.66911800  0.34129700  1
  H  560  1  0.44970600  0.73259500  0.34162400  1
  H  573  1  0.41003000  0.95557400  0.69319400  1
  H  574  1  0.63531900  0.04511200  0.73616900  1
  H  575  1  0.65007000  0.04544600  0.69665400  1
  H  576  1  0.60350700  0.04319200  0.80561500  1
  H  577  1  0.36353400  0.95328800  0.80219600  1
  H  578  1  0.37817900  0.95361500  0.76267300  1
  H  591  1  0.60965900  0.95564200  0.30515900  1
  H  592  1  0.37869700  0.04500900  0.26348400  1
  H  593  1  0.37019700  0.04590500  0.30308200  1
  H  594  1  0.40099000  0.04255700  0.19378900  1
  H  595  1  0.63956900  0.95192200  0.19593600  1
  H  596  1  0.63000200  0.95245700  0.23551600  1
  H  609  1  0.60944900  0.54310500  0.69351500  1
  H  610  1  0.37818800  0.45389100  0.73520200  1
  H  611  1  0.36928600  0.45315500  0.69560500  1
  H  612  1  0.40121000  0.45605400  0.80490200  1
  H  613  1  0.64054300  0.54635500  0.80273800  1
  H  614  1  0.63059800  0.54596900  0.76316000  1
  H  627  1  0.41092000  0.54320200  0.30554000  1
  H  628  1  0.63518500  0.45346700  0.26244000  1
  H  629  1  0.65031900  0.45307400  0.30195000  1
  H  630  1  0.60263200  0.45547200  0.19300100  1
  H  631  1  0.36323900  0.54560700  0.19655300  1
  H  632  1  0.37826000  0.54521100  0.23607100  1
  N  349  1  0.91034800  0.03466000  0.98463400  1
  N  356  1  0.08326100  0.96441700  0.01520300  1
  N  367  1  0.08459400  0.46396600  0.98386800  1
  N  374  1  0.91153000  0.53432800  0.01437000  1
  N  385  1  0.93383500  0.03442100  0.48318000  1
  N  392  1  0.10651700  0.96411100  0.51375700  1
  N  403  1  0.10574900  0.46426200  0.48466100  1
  N  410  1  0.93272800  0.53456700  0.51520200  1
  N  421  1  0.45391200  0.29163500  0.89482200  1
  N  428  1  0.57550700  0.21573700  0.85856300  1
  N  439  1  0.54387300  0.29163800  0.10379600  1
  N  446  1  0.42240400  0.21610800  0.14030600  1
  N  457  1  0.54355100  0.70698500  0.10336800  1
  N  464  1  0.42266100  0.78269800  0.13984500  1
  N  475  1  0.45449600  0.70691400  0.89512400  1
  N  482  1  0.57539800  0.78293600  0.85885100  1
  N  493  1  0.47043700  0.29169700  0.39532100  1
  N  500  1  0.59089100  0.21605800  0.35873900  1
  N  511  1  0.55951800  0.29177300  0.60362800  1
  N  518  1  0.43846500  0.21568100  0.63981700  1
  N  529  1  0.55984900  0.70694200  0.60389400  1
  N  536  1  0.43808700  0.78290300  0.64008000  1
  N  547  1  0.46989000  0.70720300  0.39490000  1
  N  554  1  0.59093900  0.78268200  0.35830300  1
  N  565  1  0.56134800  0.02263500  0.77461700  1
  N  572  1  0.45213800  0.97610600  0.72420400  1
  N  583  1  0.44670500  0.02200700  0.22457100  1
  N  590  1  0.56289200  0.97583500  0.27438900  1
  N  601  1  0.44684200  0.47662900  0.77411600  1
  N  608  1  0.56282700  0.52285600  0.72428600  1
  N  619  1  0.56087300  0.47602200  0.22402400  1
  N  626  1  0.45258700  0.52265200  0.27450800  1
