# generated using pymatgen
data_ZnH12C20NO4
_symmetry_space_group_name_H-M   'P 1'
_cell_length_a   17.45447000
_cell_length_b   23.23040306
_cell_length_c   23.23064314
_cell_angle_alpha   102.44792326
_cell_angle_beta   112.01555960
_cell_angle_gamma   112.01579927
_symmetry_Int_Tables_number   1
_chemical_formula_structural   ZnH12C20NO4
_chemical_formula_sum   'Zn4 H48 C80 N4 O16'
_cell_volume   7368.36641683
_cell_formula_units_Z   4
loop_
 _symmetry_equiv_pos_site_id
 _symmetry_equiv_pos_as_xyz
  1  'x, y, z'
loop_
 _atom_site_type_symbol
 _atom_site_label
 _atom_site_symmetry_multiplicity
 _atom_site_fract_x
 _atom_site_fract_y
 _atom_site_fract_z
 _atom_site_occupancy
  Zn  Zn1  1  0.04931000  0.47418000  0.02566000  1.0
  Zn  Zn2  1  0.04931000  0.02566000  0.47418000  1.0
  Zn  Zn3  1  0.95069000  0.52582000  0.97434000  1.0
  Zn  Zn4  1  0.95069000  0.97434000  0.52582000  1.0
  H  H1  1  0.09132000  0.57464000  0.33911000  1.0
  H  H2  1  0.90988000  0.60907000  0.13943000  1.0
  H  H3  1  0.09079000  0.53265000  0.23081000  1.0
  H  H4  1  0.90828000  0.65008000  0.24691000  1.0
  H  H5  1  0.11352000  0.68497000  0.49611000  1.0
  H  H6  1  0.11350000  0.61784000  0.56427000  1.0
  H  H7  1  0.67799000  0.92562000  0.16095000  1.0
  H  H8  1  0.66142000  0.89091000  0.36056000  1.0
  H  H9  1  0.82737000  0.96737000  0.26928000  1.0
  H  H10  1  0.51170000  0.85017000  0.25310000  1.0
  H  H11  1  0.43237000  0.81498000  0.00382000  1.0
  H  H12  1  0.43131000  0.88215000  0.93563000  1.0
  H  H13  1  0.32200000  0.83905000  0.07437000  1.0
  H  H14  1  0.33857000  0.63944000  0.10909000  1.0
  H  H15  1  0.17263000  0.73072000  0.03263000  1.0
  H  H16  1  0.48829000  0.74690000  0.14983000  1.0
  H  H17  1  0.56764000  0.99619000  0.18502000  1.0
  H  H18  1  0.56869000  0.06437000  0.11785000  1.0
  H  H19  1  0.90868000  0.66089000  0.42535000  1.0
  H  H20  1  0.09013000  0.86058000  0.39093000  1.0
  H  H21  1  0.90921000  0.76919000  0.46735000  1.0
  H  H22  1  0.09172000  0.75309000  0.34992000  1.0
  H  H23  1  0.88648000  0.50389000  0.31503000  1.0
  H  H24  1  0.88651000  0.43573000  0.38216000  1.0
  H  H25  1  0.90868000  0.42535000  0.66090000  1.0
  H  H26  1  0.09012000  0.39092000  0.86058000  1.0
  H  H27  1  0.90921000  0.46735000  0.76919000  1.0
  H  H28  1  0.09172000  0.34992000  0.75309000  1.0
  H  H29  1  0.88647000  0.31502000  0.50389000  1.0
  H  H30  1  0.88651000  0.38216000  0.43573000  1.0
  H  H31  1  0.32200000  0.07437000  0.83905000  1.0
  H  H32  1  0.33858000  0.10908000  0.63945000  1.0
  H  H33  1  0.17263000  0.03263000  0.73072000  1.0
  H  H34  1  0.48830000  0.14983000  0.74690000  1.0
  H  H35  1  0.56764000  0.18502000  0.99619000  1.0
  H  H36  1  0.56869000  0.11785000  0.06437000  1.0
  H  H37  1  0.67801000  0.16095000  0.92563000  1.0
  H  H38  1  0.66142000  0.36055000  0.89092000  1.0
  H  H39  1  0.82737000  0.26928000  0.96737000  1.0
  H  H40  1  0.51170000  0.25310000  0.85017000  1.0
  H  H41  1  0.43237000  0.00381000  0.81498000  1.0
  H  H42  1  0.43131000  0.93563000  0.88215000  1.0
  H  H43  1  0.09131000  0.33910000  0.57465000  1.0
  H  H44  1  0.90987000  0.13942000  0.60907000  1.0
  H  H45  1  0.09079000  0.23081000  0.53265000  1.0
  H  H46  1  0.90828000  0.24691000  0.65008000  1.0
  H  H47  1  0.11352000  0.49611000  0.68497000  1.0
  H  H48  1  0.11350000  0.56427000  0.61784000  1.0
  C  C1  1  0.00083000  0.54381000  0.11360000  1.0
  C  C2  1  0.05128000  0.58170000  0.29514000  1.0
  C  C3  1  0.00014000  0.61528000  0.30023000  1.0
  C  C4  1  0.94981000  0.60208000  0.18349000  1.0
  C  C5  1  0.00060000  0.56839000  0.17813000  1.0
  C  C6  1  0.05096000  0.55831000  0.23468000  1.0
  C  C7  1  0.94888000  0.62496000  0.24351000  1.0
  C  C8  1  0.06356000  0.63028000  0.47157000  1.0
  C  C9  1  0.06288000  0.59164000  0.50975000  1.0
  C  C10  1  0.84364000  0.95609000  0.38625000  1.0
  C  C11  1  0.67459000  0.91843000  0.20482000  1.0
  C  C12  1  0.58478000  0.88479000  0.19969000  1.0
  C  C13  1  0.66445000  0.89802000  0.31655000  1.0
  C  C14  1  0.75421000  0.93164000  0.32188000  1.0
  C  C15  1  0.75798000  0.94173000  0.26528000  1.0
  C  C16  1  0.58078000  0.87523000  0.25653000  1.0
  C  C17  1  0.46165000  0.86969000  0.02837000  1.0
  C  C18  1  0.46144000  0.90834000  0.99019000  1.0
  C  C19  1  0.15636000  0.61375000  0.04391000  1.0
  C  C20  1  0.32541000  0.79519000  0.08157000  1.0
  C  C21  1  0.41521000  0.80031000  0.11521000  1.0
  C  C22  1  0.33556000  0.68345000  0.10199000  1.0
  C  C23  1  0.24579000  0.67812000  0.06836000  1.0
  C  C24  1  0.24202000  0.73472000  0.05827000  1.0
  C  C25  1  0.41922000  0.74347000  0.12478000  1.0
  C  C26  1  0.53835000  0.97163000  0.13031000  1.0
  C  C27  1  0.53856000  0.00981000  0.09166000  1.0
  C  C28  1  0.99916000  0.88640000  0.45618000  1.0
  C  C29  1  0.94873000  0.70486000  0.41830000  1.0
  C  C30  1  0.99986000  0.69977000  0.38472000  1.0
  C  C31  1  0.05019000  0.81651000  0.39792000  1.0
  C  C32  1  0.99940000  0.82187000  0.43161000  1.0
  C  C33  1  0.94903000  0.76532000  0.44168000  1.0
  C  C34  1  0.05113000  0.75649000  0.37504000  1.0
  C  C35  1  0.93645000  0.52843000  0.36972000  1.0
  C  C36  1  0.93712000  0.49025000  0.40836000  1.0
  C  C37  1  0.99916000  0.45618000  0.88640000  1.0
  C  C38  1  0.94872000  0.41830000  0.70486000  1.0
  C  C39  1  0.99986000  0.38472000  0.69977000  1.0
  C  C40  1  0.05018000  0.39791000  0.81651000  1.0
  C  C41  1  0.99940000  0.43161000  0.82187000  1.0
  C  C42  1  0.94903000  0.44168000  0.76532000  1.0
  C  C43  1  0.05111000  0.37503000  0.75649000  1.0
  C  C44  1  0.93644000  0.36971000  0.52843000  1.0
  C  C45  1  0.93712000  0.40836000  0.49025000  1.0
  C  C46  1  0.15635000  0.04390000  0.61375000  1.0
  C  C47  1  0.32542000  0.08157000  0.79519000  1.0
  C  C48  1  0.41521000  0.11520000  0.80031000  1.0
  C  C49  1  0.33556000  0.10198000  0.68345000  1.0
  C  C50  1  0.24579000  0.06836000  0.67812000  1.0
  C  C51  1  0.24203000  0.05827000  0.73472000  1.0
  C  C52  1  0.41922000  0.12477000  0.74347000  1.0
  C  C53  1  0.53834000  0.13030000  0.97163000  1.0
  C  C54  1  0.53857000  0.09166000  0.00982000  1.0
  C  C55  1  0.84364000  0.38625000  0.95609000  1.0
  C  C56  1  0.67459000  0.20481000  0.91843000  1.0
  C  C57  1  0.58480000  0.19969000  0.88480000  1.0
  C  C58  1  0.66445000  0.31655000  0.89802000  1.0
  C  C59  1  0.75421000  0.32188000  0.93164000  1.0
  C  C60  1  0.75798000  0.26528000  0.94173000  1.0
  C  C61  1  0.58078000  0.25653000  0.87523000  1.0
  C  C62  1  0.46166000  0.02837000  0.86970000  1.0
  C  C63  1  0.46144000  0.99019000  0.90834000  1.0
  C  C64  1  0.00083000  0.11359000  0.54382000  1.0
  C  C65  1  0.05127000  0.29514000  0.58170000  1.0
  C  C66  1  0.00014000  0.30023000  0.61528000  1.0
  C  C67  1  0.94980000  0.18348000  0.60208000  1.0
  C  C68  1  0.00059000  0.17812000  0.56839000  1.0
  C  C69  1  0.05097000  0.23468000  0.55832000  1.0
  C  C70  1  0.94889000  0.24351000  0.62497000  1.0
  C  C71  1  0.06355000  0.47156000  0.63029000  1.0
  C  C72  1  0.06288000  0.50975000  0.59164000  1.0
  C  C73  1  0.00000000  0.59907000  0.40093000  1.0
  C  C74  1  1.00000000  0.52046000  0.47954000  1.0
  C  C75  1  0.50000000  0.90096000  0.09904000  1.0
  C  C76  1  0.50000000  0.97954000  0.02046000  1.0
  C  C77  1  0.00000000  0.40093000  0.59907000  1.0
  C  C78  1  0.00000000  0.47954000  0.52046000  1.0
  C  C79  1  0.50000000  0.09904000  0.90096000  1.0
  C  C80  1  0.50000000  0.02045000  0.97955000  1.0
  N  N1  1  0.00000000  0.63834000  0.36166000  1.0
  N  N2  1  0.50000000  0.86167000  0.13833000  1.0
  N  N3  1  0.00000000  0.36165000  0.63835000  1.0
  N  N4  1  0.50000000  0.13833000  0.86167000  1.0
  O  O1  1  0.04558000  0.51115000  0.11119000  1.0
  O  O2  1  0.95628000  0.55711000  0.06497000  1.0
  O  O3  1  0.92324000  0.98878000  0.38850000  1.0
  O  O4  1  0.83478000  0.94268000  0.43493000  1.0
  O  O5  1  0.07675000  0.61149000  0.01122000  1.0
  O  O6  1  0.16522000  0.56507000  0.05732000  1.0
  O  O7  1  0.95442000  0.88881000  0.48885000  1.0
  O  O8  1  0.04372000  0.93503000  0.44289000  1.0
  O  O9  1  0.95442000  0.48885000  0.88881000  1.0
  O  O10  1  0.04371000  0.44288000  0.93503000  1.0
  O  O11  1  0.07675000  0.01121000  0.61150000  1.0
  O  O12  1  0.16522000  0.05732000  0.56507000  1.0
  O  O13  1  0.92325000  0.38850000  0.98879000  1.0
  O  O14  1  0.83478000  0.43493000  0.94268000  1.0
  O  O15  1  0.04557000  0.11118000  0.51115000  1.0
  O  O16  1  0.95629000  0.06497000  0.55712000  1.0
