# generated using pymatgen
data_CdHC2SN3
_symmetry_space_group_name_H-M   'P 1'
_cell_length_a   7.31920569
_cell_length_b   7.31920569
_cell_length_c   11.27300000
_cell_angle_alpha   87.92982576
_cell_angle_beta   87.92982576
_cell_angle_gamma   88.47220308
_symmetry_Int_Tables_number   1
_chemical_formula_structural   CdHC2SN3
_chemical_formula_sum   'Cd4 H4 C8 S4 N12'
_cell_volume   602.92084171
_cell_formula_units_Z   4
loop_
 _symmetry_equiv_pos_site_id
 _symmetry_equiv_pos_as_xyz
  1  'x, y, z'
loop_
 _atom_site_type_symbol
 _atom_site_label
 _atom_site_symmetry_multiplicity
 _atom_site_fract_x
 _atom_site_fract_y
 _atom_site_fract_z
 _atom_site_occupancy
  C  C1  1  0.34510000  0.32250000  0.36760000  1.0
  C  C2  1  0.13420000  0.36760000  0.24440000  1.0
  C  C5  1  0.67750000  0.65490000  0.13240000  1.0
  C  C6  1  0.63240000  0.86580000  0.25560000  1.0
  C  C9  1  0.65490000  0.67750000  0.63240000  1.0
  C  C10  1  0.86580000  0.63240000  0.75560000  1.0
  C  C13  1  0.32250000  0.34510000  0.86760000  1.0
  C  C14  1  0.36760000  0.13420000  0.74440000  1.0
  Cd  Cd1  1  0.77031000  0.49789000  0.39340000  1.0
  Cd  Cd3  1  0.50211000  0.22969000  0.10660000  1.0
  Cd  Cd5  1  0.22969000  0.50211000  0.60660000  1.0
  Cd  Cd7  1  0.49789000  0.77031000  0.89340000  1.0
  H  H1  1  0.07100000  0.37420000  0.17420000  1.0
  H  H3  1  0.62580000  0.92900000  0.32580000  1.0
  H  H5  1  0.92900000  0.62580000  0.82580000  1.0
  H  H7  1  0.37420000  0.07100000  0.67420000  1.0
  N  N1  1  0.19750000  0.38430000  0.42880000  1.0
  N  N2  1  0.06070000  0.41250000  0.34810000  1.0
  N  N3  1  0.31020000  0.31120000  0.25070000  1.0
  N  N7  1  0.61570000  0.80250000  0.07120000  1.0
  N  N8  1  0.58750000  0.93930000  0.15190000  1.0
  N  N9  1  0.68880000  0.68980000  0.24930000  1.0
  N  N13  1  0.80250000  0.61570000  0.57120000  1.0
  N  N14  1  0.93930000  0.58750000  0.65190000  1.0
  N  N15  1  0.68980000  0.68880000  0.74930000  1.0
  N  N19  1  0.38430000  0.19750000  0.92880000  1.0
  N  N20  1  0.41250000  0.06070000  0.84810000  1.0
  N  N21  1  0.31120000  0.31020000  0.75070000  1.0
  S  S1  1  0.54540000  0.25138000  0.43584000  1.0
  S  S3  1  0.74862000  0.45460000  0.06416000  1.0
  S  S5  1  0.45460000  0.74862000  0.56416000  1.0
  S  S7  1  0.25138000  0.54540000  0.93584000  1.0
