# generated using pymatgen
data_CuH8C12(NO2)2
_symmetry_space_group_name_H-M   'P 1'
_cell_length_a   11.52871000
_cell_length_b   12.26339000
_cell_length_c   12.46095951
_cell_angle_alpha   89.95913792
_cell_angle_beta   63.69206408
_cell_angle_gamma   89.92337000
_symmetry_Int_Tables_number   1
_chemical_formula_structural   CuH8C12(NO2)2
_chemical_formula_sum   'Cu4 H32 C48 N8 O16'
_cell_volume   1579.26980813
_cell_formula_units_Z   4
loop_
 _symmetry_equiv_pos_site_id
 _symmetry_equiv_pos_as_xyz
  1  'x, y, z'
loop_
 _atom_site_type_symbol
 _atom_site_label
 _atom_site_symmetry_multiplicity
 _atom_site_fract_x
 _atom_site_fract_y
 _atom_site_fract_z
 _atom_site_occupancy
  Cu  Cu0  1  0.71166000  0.96793000  0.46624000  1
  Cu  Cu1  1  0.28822000  0.46690000  0.03234000  1
  Cu  Cu2  1  0.28834000  0.03207000  0.53376000  1
  Cu  Cu3  1  0.71179000  0.53310000  0.96765000  1
  H  H4  1  0.95064000  0.76404000  0.14581000  1
  H  H5  1  0.09133000  0.61173000  0.02520000  1
  H  H6  1  0.26831000  0.58515000  0.25043000  1
  H  H7  1  0.13470000  0.74066000  0.37954000  1
  H  H8  1  0.05011000  0.26382000  0.35231000  1
  H  H9  1  0.90796000  0.11289000  0.47506000  1
  H  H10  1  0.72956000  0.08657000  0.25114000  1
  H  H11  1  0.86460000  0.24012000  0.11972000  1
  H  H12  1  0.27786000  0.20073000  0.73080000  1
  H  H13  1  0.20471000  0.35293000  0.88237000  1
  H  H14  1  0.62004000  0.17272000  0.78691000  1
  H  H15  1  0.52967000  0.32261000  0.94059000  1
  H  H16  1  0.72182000  0.70206000  0.76975000  1
  H  H17  1  0.79655000  0.85220000  0.61558000  1
  H  H18  1  0.38062000  0.67347000  0.71240000  1
  H  H19  1  0.47208000  0.82130000  0.55683000  1
  H  H20  1  0.72214000  0.79926000  0.26920000  1
  H  H21  1  0.79529000  0.64706000  0.11763000  1
  H  H22  1  0.37996000  0.82728000  0.21309000  1
  H  H23  1  0.47033000  0.67739000  0.05941000  1
  H  H24  1  0.27818000  0.29794000  0.23025000  1
  H  H25  1  0.20345000  0.14780000  0.38442000  1
  H  H26  1  0.61938000  0.32653000  0.28760000  1
  H  H27  1  0.52792000  0.17870000  0.44317000  1
  H  H28  1  0.04936000  0.23595000  0.85419000  1
  H  H29  1  0.90867000  0.38827000  0.97480000  1
  H  H30  1  0.73169000  0.41484000  0.74957000  1
  H  H31  1  0.86530000  0.25934000  0.62046000  1
  H  H32  1  0.94989000  0.73618000  0.64769000  1
  H  H33  1  0.09204000  0.88711000  0.52494000  1
  H  H34  1  0.27044000  0.91343000  0.74886000  1
  H  H35  1  0.13540000  0.75988000  0.88028000  1
  C  C36  1  0.94051000  0.84926000  0.35598000  1
  C  C37  1  0.02029000  0.72720000  0.17166000  1
  C  C38  1  0.09963000  0.64294000  0.10332000  1
  C  C39  1  0.03033000  0.76335000  0.27373000  1
  C  C40  1  0.19742000  0.62853000  0.23102000  1
  C  C41  1  0.12264000  0.71356000  0.30202000  1
  C  C42  1  0.06052000  0.34738000  0.14197000  1
  C  C43  1  0.97982000  0.22710000  0.32734000  1
  C  C44  1  0.89985000  0.14375000  0.39669000  1
  C  C45  1  0.96985000  0.26256000  0.22495000  1
  C  C46  1  0.80133000  0.12947000  0.26950000  1
  C  C47  1  0.87676000  0.21351000  0.19741000  1
  C  C48  1  0.50347000  0.08729000  0.65274000  1
  C  C49  1  0.45524000  0.17529000  0.74744000  1
  C  C50  1  0.33675000  0.22607000  0.77476000  1
  C  C51  1  0.29539000  0.30981000  0.85846000  1
  C  C52  1  0.52683000  0.20977000  0.80726000  1
  C  C53  1  0.47760000  0.29251000  0.89222000  1
  C  C54  1  0.49702000  0.58798000  0.84734000  1
  C  C55  1  0.54479000  0.67636000  0.75280000  1
  C  C56  1  0.66342000  0.72689000  0.72504000  1
  C  C57  1  0.70556000  0.80960000  0.64001000  1
  C  C58  1  0.47388000  0.71021000  0.69202000  1
  C  C59  1  0.52375000  0.79203000  0.60596000  1
  C  C60  1  0.49653000  0.91271000  0.34726000  1
  C  C61  1  0.54476000  0.82471000  0.25256000  1
  C  C62  1  0.66325000  0.77393000  0.22524000  1
  C  C63  1  0.70462000  0.69019000  0.14153000  1
  C  C64  1  0.47317000  0.79022000  0.19274000  1
  C  C65  1  0.52240000  0.70749000  0.10778000  1
  C  C66  1  0.50298000  0.41201000  0.15266000  1
  C  C67  1  0.45521000  0.32364000  0.24720000  1
  C  C68  1  0.33659000  0.27310000  0.27495000  1
  C  C69  1  0.29444000  0.19040000  0.35999000  1
  C  C70  1  0.52612000  0.28978000  0.30798000  1
  C  C71  1  0.47625000  0.20797000  0.39404000  1
  C  C72  1  0.05949000  0.15074000  0.64402000  1
  C  C73  1  0.97971000  0.27280000  0.82834000  1
  C  C74  1  0.90037000  0.35705000  0.89668000  1
  C  C75  1  0.96968000  0.23665000  0.72626000  1
  C  C76  1  0.80258000  0.37147000  0.76898000  1
  C  C77  1  0.87736000  0.28643000  0.69798000  1
  C  C78  1  0.93948000  0.65262000  0.85803000  1
  C  C79  1  0.02019000  0.77289000  0.67265000  1
  C  C80  1  0.10015000  0.85625000  0.60331000  1
  C  C81  1  0.03015000  0.73744000  0.77505000  1
  C  C82  1  0.19867000  0.87053000  0.73050000  1
  C  C83  1  0.12324000  0.78649000  0.80259000  1
  N  N84  1  0.18626000  0.59410000  0.13322000  1
  N  N85  1  0.81278000  0.09540000  0.36725000  1
  N  N86  1  0.36381000  0.34185000  0.91723000  1
  N  N87  1  0.63750000  0.84135000  0.58064000  1
  N  N88  1  0.63619000  0.65815000  0.08277000  1
  N  N89  1  0.36250000  0.15865000  0.41936000  1
  N  N90  1  0.81374000  0.40590000  0.86678000  1
  N  N91  1  0.18722000  0.90460000  0.63275000  1
  O  O92  1  0.83853000  0.86773000  0.34007000  1
  O  O93  1  0.96617000  0.89296000  0.43349000  1
  O  O94  1  0.16276000  0.36520000  0.15745000  1
  O  O95  1  0.03505000  0.39120000  0.06431000  1
  O  O96  1  0.42251000  0.03657000  0.62975000  1
  O  O97  1  0.62692000  0.07359000  0.60246000  1
  O  O98  1  0.57833000  0.53878000  0.87128000  1
  O  O99  1  0.37394000  0.57211000  0.89601000  1
  O  O100  1  0.57749000  0.96343000  0.37025000  1
  O  O101  1  0.37309000  0.92641000  0.39753000  1
  O  O102  1  0.42167000  0.46122000  0.12872000  1
  O  O103  1  0.62606000  0.42789000  0.10399000  1
  O  O104  1  0.16147000  0.13227000  0.65993000  1
  O  O105  1  0.03383000  0.10704000  0.56651000  1
  O  O106  1  0.83725000  0.63479000  0.84254000  1
  O  O107  1  0.96496000  0.60879000  0.93568000  1
