# generated using pymatgen
data_AgH24(C6N)4
_symmetry_space_group_name_H-M   'P 1'
_cell_length_a   6.18899000
_cell_length_b   13.48248000
_cell_length_c   15.50320000
_cell_angle_alpha   90.00000000
_cell_angle_beta   90.00000000
_cell_angle_gamma   89.99865000
_symmetry_Int_Tables_number   1
_chemical_formula_structural   AgH24(C6N)4
_chemical_formula_sum   'Ag2 H48 C48 N8'
_cell_volume   1293.63249240
_cell_formula_units_Z   2
loop_
 _symmetry_equiv_pos_site_id
 _symmetry_equiv_pos_as_xyz
  1  'x, y, z'
loop_
 _atom_site_type_symbol
 _atom_site_label
 _atom_site_symmetry_multiplicity
 _atom_site_fract_x
 _atom_site_fract_y
 _atom_site_fract_z
 _atom_site_occupancy
  Ag  Ag0  1  0.75000000  0.75000000  0.25003000  1
  Ag  Ag1  1  0.25000000  0.25000000  0.74997000  1
  H  H2  1  0.53387000  0.53282000  0.25000000  1
  H  H3  1  0.27978000  0.42939000  0.33692000  1
  H  H4  1  0.30186000  0.65592000  0.53300000  1
  H  H5  1  0.54788000  0.75192000  0.43749000  1
  H  H6  1  0.10267000  0.39897000  0.47743000  1
  H  H7  1  0.17712000  0.47297000  0.56585000  1
  H  H8  1  0.96613000  0.96718000  0.25000000  1
  H  H9  1  0.22022000  0.07061000  0.33692000  1
  H  H10  1  0.19814000  0.84407000  0.53300000  1
  H  H11  1  0.95212000  0.74807000  0.43749000  1
  H  H12  1  0.39732000  0.10103000  0.47743000  1
  H  H13  1  0.32288000  0.02703000  0.56585000  1
  H  H14  1  0.96603000  0.53281000  0.25000000  1
  H  H15  1  0.22013000  0.42939000  0.16309000  1
  H  H16  1  0.19807000  0.65593000  0.96702000  1
  H  H17  1  0.95204000  0.75192000  0.06252000  1
  H  H18  1  0.39731000  0.39897000  0.02258000  1
  H  H19  1  0.32286000  0.47297000  0.93416000  1
  H  H20  1  0.53397000  0.96719000  0.24999000  1
  H  H21  1  0.27987000  0.07061000  0.16308000  1
  H  H22  1  0.30193000  0.84406000  0.96702000  1
  H  H23  1  0.54796000  0.74808000  0.06251000  1
  H  H24  1  0.10269000  0.10103000  0.02258000  1
  H  H25  1  0.17713000  0.02703000  0.93416000  1
  H  H26  1  0.46613000  0.46718000  0.75000000  1
  H  H27  1  0.72022000  0.57061000  0.66308000  1
  H  H28  1  0.69813000  0.34408000  0.46700000  1
  H  H29  1  0.45212000  0.24808000  0.56251000  1
  H  H30  1  0.89732000  0.60103000  0.52257000  1
  H  H31  1  0.82288000  0.52703000  0.43415000  1
  H  H32  1  0.03387000  0.03282000  0.75000000  1
  H  H33  1  0.77977000  0.92939000  0.66308000  1
  H  H34  1  0.80186000  0.15593000  0.46700000  1
  H  H35  1  0.04787000  0.25193000  0.56251000  1
  H  H36  1  0.60267000  0.89897000  0.52257000  1
  H  H37  1  0.67712000  0.97296000  0.43415000  1
  H  H38  1  0.03397000  0.46719000  0.75000000  1
  H  H39  1  0.77986000  0.57061000  0.83691000  1
  H  H40  1  0.80192000  0.34407000  0.03299000  1
  H  H41  1  0.04796000  0.24808000  0.93748000  1
  H  H42  1  0.60269000  0.60103000  0.97742000  1
  H  H43  1  0.67713000  0.52703000  0.06585000  1
  H  H44  1  0.46602000  0.03281000  0.75001000  1
  H  H45  1  0.72013000  0.92939000  0.83692000  1
  H  H46  1  0.69807000  0.15593000  0.03299000  1
  H  H47  1  0.45203000  0.25192000  0.93749000  1
  H  H48  1  0.89731000  0.89897000  0.97743000  1
  H  H49  1  0.82287000  0.97297000  0.06585000  1
  C  C50  1  0.47833000  0.55725000  0.31323000  1
  C  C51  1  0.33629000  0.50024000  0.36204000  1
  C  C52  1  0.26853000  0.53301000  0.44354000  1
  C  C53  1  0.34797000  0.62610000  0.47048000  1
  C  C54  1  0.48764000  0.67929000  0.41808000  1
  C  C55  1  0.11471000  0.47634000  0.49943000  1
  C  C56  1  0.02167000  0.94275000  0.31324000  1
  C  C57  1  0.16370000  0.99976000  0.36204000  1
  C  C58  1  0.23146000  0.96699000  0.44354000  1
  C  C59  1  0.15202000  0.87389000  0.47048000  1
  C  C60  1  0.01237000  0.82072000  0.41808000  1
  C  C61  1  0.38529000  0.02366000  0.49943000  1
  C  C62  1  0.02163000  0.55725000  0.18677000  1
  C  C63  1  0.16368000  0.50025000  0.13797000  1
  C  C64  1  0.23146000  0.53302000  0.05647000  1
  C  C65  1  0.15200000  0.62612000  0.02954000  1
  C  C66  1  0.01232000  0.67929000  0.08194000  1
  C  C67  1  0.38528000  0.47635000  0.00058000  1
  C  C68  1  0.47838000  0.94275000  0.18677000  1
  C  C69  1  0.33632000  0.99975000  0.13797000  1
  C  C70  1  0.26854000  0.96697000  0.05647000  1
  C  C71  1  0.34799000  0.87388000  0.02954000  1
  C  C72  1  0.48769000  0.82070000  0.08194000  1
  C  C73  1  0.11472000  0.02365000  0.00058000  1
  C  C74  1  0.52166000  0.44275000  0.68677000  1
  C  C75  1  0.66370000  0.49976000  0.63796000  1
  C  C76  1  0.73146000  0.46699000  0.55646000  1
  C  C77  1  0.65203000  0.37390000  0.52952000  1
  C  C78  1  0.51236000  0.32071000  0.58192000  1
  C  C79  1  0.88529000  0.52366000  0.50057000  1
  C  C80  1  0.97833000  0.05725000  0.68677000  1
  C  C81  1  0.83630000  0.00024000  0.63796000  1
  C  C82  1  0.76853000  0.03301000  0.55646000  1
  C  C83  1  0.84797000  0.12611000  0.52952000  1
  C  C84  1  0.98763000  0.17928000  0.58192000  1
  C  C85  1  0.61471000  0.97634000  0.50057000  1
  C  C86  1  0.97837000  0.44275000  0.81323000  1
  C  C87  1  0.83632000  0.49974000  0.86203000  1
  C  C88  1  0.76854000  0.46698000  0.94353000  1
  C  C89  1  0.84800000  0.37388000  0.97046000  1
  C  C90  1  0.98768000  0.32070000  0.91806000  1
  C  C91  1  0.61472000  0.52365000  0.99942000  1
  C  C92  1  0.52162000  0.05725000  0.81323000  1
  C  C93  1  0.66368000  0.00025000  0.86203000  1
  C  C94  1  0.73146000  0.03302000  0.94353000  1
  C  C95  1  0.65200000  0.12611000  0.97047000  1
  C  C96  1  0.51231000  0.17930000  0.91806000  1
  C  C97  1  0.88528000  0.97635000  0.99942000  1
  N  N98  1  0.55772000  0.64592000  0.34057000  1
  N  N99  1  0.94227000  0.85408000  0.34057000  1
  N  N100  1  0.94225000  0.64593000  0.15946000  1
  N  N101  1  0.55775000  0.85407000  0.15946000  1
  N  N102  1  0.44227000  0.35408000  0.65943000  1
  N  N103  1  0.05772000  0.14592000  0.65943000  1
  N  N104  1  0.05774000  0.35407000  0.84054000  1
  N  N105  1  0.44225000  0.14593000  0.84054000  1
