# generated using pymatgen
data_Zn2H29C36N9(O4F)2
_symmetry_space_group_name_H-M   'P 1'
_cell_length_a   10.03943000
_cell_length_b   10.63495000
_cell_length_c   10.86326000
_cell_angle_alpha   89.67179000
_cell_angle_beta   91.24696000
_cell_angle_gamma   89.79809000
_symmetry_Int_Tables_number   1
_chemical_formula_structural   Zn2H29C36N9(O4F)2
_chemical_formula_sum   'Zn2 H29 C36 N9 O8 F2'
_cell_volume   1159.55620482
_cell_formula_units_Z   1
loop_
 _symmetry_equiv_pos_site_id
 _symmetry_equiv_pos_as_xyz
  1  'x, y, z'
loop_
 _atom_site_type_symbol
 _atom_site_label
 _atom_site_symmetry_multiplicity
 _atom_site_fract_x
 _atom_site_fract_y
 _atom_site_fract_z
 _atom_site_occupancy
  Zn  Zn0  1  0.65313000  0.49998000  0.50001000  1
  Zn  Zn1  1  0.34687000  0.50002000  0.49999000  1
  H  H2  1  0.11142000  0.60977000  0.80197000  1
  H  H3  1  0.93983000  0.77218000  0.83906000  1
  H  H4  1  0.71441000  0.70958000  0.90133000  1
  H  H5  1  0.32802000  0.88668000  0.37172000  1
  H  H6  1  0.32518000  0.11674000  0.37694000  1
  H  H7  1  0.74187000  0.10610000  0.70778000  1
  H  H8  1  0.56165000  0.10680000  0.74803000  1
  H  H9  1  0.74328000  0.88366000  0.70280000  1
  H  H10  1  0.56335000  0.88143000  0.74503000  1
  H  H11  1  0.12986000  0.14368000  0.20172000  1
  H  H12  1  0.87506000  0.79762000  0.43611000  1
  H  H13  1  0.88340000  0.73904000  0.59902000  1
  H  H14  1  0.11434000  0.79952000  0.43041000  1
  H  H15  1  0.28856000  0.48196000  0.87880000  1
  H  H16  1  0.05581000  0.38458000  0.82068000  1
  H  H17  1  0.94551000  0.19481000  0.32870000  1
  H  H18  1  0.86126000  0.33003000  0.31652000  1
  H  H19  1  0.12491000  0.26182000  0.66109000  1
  H  H20  1  0.11491000  0.21100000  0.51325000  1
  H  H21  1  0.89960000  0.26393000  0.66624000  1
  H  H22  1  0.87792000  0.21342000  0.52186000  1
  H  H23  1  0.31522000  0.14452000  0.03472000  1
  H  H24  1  0.39070000  0.16557000  0.17369000  1
  H  H25  1  0.15847000  0.68130000  0.19979000  1
  H  H26  1  0.08403000  0.66839000  0.05881000  1
  H  H27  1  0.88322000  0.55173000  0.10598000  1
  H  H28  1  0.94277000  0.61577000  0.23241000  1
  H  H29  1  0.78316000  0.33853000  0.07260000  1
  H  H30  1  0.66224000  0.28968000  0.16074000  1
  C  C31  1  0.49990000  0.73907000  0.49919000  1
  C  C32  1  0.02794000  0.32162000  0.21368000  1
  C  C33  1  0.38140000  0.48558000  0.93112000  1
  C  C34  1  0.50381000  0.49383000  0.87293000  1
  C  C35  1  0.62336000  0.47567000  0.94176000  1
  C  C36  1  0.61369000  0.44724000  0.06709000  1
  C  C37  1  0.49573000  0.47410000  0.12673000  1
  C  C38  1  0.37703000  0.47459000  0.05736000  1
  C  C39  1  0.85110000  0.41831000  0.86521000  1
  C  C40  1  0.98006000  0.45485000  0.83541000  1
  C  C41  1  0.01163000  0.58206000  0.82513000  1
  C  C42  1  0.49841000  0.49060000  0.26038000  1
  C  C43  1  0.91500000  0.67353000  0.84665000  1
  C  C44  1  0.78738000  0.63776000  0.88112000  1
  C  C45  1  0.75530000  0.50981000  0.89313000  1
  C  C46  1  0.60350000  0.93445000  0.55504000  1
  C  C47  1  0.50124000  0.87117000  0.49378000  1
  C  C48  1  0.40414000  0.93601000  0.42430000  1
  C  C49  1  0.40322000  0.06582000  0.42650000  1
  C  C50  1  0.50092000  0.12857000  0.49619000  1
  C  C51  1  0.60351000  0.06314000  0.55633000  1
  C  C52  1  0.64133000  0.06656000  0.69037000  1
  C  C53  1  0.50009000  0.26081000  0.50077000  1
  C  C54  1  0.64223000  0.92451000  0.68828000  1
  C  C55  1  0.06885000  0.60102000  0.45743000  1
  C  C56  1  0.07316000  0.39591000  0.53420000  1
  C  C57  1  0.92955000  0.39681000  0.53658000  1
  C  C58  1  0.92856000  0.60148000  0.45970000  1
  C  C59  1  0.92300000  0.73310000  0.50478000  1
  C  C60  1  0.07454000  0.73402000  0.50045000  1
  C  C61  1  0.50157000  0.50132000  0.73982000  1
  C  C62  1  0.13491000  0.24392000  0.18400000  1
  C  C63  1  0.24748000  0.29357000  0.12993000  1
  C  C64  1  0.25524000  0.42362000  0.10852000  1
  C  C65  1  0.14885000  0.50323000  0.13487000  1
  C  C66  1  0.03204000  0.45189000  0.18390000  1
  N  N67  1  0.14280000  0.50086000  0.49916000  1
  N  N68  1  0.85715000  0.50082000  0.49916000  1
  N  N69  1  0.91337000  0.26389000  0.26602000  1
  N  N70  1  0.14529000  0.28500000  0.57003000  1
  N  N71  1  0.86026000  0.28886000  0.58015000  1
  N  N72  1  0.35408000  0.21203000  0.09502000  1
  N  N73  1  0.16280000  0.63607000  0.11479000  1
  N  N74  1  0.91599000  0.52942000  0.19495000  1
  N  N75  1  0.71057000  0.37099000  0.13080000  1
  O  O76  1  0.61469000  0.68321000  0.50002000  1
  O  O77  1  0.38535000  0.68324000  0.50000000  1
  O  O78  1  0.61467000  0.49997000  0.31677000  1
  O  O79  1  0.38533000  0.50001000  0.31675000  1
  O  O80  1  0.61465000  0.31676000  0.50000000  1
  O  O81  1  0.38531000  0.31679000  0.49998000  1
  O  O82  1  0.61467000  0.49999000  0.68325000  1
  O  O83  1  0.38533000  0.50003000  0.68323000  1
  F  F84  1  0.13435000  0.74546000  0.61565000  1
  F  F85  1  0.82044000  0.29417000  0.86948000  1
