# generated using pymatgen
data_CoH8C12(NO2)2
_symmetry_space_group_name_H-M   'P 1'
_cell_length_a   5.38804000
_cell_length_b   10.64999000
_cell_length_c   12.90265000
_cell_angle_alpha   89.99719000
_cell_angle_beta   89.98195000
_cell_angle_gamma   91.11469000
_symmetry_Int_Tables_number   1
_chemical_formula_structural   CoH8C12(NO2)2
_chemical_formula_sum   'Co2 H16 C24 N4 O8'
_cell_volume   740.24709338
_cell_formula_units_Z   2
loop_
 _symmetry_equiv_pos_site_id
 _symmetry_equiv_pos_as_xyz
  1  'x, y, z'
loop_
 _atom_site_type_symbol
 _atom_site_label
 _atom_site_symmetry_multiplicity
 _atom_site_fract_x
 _atom_site_fract_y
 _atom_site_fract_z
 _atom_site_occupancy
  Co  Co0  1  0.83691000  0.73706000  0.25378000  1
  Co  Co1  1  0.33812000  0.23717000  0.74598000  1
  H  H2  1  0.20654000  0.88456000  0.50089000  1
  H  H3  1  0.81021000  0.09045000  0.98271000  1
  H  H4  1  0.85715000  0.12373000  0.49074000  1
  H  H5  1  0.38868000  0.76057000  0.35561000  1
  H  H6  1  0.66666667  0.97878000  0.14481000  1
  H  H7  1  0.27547000  0.74596000  0.13530000  1
  H  H8  1  0.01278000  0.99416000  0.34101000  1
  H  H9  1  0.45861000  0.86111000  0.98392000  1
  H  H10  1  0.70746000  0.38386000  0.49948000  1
  H  H11  1  0.30970000  0.58972000  0.01718000  1
  H  H12  1  0.35800000  0.62322000  0.50947000  1
  H  H13  1  0.88884000  0.26027000  0.64434000  1
  H  H14  1  0.16703000  0.47866000  0.85496000  1
  H  H15  1  0.77550000  0.24576000  0.86443000  1
  H  H16  1  0.51316000  0.49376000  0.65900000  1
  H  H17  1  0.95835000  0.36033000  0.01586000  1
  C  C18  1  0.15204000  0.99200000  0.97579000  1
  C  C19  1  0.37956000  0.91420000  0.46529000  1
  C  C20  1  0.92276000  0.01944000  0.01881000  1
  C  C21  1  0.74635000  0.04736000  0.45923000  1
  C  C22  1  0.41171000  0.09600000  0.58889000  1
  C  C23  1  0.48227000  0.84337000  0.38636000  1
  C  C24  1  0.51274000  0.01978000  0.50181000  1
  C  C25  1  0.83674000  0.95403000  0.10575000  1
  C  C26  1  0.18398000  0.82610000  0.10111000  1
  C  C27  1  0.83637000  0.97406000  0.37841000  1
  C  C28  1  0.28527000  0.89075000  0.01716000  1
  C  C29  1  0.25162000  0.06996000  0.88667000  1
  C  C30  1  0.65197000  0.49177000  0.02400000  1
  C  C31  1  0.88000000  0.41423000  0.53488000  1
  C  C32  1  0.42264000  0.51912000  0.98099000  1
  C  C33  1  0.24642000  0.54716000  0.54106000  1
  C  C34  1  0.91029000  0.59629000  0.41130000  1
  C  C35  1  0.98243000  0.34328000  0.61381000  1
  C  C36  1  0.01322000  0.51984000  0.49835000  1
  C  C37  1  0.33715000  0.45374000  0.89386000  1
  C  C38  1  0.68424000  0.32598000  0.89856000  1
  C  C39  1  0.33641000  0.47371000  0.62178000  1
  C  C40  1  0.78513000  0.39061000  0.98267000  1
  C  C41  1  0.75085000  0.57044000  0.11271000  1
  N  N42  1  0.96591000  0.85583000  0.14449000  1
  N  N43  1  0.70366000  0.87221000  0.34396000  1
  N  N44  1  0.46591000  0.35541000  0.85533000  1
  N  N45  1  0.20416000  0.37160000  0.65599000  1
  O  O46  1  0.10087000  0.14833000  0.84541000  1
  O  O47  1  0.46814000  0.05757000  0.85378000  1
  O  O48  1  0.56351000  0.17027000  0.63693000  1
  O  O49  1  0.18920000  0.08408000  0.61496000  1
  O  O50  1  0.59988000  0.64829000  0.15471000  1
  O  O51  1  0.96811000  0.55955000  0.14516000  1
  O  O52  1  0.06262000  0.67088000  0.36326000  1
  O  O53  1  0.68954000  0.58418000  0.38523000  1
