# generated using pymatgen
data_Zn2H8C17O10
_symmetry_space_group_name_H-M   'P 1'
_cell_length_a   11.25620000
_cell_length_b   13.17440000
_cell_length_c   20.39650000
_cell_angle_alpha   90.00000000
_cell_angle_beta   90.00000000
_cell_angle_gamma   90.00000000
_symmetry_Int_Tables_number   1
_chemical_formula_structural   Zn2H8C17O10
_chemical_formula_sum   'Zn8 H32 C68 O40'
_cell_volume   3024.67207023
_cell_formula_units_Z   4
loop_
 _symmetry_equiv_pos_site_id
 _symmetry_equiv_pos_as_xyz
  1  'x, y, z'
loop_
 _atom_site_type_symbol
 _atom_site_label
 _atom_site_symmetry_multiplicity
 _atom_site_fract_x
 _atom_site_fract_y
 _atom_site_fract_z
 _atom_site_occupancy
  Zn  Zn1  1  0.67718000  0.97847000  0.46775000  1.0
  Zn  Zn2  1  0.88960000  0.07205000  0.35934000  1.0
  Zn  Zn3  1  0.82282000  0.02153000  0.96775000  1.0
  Zn  Zn4  1  0.61040000  0.92795000  0.85934000  1.0
  Zn  Zn5  1  0.32282000  0.47847000  0.03225000  1.0
  Zn  Zn6  1  0.11040000  0.57205000  0.14066000  1.0
  Zn  Zn7  1  0.17718000  0.52153000  0.53225000  1.0
  Zn  Zn8  1  0.38960000  0.42795000  0.64066000  1.0
  H  H1  1  0.62930000  0.29430000  0.28990000  1.0
  H  H2  1  0.54830000  0.27440000  0.48330000  1.0
  H  H3  1  0.40140000  0.49770000  0.37100000  1.0
  H  H4  1  0.35990000  0.52280000  0.25930000  1.0
  H  H5  1  0.44890000  0.55480000  0.20180000  1.0
  H  H6  1  0.66760000  0.54960000  0.21490000  1.0
  H  H7  1  0.89610000  0.77880000  0.25910000  1.0
  H  H8  1  0.56210000  0.77820000  0.33580000  1.0
  H  H9  1  0.87070000  0.70570000  0.78990000  1.0
  H  H10  1  0.95170000  0.72560000  0.98330000  1.0
  H  H11  1  0.09860000  0.50230000  0.87100000  1.0
  H  H12  1  0.14010000  0.47720000  0.75930000  1.0
  H  H13  1  0.05110000  0.44520000  0.70180000  1.0
  H  H14  1  0.83240000  0.45040000  0.71490000  1.0
  H  H15  1  0.60390000  0.22120000  0.75910000  1.0
  H  H16  1  0.93790000  0.22180000  0.83580000  1.0
  H  H17  1  0.37070000  0.79430000  0.21010000  1.0
  H  H18  1  0.45170000  0.77440000  0.01670000  1.0
  H  H19  1  0.59860000  0.99770000  0.12900000  1.0
  H  H20  1  0.64010000  0.02280000  0.24070000  1.0
  H  H21  1  0.55110000  0.05480000  0.29820000  1.0
  H  H22  1  0.33240000  0.04960000  0.28510000  1.0
  H  H23  1  0.10390000  0.27880000  0.24090000  1.0
  H  H24  1  0.43790000  0.27820000  0.16420000  1.0
  H  H25  1  0.12930000  0.20570000  0.71010000  1.0
  H  H26  1  0.04830000  0.22560000  0.51670000  1.0
  H  H27  1  0.90140000  0.00230000  0.62900000  1.0
  H  H28  1  0.85990000  0.97720000  0.74070000  1.0
  H  H29  1  0.94890000  0.94520000  0.79820000  1.0
  H  H30  1  0.16760000  0.95040000  0.78510000  1.0
  H  H31  1  0.39610000  0.72120000  0.74090000  1.0
  H  H32  1  0.06210000  0.72180000  0.66420000  1.0
  C  C1  1  0.51420000  0.40370000  0.32156000  1.0
  C  C2  1  0.58770000  0.31900000  0.32711000  1.0
  C  C3  1  0.59980000  0.27050000  0.38745000  1.0
  C  C4  1  0.54030000  0.30760000  0.44224000  1.0
  C  C5  1  0.46920000  0.39350000  0.43669000  1.0
  C  C6  1  0.45320000  0.44110000  0.37533000  1.0
  C  C7  1  0.67980000  0.17940000  0.39395000  1.0
  C  C8  1  0.41210000  0.43650000  0.49710000  1.0
  C  C9  1  0.44430000  0.53600000  0.24873000  1.0
  C  C10  1  0.59750000  0.65700000  0.27581000  1.0
  C  C11  1  0.68420000  0.61110000  0.23747000  1.0
  C  C12  1  0.79630000  0.65650000  0.23242000  1.0
  C  C13  1  0.82050000  0.74760000  0.26396000  1.0
  C  C14  1  0.73340000  0.79320000  0.30279000  1.0
  C  C15  1  0.62140000  0.74770000  0.30909000  1.0
  C  C16  1  0.89250000  0.60220000  0.19389000  1.0
  C  C17  1  0.75750000  0.88900000  0.33972000  1.0
  C  C18  1  0.98580000  0.59630000  0.82156000  1.0
  C  C19  1  0.91230000  0.68100000  0.82711000  1.0
  C  C20  1  0.90020000  0.72950000  0.88745000  1.0
  C  C21  1  0.95970000  0.69240000  0.94224000  1.0
  C  C22  1  0.03080000  0.60650000  0.93669000  1.0
  C  C23  1  0.04680000  0.55890000  0.87533000  1.0
  C  C24  1  0.82020000  0.82060000  0.89395000  1.0
  C  C25  1  0.08790000  0.56350000  0.99710000  1.0
  C  C26  1  0.05570000  0.46400000  0.74873000  1.0
  C  C27  1  0.90250000  0.34300000  0.77581000  1.0
  C  C28  1  0.81580000  0.38890000  0.73747000  1.0
  C  C29  1  0.70370000  0.34350000  0.73242000  1.0
  C  C30  1  0.67950000  0.25240000  0.76396000  1.0
  C  C31  1  0.76660000  0.20680000  0.80279000  1.0
  C  C32  1  0.87860000  0.25230000  0.80909000  1.0
  C  C33  1  0.60750000  0.39780000  0.69389000  1.0
  C  C34  1  0.74250000  0.11100000  0.83972000  1.0
  C  C35  1  0.48580000  0.90370000  0.17844000  1.0
  C  C36  1  0.41230000  0.81900000  0.17289000  1.0
  C  C37  1  0.40020000  0.77050000  0.11255000  1.0
  C  C38  1  0.45970000  0.80760000  0.05776000  1.0
  C  C39  1  0.53080000  0.89350000  0.06331000  1.0
  C  C40  1  0.54680000  0.94110000  0.12467000  1.0
  C  C41  1  0.32020000  0.67940000  0.10605000  1.0
  C  C42  1  0.58790000  0.93650000  0.00290000  1.0
  C  C43  1  0.55570000  0.03600000  0.25127000  1.0
  C  C44  1  0.40250000  0.15700000  0.22419000  1.0
  C  C45  1  0.31580000  0.11110000  0.26253000  1.0
  C  C46  1  0.20370000  0.15650000  0.26758000  1.0
  C  C47  1  0.17950000  0.24760000  0.23604000  1.0
  C  C48  1  0.26660000  0.29320000  0.19721000  1.0
  C  C49  1  0.37860000  0.24770000  0.19091000  1.0
  C  C50  1  0.10750000  0.10220000  0.30611000  1.0
  C  C51  1  0.24250000  0.38900000  0.16028000  1.0
  C  C52  1  0.01420000  0.09630000  0.67844000  1.0
  C  C53  1  0.08770000  0.18100000  0.67289000  1.0
  C  C54  1  0.09980000  0.22950000  0.61255000  1.0
  C  C55  1  0.04030000  0.19240000  0.55776000  1.0
  C  C56  1  0.96920000  0.10650000  0.56331000  1.0
  C  C57  1  0.95320000  0.05890000  0.62467000  1.0
  C  C58  1  0.17980000  0.32060000  0.60605000  1.0
  C  C59  1  0.91210000  0.06350000  0.50290000  1.0
  C  C60  1  0.94430000  0.96400000  0.75127000  1.0
  C  C61  1  0.09750000  0.84300000  0.72419000  1.0
  C  C62  1  0.18420000  0.88890000  0.76253000  1.0
  C  C63  1  0.29630000  0.84350000  0.76758000  1.0
  C  C64  1  0.32050000  0.75240000  0.73604000  1.0
  C  C65  1  0.23340000  0.70680000  0.69721000  1.0
  C  C66  1  0.12140000  0.75230000  0.69091000  1.0
  C  C67  1  0.39250000  0.89780000  0.80611000  1.0
  C  C68  1  0.25750000  0.61100000  0.66028000  1.0
  O  O1  1  0.74690000  0.15823000  0.34578000  1.0
  O  O2  1  0.67520000  0.13095000  0.44735000  1.0
  O  O3  1  0.44412000  0.39966000  0.55088000  1.0
  O  O4  1  0.33740000  0.50790000  0.48964000  1.0
  O  O5  1  0.51078000  0.44539000  0.25898000  1.0
  O  O6  1  0.48494000  0.61840000  0.28703000  1.0
  O  O7  1  0.86999000  0.52233000  0.16526000  1.0
  O  O8  1  0.99575000  0.64356000  0.19572000  1.0
  O  O9  1  0.85501000  0.93354000  0.32900000  1.0
  O  O10  1  0.67786000  0.91880000  0.37877000  1.0
  O  O11  1  0.75310000  0.84177000  0.84578000  1.0
  O  O12  1  0.82480000  0.86905000  0.94735000  1.0
  O  O13  1  0.05588000  0.60034000  0.05088000  1.0
  O  O14  1  0.16260000  0.49210000  0.98964000  1.0
  O  O15  1  0.98922000  0.55461000  0.75898000  1.0
  O  O16  1  0.01506000  0.38160000  0.78703000  1.0
  O  O17  1  0.63001000  0.47767000  0.66526000  1.0
  O  O18  1  0.50425000  0.35644000  0.69572000  1.0
  O  O19  1  0.64499000  0.06646000  0.82900000  1.0
  O  O20  1  0.82214000  0.08120000  0.87877000  1.0
  O  O21  1  0.25310000  0.65823000  0.15422000  1.0
  O  O22  1  0.32480000  0.63095000  0.05265000  1.0
  O  O23  1  0.55588000  0.89966000  0.94912000  1.0
  O  O24  1  0.66260000  0.00790000  0.01036000  1.0
  O  O25  1  0.48922000  0.94539000  0.24102000  1.0
  O  O26  1  0.51506000  0.11840000  0.21297000  1.0
  O  O27  1  0.13001000  0.02233000  0.33474000  1.0
  O  O28  1  0.00425000  0.14356000  0.30428000  1.0
  O  O29  1  0.14499000  0.43354000  0.17100000  1.0
  O  O30  1  0.32214000  0.41880000  0.12123000  1.0
  O  O31  1  0.24690000  0.34177000  0.65422000  1.0
  O  O32  1  0.17520000  0.36905000  0.55265000  1.0
  O  O33  1  0.94412000  0.10034000  0.44912000  1.0
  O  O34  1  0.83740000  0.99210000  0.51036000  1.0
  O  O35  1  0.01078000  0.05461000  0.74102000  1.0
  O  O36  1  0.98494000  0.88160000  0.71297000  1.0
  O  O37  1  0.36999000  0.97767000  0.83474000  1.0
  O  O38  1  0.49575000  0.85644000  0.80428000  1.0
  O  O39  1  0.35501000  0.56646000  0.67100000  1.0
  O  O40  1  0.17786000  0.58120000  0.62123000  1.0
