# generated using pymatgen
data_TbHC5(NO2)2
_symmetry_space_group_name_H-M   'P 1'
_cell_length_a   16.04700000
_cell_length_b   16.39950000
_cell_length_c   16.39949436
_cell_angle_alpha   76.15067596
_cell_angle_beta   60.70853510
_cell_angle_gamma   60.70840000
_symmetry_Int_Tables_number   1
_chemical_formula_structural   TbHC5(NO2)2
_chemical_formula_sum   'Tb16 H16 C80 N32 O64'
_cell_volume   3282.68272224
_cell_formula_units_Z   16
loop_
 _symmetry_equiv_pos_site_id
 _symmetry_equiv_pos_as_xyz
  1  'x, y, z'
loop_
 _atom_site_type_symbol
 _atom_site_label
 _atom_site_symmetry_multiplicity
 _atom_site_fract_x
 _atom_site_fract_y
 _atom_site_fract_z
 _atom_site_occupancy
  Tb  Tb1  1  0.26302000  0.62063000  0.53309000  1.0
  Tb  Tb2  1  0.46377000  0.88672000  0.52442000  1.0
  Tb  Tb3  1  0.41674000  0.87937000  0.96691000  1.0
  Tb  Tb4  1  0.87491000  0.61328000  0.97558000  1.0
  Tb  Tb5  1  0.38365000  0.53309000  0.87937000  1.0
  Tb  Tb6  1  0.85049000  0.52442000  0.61328000  1.0
  Tb  Tb7  1  0.79611000  0.96691000  0.62063000  1.0
  Tb  Tb8  1  0.98819000  0.97558000  0.88672000  1.0
  Tb  Tb9  1  0.73698000  0.37937000  0.46691000  1.0
  Tb  Tb10  1  0.53623000  0.11328000  0.47558000  1.0
  Tb  Tb11  1  0.58326000  0.12063000  0.03309000  1.0
  Tb  Tb12  1  0.12509000  0.38672000  0.02442000  1.0
  Tb  Tb13  1  0.61635000  0.46691000  0.12063000  1.0
  Tb  Tb14  1  0.14951000  0.47558000  0.38672000  1.0
  Tb  Tb15  1  0.20389000  0.03309000  0.37937000  1.0
  Tb  Tb16  1  0.01181000  0.02442000  0.11328000  1.0
  H  H1  1  0.44260000  0.75000000  0.75220000  1.0
  H  H2  1  0.13640000  0.60110000  0.78210000  1.0
  H  H3  1  0.94480000  0.75000000  0.74780000  1.0
  H  H4  1  0.51960000  0.89890000  0.71790000  1.0
  H  H5  1  0.69260000  0.75220000  0.75000000  1.0
  H  H6  1  0.23750000  0.78210000  0.89890000  1.0
  H  H7  1  0.19480000  0.74780000  0.75000000  1.0
  H  H8  1  0.91850000  0.71790000  0.60110000  1.0
  H  H9  1  0.55740000  0.25000000  0.24780000  1.0
  H  H10  1  0.86360000  0.39890000  0.21790000  1.0
  H  H11  1  0.05520000  0.25000000  0.25220000  1.0
  H  H12  1  0.48040000  0.10110000  0.28210000  1.0
  H  H13  1  0.30740000  0.24780000  0.25000000  1.0
  H  H14  1  0.76250000  0.21790000  0.10110000  1.0
  H  H15  1  0.80520000  0.25220000  0.25000000  1.0
  H  H16  1  0.08150000  0.28210000  0.39890000  1.0
  C  C1  1  0.43060000  0.72400000  0.71680000  1.0
  C  C2  1  0.40920000  0.70340000  0.60640000  1.0
  C  C3  1  0.40340000  0.63230000  0.67170000  1.0
  C  C4  1  0.40630000  0.72470000  0.51510000  1.0
  C  C5  1  0.38410000  0.55110000  0.67890000  1.0
  C  C6  1  0.10330000  0.58560000  0.75900000  1.0
  C  C7  1  0.06580000  0.55660000  0.66380000  1.0
  C  C8  1  0.99610000  0.54750000  0.75410000  1.0
  C  C9  1  0.08340000  0.54530000  0.56950000  1.0
  C  C10  1  0.90060000  0.53000000  0.79360000  1.0
  C  C11  1  0.87140000  0.77600000  0.78320000  1.0
  C  C12  1  0.71900000  0.79660000  0.89360000  1.0
  C  C13  1  0.70740000  0.86770000  0.82830000  1.0
  C  C14  1  0.64610000  0.77530000  0.98490000  1.0
  C  C15  1  0.61410000  0.94890000  0.82110000  1.0
  C  C16  1  0.44790000  0.91440000  0.74100000  1.0
  C  C17  1  0.28620000  0.94340000  0.83620000  1.0
  C  C18  1  0.29770000  0.95250000  0.74590000  1.0
  C  C19  1  0.19820000  0.95470000  0.93050000  1.0
  C  C20  1  0.22420000  0.97000000  0.70640000  1.0
  C  C21  1  0.65460000  0.71680000  0.77600000  1.0
  C  C22  1  0.61260000  0.60640000  0.79660000  1.0
  C  C23  1  0.53570000  0.67170000  0.86770000  1.0
  C  C24  1  0.63100000  0.51510000  0.77530000  1.0
  C  C25  1  0.43520000  0.67890000  0.94890000  1.0
  C  C26  1  0.18890000  0.75900000  0.91440000  1.0
  C  C27  1  0.12240000  0.66380000  0.94340000  1.0
  C  C28  1  0.04360000  0.75410000  0.95250000  1.0
  C  C29  1  0.12870000  0.56950000  0.95470000  1.0
  C  C30  1  0.93060000  0.79360000  0.97000000  1.0
  C  C31  1  0.14740000  0.78320000  0.72400000  1.0
  C  C32  1  0.01560000  0.89360000  0.70340000  1.0
  C  C33  1  0.07510000  0.82830000  0.63230000  1.0
  C  C34  1  0.92140000  0.98490000  0.72470000  1.0
  C  C35  1  0.06300000  0.82110000  0.55110000  1.0
  C  C36  1  0.86230000  0.74100000  0.58560000  1.0
  C  C37  1  0.72960000  0.83620000  0.55660000  1.0
  C  C38  1  0.75020000  0.74590000  0.54750000  1.0
  C  C39  1  0.65290000  0.93050000  0.54530000  1.0
  C  C40  1  0.69420000  0.70640000  0.53000000  1.0
  C  C41  1  0.56940000  0.27600000  0.28320000  1.0
  C  C42  1  0.59080000  0.29660000  0.39360000  1.0
  C  C43  1  0.59660000  0.36770000  0.32830000  1.0
  C  C44  1  0.59370000  0.27530000  0.48490000  1.0
  C  C45  1  0.61590000  0.44890000  0.32110000  1.0
  C  C46  1  0.89670000  0.41440000  0.24100000  1.0
  C  C47  1  0.93420000  0.44340000  0.33620000  1.0
  C  C48  1  0.00390000  0.45250000  0.24590000  1.0
  C  C49  1  0.91660000  0.45470000  0.43050000  1.0
  C  C50  1  0.09940000  0.47000000  0.20640000  1.0
  C  C51  1  0.12860000  0.22400000  0.21680000  1.0
  C  C52  1  0.28100000  0.20340000  0.10640000  1.0
  C  C53  1  0.29260000  0.13230000  0.17170000  1.0
  C  C54  1  0.35390000  0.22470000  0.01510000  1.0
  C  C55  1  0.38590000  0.05110000  0.17890000  1.0
  C  C56  1  0.55210000  0.08560000  0.25900000  1.0
  C  C57  1  0.71380000  0.05660000  0.16380000  1.0
  C  C58  1  0.70230000  0.04750000  0.25410000  1.0
  C  C59  1  0.80180000  0.04530000  0.06950000  1.0
  C  C60  1  0.77580000  0.03000000  0.29360000  1.0
  C  C61  1  0.34540000  0.28320000  0.22400000  1.0
  C  C62  1  0.38740000  0.39360000  0.20340000  1.0
  C  C63  1  0.46430000  0.32830000  0.13230000  1.0
  C  C64  1  0.36900000  0.48490000  0.22470000  1.0
  C  C65  1  0.56480000  0.32110000  0.05110000  1.0
  C  C66  1  0.81110000  0.24100000  0.08560000  1.0
  C  C67  1  0.87760000  0.33620000  0.05660000  1.0
  C  C68  1  0.95640000  0.24590000  0.04750000  1.0
  C  C69  1  0.87130000  0.43050000  0.04530000  1.0
  C  C70  1  0.06940000  0.20640000  0.03000000  1.0
  C  C71  1  0.85260000  0.21680000  0.27600000  1.0
  C  C72  1  0.98440000  0.10640000  0.29660000  1.0
  C  C73  1  0.92490000  0.17170000  0.36770000  1.0
  C  C74  1  0.07860000  0.01510000  0.27530000  1.0
  C  C75  1  0.93700000  0.17890000  0.44890000  1.0
  C  C76  1  0.13770000  0.25900000  0.41440000  1.0
  C  C77  1  0.27040000  0.16380000  0.44340000  1.0
  C  C78  1  0.24980000  0.25410000  0.45250000  1.0
  C  C79  1  0.34710000  0.06950000  0.45470000  1.0
  C  C80  1  0.30580000  0.29360000  0.47000000  1.0
  N  N1  1  0.41640000  0.64630000  0.74210000  1.0
  N  N2  1  0.42620000  0.76090000  0.63670000  1.0
  N  N3  1  0.02050000  0.56710000  0.81350000  1.0
  N  N4  1  0.13440000  0.57990000  0.66850000  1.0
  N  N5  1  0.80480000  0.85370000  0.75790000  1.0
  N  N6  1  0.82380000  0.73910000  0.86330000  1.0
  N  N7  1  0.40110000  0.93290000  0.68650000  1.0
  N  N8  1  0.38280000  0.92010000  0.83150000  1.0
  N  N9  1  0.56270000  0.74210000  0.85370000  1.0
  N  N10  1  0.68710000  0.63670000  0.73910000  1.0
  N  N11  1  0.08760000  0.81350000  0.93290000  1.0
  N  N12  1  0.21430000  0.66850000  0.92010000  1.0
  N  N13  1  0.15850000  0.75790000  0.64630000  1.0
  N  N14  1  0.06290000  0.86330000  0.76090000  1.0
  N  N15  1  0.83400000  0.68650000  0.56710000  1.0
  N  N16  1  0.80290000  0.83150000  0.57990000  1.0
  N  N17  1  0.58360000  0.35370000  0.25790000  1.0
  N  N18  1  0.57380000  0.23910000  0.36330000  1.0
  N  N19  1  0.97950000  0.43290000  0.18650000  1.0
  N  N20  1  0.86560000  0.42010000  0.33150000  1.0
  N  N21  1  0.19520000  0.14630000  0.24210000  1.0
  N  N22  1  0.17620000  0.26090000  0.13670000  1.0
  N  N23  1  0.59890000  0.06710000  0.31350000  1.0
  N  N24  1  0.61720000  0.07990000  0.16850000  1.0
  N  N25  1  0.43730000  0.25790000  0.14630000  1.0
  N  N26  1  0.31290000  0.36330000  0.26090000  1.0
  N  N27  1  0.91240000  0.18650000  0.06710000  1.0
  N  N28  1  0.78570000  0.33150000  0.07990000  1.0
  N  N29  1  0.84150000  0.24210000  0.35370000  1.0
  N  N30  1  0.93710000  0.13670000  0.23910000  1.0
  N  N31  1  0.16600000  0.31350000  0.43290000  1.0
  N  N32  1  0.19710000  0.16850000  0.42010000  1.0
  O  O1  1  0.38510000  0.67840000  0.48240000  1.0
  O  O2  1  0.42610000  0.79370000  0.47030000  1.0
  O  O3  1  0.39940000  0.49250000  0.74190000  1.0
  O  O4  1  0.35030000  0.54450000  0.62750000  1.0
  O  O5  1  0.15040000  0.56830000  0.50150000  1.0
  O  O6  1  0.03280000  0.51340000  0.55520000  1.0
  O  O7  1  0.87930000  0.50500000  0.74460000  1.0
  O  O8  1  0.84570000  0.54380000  0.88140000  1.0
  O  O9  1  0.54590000  0.82160000  0.01760000  1.0
  O  O10  1  0.69010000  0.70630000  0.02970000  1.0
  O  O11  1  0.63380000  0.00750000  0.75810000  1.0
  O  O12  1  0.52230000  0.95550000  0.87250000  1.0
  O  O13  1  0.22020000  0.93170000  0.99850000  1.0
  O  O14  1  0.10140000  0.98660000  0.94480000  1.0
  O  O15  1  0.12890000  0.99500000  0.75540000  1.0
  O  O16  1  0.27090000  0.95620000  0.61860000  1.0
  O  O17  1  0.56350000  0.48240000  0.82160000  1.0
  O  O18  1  0.71980000  0.47030000  0.70630000  1.0
  O  O19  1  0.39190000  0.74190000  0.00750000  1.0
  O  O20  1  0.39480000  0.62750000  0.95550000  1.0
  O  O21  1  0.21870000  0.50150000  0.93170000  1.0
  O  O22  1  0.04620000  0.55520000  0.98660000  1.0
  O  O23  1  0.88430000  0.74460000  0.99500000  1.0
  O  O24  1  0.88950000  0.88140000  0.95620000  1.0
  O  O25  1  0.86750000  0.01760000  0.67840000  1.0
  O  O26  1  0.89640000  0.02970000  0.79370000  1.0
  O  O27  1  0.14130000  0.75810000  0.49250000  1.0
  O  O28  1  0.97780000  0.87250000  0.54450000  1.0
  O  O29  1  0.65190000  0.99850000  0.56830000  1.0
  O  O30  1  0.58800000  0.94480000  0.51340000  1.0
  O  O31  1  0.62390000  0.75540000  0.50500000  1.0
  O  O32  1  0.72710000  0.61860000  0.54380000  1.0
  O  O33  1  0.61490000  0.32160000  0.51760000  1.0
  O  O34  1  0.57390000  0.20630000  0.52970000  1.0
  O  O35  1  0.60060000  0.50750000  0.25810000  1.0
  O  O36  1  0.64970000  0.45550000  0.37250000  1.0
  O  O37  1  0.84960000  0.43170000  0.49850000  1.0
  O  O38  1  0.96720000  0.48660000  0.44480000  1.0
  O  O39  1  0.12070000  0.49500000  0.25540000  1.0
  O  O40  1  0.15430000  0.45620000  0.11860000  1.0
  O  O41  1  0.45410000  0.17840000  0.98240000  1.0
  O  O42  1  0.30990000  0.29370000  0.97030000  1.0
  O  O43  1  0.36620000  0.99250000  0.24190000  1.0
  O  O44  1  0.47770000  0.04450000  0.12750000  1.0
  O  O45  1  0.77980000  0.06830000  0.00150000  1.0
  O  O46  1  0.89860000  0.01340000  0.05520000  1.0
  O  O47  1  0.87110000  0.00500000  0.24460000  1.0
  O  O48  1  0.72910000  0.04380000  0.38140000  1.0
  O  O49  1  0.43650000  0.51760000  0.17840000  1.0
  O  O50  1  0.28020000  0.52970000  0.29370000  1.0
  O  O51  1  0.60810000  0.25810000  0.99250000  1.0
  O  O52  1  0.60520000  0.37250000  0.04450000  1.0
  O  O53  1  0.78130000  0.49850000  0.06830000  1.0
  O  O54  1  0.95380000  0.44480000  0.01340000  1.0
  O  O55  1  0.11570000  0.25540000  0.00500000  1.0
  O  O56  1  0.11050000  0.11860000  0.04380000  1.0
  O  O57  1  0.13250000  0.98240000  0.32160000  1.0
  O  O58  1  0.10360000  0.97030000  0.20630000  1.0
  O  O59  1  0.85870000  0.24190000  0.50750000  1.0
  O  O60  1  0.02220000  0.12750000  0.45550000  1.0
  O  O61  1  0.34810000  0.00150000  0.43170000  1.0
  O  O62  1  0.41200000  0.05520000  0.48660000  1.0
  O  O63  1  0.37610000  0.24460000  0.49500000  1.0
  O  O64  1  0.27290000  0.38140000  0.45620000  1.0
