# generated using pymatgen
data_H6C11N4
_symmetry_space_group_name_H-M   'P 1'
_cell_length_a   24.08920000
_cell_length_b   24.08920000
_cell_length_c   24.08920000
_cell_angle_alpha   90.00000000
_cell_angle_beta   90.00000000
_cell_angle_gamma   90.00000000
_symmetry_Int_Tables_number   1
_chemical_formula_structural   H6C11N4
_chemical_formula_sum   'H72 C132 N48'
_cell_volume   13978.71118781
_cell_formula_units_Z   12
loop_
 _symmetry_equiv_pos_site_id
 _symmetry_equiv_pos_as_xyz
  1  'x, y, z'
loop_
 _atom_site_type_symbol
 _atom_site_label
 _atom_site_symmetry_multiplicity
 _atom_site_fract_x
 _atom_site_fract_y
 _atom_site_fract_z
 _atom_site_occupancy
  C  1  1  0.00576500  0.16215800  0.42314700  1
  C  2  1  0.05009200  0.17572000  0.38660000  1
  C  3  1  0.04048500  0.19996700  0.33385200  1
  C  4  1  0.98486300  0.20927600  0.31741300  1
  C  5  1  0.94001700  0.18898700  0.34933000  1
  C  6  1  0.95128800  0.16548400  0.40168400  1
  C  10  1  0.08369600  0.21399800  0.29676500  1
  C  11  1  0.88510500  0.18806900  0.32956200  1
  C  12  1  0.01682300  0.15060900  0.47981000  1
  C  16  1  0.98846800  0.78699200  0.42314700  1
  C  17  1  0.94413800  0.77349500  0.38657700  1
  C  18  1  0.95375200  0.74921000  0.33384500  1
  C  19  1  0.00937200  0.73988600  0.31741100  1
  C  20  1  0.05421800  0.76015700  0.34933700  1
  C  21  1  0.04295100  0.78362800  0.40170500  1
  C  25  1  0.91054600  0.73518300  0.29674600  1
  C  26  1  0.10913400  0.76107200  0.32957300  1
  C  27  1  0.97740600  0.79854800  0.47981000  1
  C  31  1  0.98835000  0.16210300  0.58012800  1
  C  32  1  0.94404600  0.17571700  0.61669400  1
  C  33  1  0.95369800  0.20007600  0.66938400  1
  C  34  1  0.00933100  0.20937000  0.68578800  1
  C  35  1  0.05414800  0.18899300  0.65389000  1
  C  36  1  0.04283800  0.16542600  0.60157200  1
  C  40  1  0.91051500  0.21425600  0.70644800  1
  C  41  1  0.10907200  0.18808200  0.67362600  1
  C  42  1  0.97722100  0.15044300  0.52348700  1
  C  46  1  0.00585200  0.78712600  0.58014900  1
  C  47  1  0.05015300  0.77352400  0.61673000  1
  C  48  1  0.04050200  0.74919600  0.66943200  1
  C  49  1  0.98487000  0.73987600  0.68582100  1
  C  50  1  0.94004800  0.76021100  0.65390000  1
  C  51  1  0.95136100  0.78376100  0.60157600  1
  C  55  1  0.08368400  0.73503400  0.70650600  1
  C  56  1  0.88511700  0.76109500  0.67361800  1
  C  57  1  0.01699500  0.79871400  0.52349500  1
  C  61  1  0.41859600  0.98340000  0.18929400  1
  C  62  1  0.38208600  0.02772500  0.20298200  1
  C  63  1  0.32934800  0.01809400  0.22725400  1
  C  64  1  0.31288100  0.96245300  0.23645300  1
  C  65  1  0.34470500  0.91765700  0.21591700  1
  C  66  1  0.39706400  0.92894200  0.19243700  1
  C  70  1  0.29236300  0.06132400  0.24157200  1
  C  71  1  0.32491200  0.86275500  0.21489600  1
  C  72  1  0.47527600  0.99446900  0.17781300  1
  C  76  1  0.41862400  0.96588600  0.81400300  1
  C  77  1  0.38207000  0.92154600  0.80047000  1
  C  78  1  0.32936300  0.93116700  0.77612000  1
  C  79  1  0.31293000  0.98679800  0.76680300  1
  C  80  1  0.34477000  0.03161400  0.78726200  1
  C  81  1  0.39712300  0.02034900  0.81076000  1
  C  85  1  0.29232700  0.88793200  0.76195600  1
  C  86  1  0.32499400  0.08652300  0.78818400  1
  C  87  1  0.47529700  0.95480400  0.82553300  1
  C  91  1  0.57559900  0.96578200  0.18935400  1
  C  92  1  0.61210500  0.92143600  0.20298500  1
  C  93  1  0.66483200  0.93107000  0.22728300  1
  C  94  1  0.68131000  0.98669800  0.23652000  1
  C  95  1  0.64953700  0.03149300  0.21588900  1
  C  96  1  0.59716900  0.02022700  0.19241700  1
  C  100  1  0.70182600  0.88785900  0.24159600  1
  C  101  1  0.66933800  0.08639300  0.21486700  1
  C  102  1  0.51889400  0.95479600  0.17790400  1
  C  106  1  0.57562000  0.98339800  0.81389900  1
  C  107  1  0.61213600  0.02772000  0.80022500  1
  C  108  1  0.66489600  0.01808500  0.77601000  1
  C  109  1  0.68133300  0.96245500  0.76672000  1
  C  110  1  0.64950600  0.91765700  0.78726900  1
  C  111  1  0.59714800  0.92893800  0.81076000  1
  C  115  1  0.70192800  0.06128700  0.76176800  1
  C  116  1  0.66930700  0.86275700  0.78830600  1
  C  117  1  0.51894500  0.99445300  0.82540200  1
  C  121  1  0.18472900  0.39609000  0.01028900  1
  C  122  1  0.19826600  0.35951600  0.05460800  1
  C  123  1  0.22247500  0.30675300  0.04498600  1
  C  124  1  0.23177000  0.29032400  0.98935900  1
  C  125  1  0.21150300  0.32226800  0.94452400  1
  C  126  1  0.18803700  0.37463600  0.95580900  1
  C  130  1  0.23649400  0.26963900  0.08818000  1
  C  131  1  0.21059100  0.30252800  0.88960100  1
  C  132  1  0.17321800  0.45276000  0.02135300  1
  C  136  1  0.80947400  0.39614600  0.99295800  1
  C  137  1  0.79598600  0.35956200  0.94862900  1
  C  138  1  0.77168900  0.30683400  0.95824800  1
  C  139  1  0.76234000  0.29041900  0.01386800  1
  C  140  1  0.78259600  0.32235300  0.05871400  1
  C  141  1  0.80607800  0.37471400  0.04744300  1
  C  145  1  0.75767000  0.26972100  0.91505400  1
  C  146  1  0.78349100  0.30260300  0.11363400  1
  C  147  1  0.82105100  0.45280400  0.98189300  1
  C  151  1  0.18467600  0.55309100  0.99286700  1
  C  152  1  0.19824100  0.58966600  0.94855200  1
  C  153  1  0.22257900  0.64237000  0.95818700  1
  C  154  1  0.23188300  0.65878400  0.01381400  1
  C  155  1  0.21154600  0.62687700  0.05864300  1
  C  156  1  0.18801600  0.57454100  0.04735200  1
  C  160  1  0.23674300  0.67943400  0.91499800  1
  C  161  1  0.21064000  0.64662900  0.11356300  1
  C  162  1  0.17303900  0.49644200  0.98175400  1
  C  166  1  0.80968500  0.55315400  0.01035100  1
  C  167  1  0.79609200  0.58973000  0.05465800  1
  C  168  1  0.77177200  0.64244000  0.04501500  1
  C  169  1  0.76247700  0.65884400  0.98938400  1
  C  170  1  0.78281400  0.62692900  0.94456100  1
  C  171  1  0.80633900  0.57459000  0.95586500  1
  C  175  1  0.75757700  0.67949800  0.08819900  1
  C  176  1  0.78371100  0.64666600  0.88963600  1
  C  177  1  0.82124200  0.49649100  0.02148500  1
  C  181  1  0.17568700  0.19367300  0.26066400  1
  C  183  1  0.25609300  0.15311000  0.22072300  1
  C  185  1  0.21614100  0.23349800  0.18015800  1
  C  190  1  0.81856500  0.75552400  0.26062100  1
  C  192  1  0.73813000  0.79607600  0.22071700  1
  C  194  1  0.77809000  0.71570600  0.18012200  1
  C  199  1  0.81862900  0.19363700  0.74268400  1
  C  201  1  0.73818400  0.15310500  0.78255300  1
  C  203  1  0.77809600  0.23351300  0.82311900  1
  C  208  1  0.17558700  0.75562000  0.74273200  1
  C  210  1  0.25611000  0.79607600  0.78254200  1
  C  212  1  0.21615400  0.71567800  0.82311400  1
  C  217  1  0.82184400  0.74402300  0.74876000  1
  C  219  1  0.74436800  0.79942300  0.77108500  1
  C  221  1  0.76659400  0.72181400  0.82637700  1
  C  226  1  0.17237000  0.20518900  0.74872400  1
  C  228  1  0.24988300  0.14979700  0.77101700  1
  C  230  1  0.22766600  0.22738300  0.82633400  1
  C  235  1  0.17234500  0.74402100  0.25436900  1
  C  237  1  0.24983600  0.79942800  0.23206900  1
  C  239  1  0.22768200  0.72177200  0.17682800  1
  C  244  1  0.82188200  0.20514500  0.25437700  1
  C  246  1  0.74440700  0.14971800  0.23206100  1
  C  248  1  0.76651900  0.22741200  0.17685900  1
  H  7  1  0.97706100  0.22546900  0.27885800  1
  H  8  1  0.91854100  0.15161700  0.42472500  1
  H  9  1  0.09021300  0.17219200  0.40027700  1
  H  13  1  0.05772100  0.15134800  0.49060900  1
  H  14  1  0.85603400  0.16532900  0.35080700  1
  H  15  1  0.07399400  0.23648600  0.26195400  1
  H  22  1  0.01717500  0.72369200  0.27885800  1
  H  23  1  0.07569300  0.79750800  0.42474400  1
  H  24  1  0.90401800  0.77695900  0.40026500  1
  H  28  1  0.93650600  0.79785000  0.49059800  1
  H  29  1  0.13821000  0.78379600  0.35082700  1
  H  30  1  0.92024900  0.71268100  0.26194500  1
  H  37  1  0.01716000  0.22564000  0.72430300  1
  H  38  1  0.07555600  0.15142300  0.57857400  1
  H  39  1  0.90393100  0.17224900  0.60300400  1
  H  43  1  0.93631900  0.15124900  0.51275400  1
  H  44  1  0.13812800  0.16532600  0.65237600  1
  H  45  1  0.92022000  0.23668500  0.74128800  1
  H  52  1  0.97703800  0.72361800  0.72434200  1
  H  53  1  0.91863900  0.79772100  0.57855700  1
  H  54  1  0.09027200  0.77699800  0.60304500  1
  H  58  1  0.05790000  0.79789000  0.51277200  1
  H  59  1  0.85605900  0.78385600  0.65237600  1
  H  60  1  0.07397800  0.71260000  0.74134400  1
  H  67  1  0.27429600  0.95468400  0.25258500  1
  H  68  1  0.42003400  0.89622800  0.17836800  1
  H  69  1  0.39583600  0.06783700  0.19969300  1
  H  73  1  0.48612600  0.03533800  0.17864700  1
  H  74  1  0.34613300  0.83371700  0.19209300  1
  H  75  1  0.25752600  0.05150200  0.26393700  1
  H  82  1  0.27435000  0.99455400  0.75065300  1
  H  83  1  0.42010900  0.05308400  0.82475400  1
  H  84  1  0.39581900  0.88143700  0.80379900  1
  H  88  1  0.48612200  0.91392500  0.82475800  1
  H  89  1  0.34621100  0.11558500  0.81095800  1
  H  90  1  0.25755700  0.89775200  0.73946900  1
  H  97  1  0.71992900  0.99449800  0.25254600  1
  H  98  1  0.57419400  0.05295200  0.17838600  1
  H  99  1  0.59830900  0.88133400  0.19978000  1
  H  103  1  0.50808200  0.91390400  0.17879500  1
  H  104  1  0.64815000  0.11541200  0.19201000  1
  H  105  1  0.73669800  0.89759600  0.26394500  1
  H  112  1  0.71996500  0.95464400  0.75072900  1
  H  113  1  0.57415900  0.89621600  0.82477300  1
  H  114  1  0.59842700  0.06783700  0.80363700  1
  H  118  1  0.50809600  0.03532900  0.82457200  1
  H  119  1  0.64808800  0.83372300  0.81111700  1
  H  120  1  0.73681200  0.05154500  0.73943800  1
  H  127  1  0.24794300  0.25176400  0.98154400  1
  H  128  1  0.17418900  0.39769500  0.92306600  1
  H  129  1  0.19475300  0.37318500  0.09473100  1
  H  133  1  0.17398100  0.46356000  0.06225000  1
  H  134  1  0.18789500  0.32381100  0.86052300  1
  H  135  1  0.25898900  0.23483400  0.07846900  1
  H  142  1  0.74613800  0.25187100  0.02167600  1
  H  143  1  0.81994900  0.39775700  0.08018800  1
  H  144  1  0.79947100  0.37323900  0.90851000  1
  H  148  1  0.82036000  0.46359300  0.94099300  1
  H  149  1  0.80617600  0.32388600  0.14272100  1
  H  150  1  0.73514400  0.23493300  0.92476200  1
  H  157  1  0.24813400  0.69730900  0.02163200  1
  H  158  1  0.17404800  0.55153400  0.08008000  1
  H  159  1  0.19476200  0.57596900  0.90843900  1
  H  163  1  0.17382000  0.48571000  0.94085000  1
  H  164  1  0.18792200  0.62536200  0.14263500  1
  H  165  1  0.25919400  0.71426300  0.92469500  1
  H  172  1  0.74622500  0.69737000  0.98155900  1
  H  173  1  0.82029400  0.55157200  0.92313800  1
  H  174  1  0.79954800  0.57603300  0.09477600  1
  H  178  1  0.82042000  0.48576600  0.06238800  1
  H  179  1  0.80642900  0.62540200  0.86056300  1
  H  180  1  0.73512900  0.71432700  0.07849400  1
  N  182  1  0.21548800  0.15375600  0.26007400  1
  N  184  1  0.25546600  0.19286900  0.18076300  1
  N  186  1  0.17623200  0.23292300  0.21996400  1
  N  187  1  0.13354000  0.18799600  0.29745200  1
  N  188  1  0.21047000  0.27028900  0.13801000  1
  N  189  1  0.29295500  0.11099700  0.21524100  1
  N  191  1  0.77875200  0.79543000  0.26005400  1
  N  193  1  0.73874900  0.75632100  0.18075500  1
  N  195  1  0.81801700  0.71628200  0.21991000  1
  N  196  1  0.86070600  0.76119500  0.29741700  1
  N  197  1  0.78371900  0.67890700  0.13797600  1
  N  198  1  0.70126100  0.83818400  0.21525600  1
  N  200  1  0.77882500  0.15372800  0.74323600  1
  N  202  1  0.73878600  0.19286500  0.82251500  1
  N  204  1  0.81802500  0.23294100  0.78333100  1
  N  205  1  0.86075200  0.18808700  0.70584800  1
  N  206  1  0.78373600  0.27033100  0.86524500  1
  N  207  1  0.70133200  0.11098600  0.78806400  1
  N  209  1  0.21541800  0.79550500  0.74327800  1
  N  211  1  0.25549100  0.75629600  0.82248400  1
  N  213  1  0.17619400  0.71629300  0.78335800  1
  N  214  1  0.13345200  0.76119100  0.70590600  1
  N  215  1  0.21056100  0.67885500  0.86524100  1
  N  216  1  0.29295100  0.83818800  0.78813600  1
  N  218  1  0.78875100  0.78852400  0.73848600  1
  N  220  1  0.73407900  0.76628000  0.81555500  1
  N  222  1  0.81102000  0.71147300  0.79319400  1
  N  223  1  0.86952300  0.73558800  0.72091500  1
  N  224  1  0.75821000  0.69397600  0.87406500  1
  N  225  1  0.71654600  0.84712300  0.76271200  1
  N  227  1  0.20547600  0.16069300  0.73844800  1
  N  229  1  0.26018600  0.18293200  0.81548500  1
  N  231  1  0.18322500  0.23772000  0.79317200  1
  N  232  1  0.12467700  0.21361200  0.72090900  1
  N  233  1  0.23607100  0.25521100  0.87402300  1
  N  234  1  0.27771600  0.10210600  0.76262900  1
  N  236  1  0.20543900  0.78852800  0.26464700  1
  N  238  1  0.26017000  0.76626300  0.18762500  1
  N  240  1  0.18322900  0.71144600  0.20996800  1
  N  241  1  0.12469400  0.73558200  0.28225700  1
  N  242  1  0.23611600  0.69395300  0.12913600  1
  N  243  1  0.27764900  0.84713400  0.24045400  1
  N  245  1  0.78880700  0.16061900  0.26463900  1
  N  247  1  0.73405600  0.18290100  0.18763500  1
  N  249  1  0.81097600  0.23774300  0.20999700  1
  N  250  1  0.86953400  0.21358500  0.28226200  1
  N  251  1  0.75806100  0.25524900  0.12918500  1
  N  252  1  0.71659800  0.10201100  0.24043400  1
