# generated using pymatgen
data_In5H18C30N9O13
_symmetry_space_group_name_H-M   'P 1'
_cell_length_a   14.39267000
_cell_length_b   14.39260000
_cell_length_c   18.52561000
_cell_angle_alpha   89.99955000
_cell_angle_beta   89.99978000
_cell_angle_gamma   60.17994000
_symmetry_Int_Tables_number   1
_chemical_formula_structural   In5H18C30N9O13
_chemical_formula_sum   'In10 H36 C60 N18 O26'
_cell_volume   3329.41843977
_cell_formula_units_Z   2
loop_
 _symmetry_equiv_pos_site_id
 _symmetry_equiv_pos_as_xyz
  1  'x, y, z'
loop_
 _atom_site_type_symbol
 _atom_site_label
 _atom_site_symmetry_multiplicity
 _atom_site_fract_x
 _atom_site_fract_y
 _atom_site_fract_z
 _atom_site_occupancy
  In  In0  1  0.74939000  0.74938000  0.74947000  1
  In  In1  1  0.74937000  0.50106000  0.74946000  1
  In  In2  1  0.50106000  0.74937000  0.74946000  1
  In  In3  1  0.25061000  0.25062000  0.25053000  1
  In  In4  1  0.25063000  0.49894000  0.25054000  1
  In  In5  1  0.49894000  0.25064000  0.25054000  1
  In  In6  1  0.00014000  0.00013000  0.87412000  1
  In  In7  1  0.99987000  0.99986000  0.37428000  1
  In  In8  1  0.99987000  0.99986000  0.12588000  1
  In  In9  1  0.00014000  0.00013000  0.62572000  1
  H  H10  1  0.95051000  0.67358000  0.55900000  1
  H  H11  1  0.67326000  0.37636000  0.55915000  1
  H  H12  1  0.37588000  0.95032000  0.55923000  1
  H  H13  1  0.04938000  0.32650000  0.05895000  1
  H  H14  1  0.32682000  0.62367000  0.05910000  1
  H  H15  1  0.62414000  0.04958000  0.05918000  1
  H  H16  1  0.04968000  0.62412000  0.44077000  1
  H  H17  1  0.32642000  0.04949000  0.44100000  1
  H  H18  1  0.62364000  0.32674000  0.44085000  1
  H  H19  1  0.95043000  0.37586000  0.94082000  1
  H  H20  1  0.67351000  0.95062000  0.94105000  1
  H  H21  1  0.37633000  0.67318000  0.94090000  1
  H  H22  1  0.04949000  0.32642000  0.44100000  1
  H  H23  1  0.32674000  0.62364000  0.44085000  1
  H  H24  1  0.62412000  0.04968000  0.44077000  1
  H  H25  1  0.95062000  0.67350000  0.94105000  1
  H  H26  1  0.67318000  0.37633000  0.94090000  1
  H  H27  1  0.37586000  0.95042000  0.94082000  1
  H  H28  1  0.95032000  0.37588000  0.55923000  1
  H  H29  1  0.67358000  0.95051000  0.55900000  1
  H  H30  1  0.37636000  0.67326000  0.55915000  1
  H  H31  1  0.04958000  0.62415000  0.05918000  1
  H  H32  1  0.32650000  0.04938000  0.05895000  1
  H  H33  1  0.62367000  0.32682000  0.05910000  1
  H  H34  1  0.85797000  0.85797000  0.86309000  1
  H  H35  1  0.85801000  0.28397000  0.86310000  1
  H  H36  1  0.28397000  0.85801000  0.86310000  1
  H  H37  1  0.14201000  0.14201000  0.36323000  1
  H  H38  1  0.14197000  0.71607000  0.36324000  1
  H  H39  1  0.71607000  0.14197000  0.36324000  1
  H  H40  1  0.14199000  0.71603000  0.13690000  1
  H  H41  1  0.14203000  0.14203000  0.13691000  1
  H  H42  1  0.71603000  0.14199000  0.13690000  1
  H  H43  1  0.85803000  0.28393000  0.63676000  1
  H  H44  1  0.85799000  0.85799000  0.63677000  1
  H  H45  1  0.28394000  0.85803000  0.63676000  1
  C  C46  1  0.97263000  0.59796000  0.53259000  1
  C  C47  1  0.59779000  0.42967000  0.53269000  1
  C  C48  1  0.42942000  0.97250000  0.53275000  1
  C  C49  1  0.02740000  0.40217000  0.03264000  1
  C  C50  1  0.40234000  0.57017000  0.03274000  1
  C  C51  1  0.57042000  0.02754000  0.03280000  1
  C  C52  1  0.02751000  0.57058000  0.46725000  1
  C  C53  1  0.40204000  0.02737000  0.46741000  1
  C  C54  1  0.57033000  0.40221000  0.46731000  1
  C  C55  1  0.97247000  0.42958000  0.96720000  1
  C  C56  1  0.59783000  0.97259000  0.96736000  1
  C  C57  1  0.42984000  0.59765000  0.96726000  1
  C  C58  1  0.02737000  0.40204000  0.46741000  1
  C  C59  1  0.40221000  0.57033000  0.46731000  1
  C  C60  1  0.57058000  0.02750000  0.46725000  1
  C  C61  1  0.97260000  0.59783000  0.96736000  1
  C  C62  1  0.59766000  0.42983000  0.96726000  1
  C  C63  1  0.42959000  0.97246000  0.96720000  1
  C  C64  1  0.97250000  0.42942000  0.53275000  1
  C  C65  1  0.59796000  0.97263000  0.53259000  1
  C  C66  1  0.42967000  0.59779000  0.53269000  1
  C  C67  1  0.02754000  0.57042000  0.03280000  1
  C  C68  1  0.40217000  0.02741000  0.03264000  1
  C  C69  1  0.57017000  0.40235000  0.03274000  1
  C  C70  1  0.87156000  0.87155000  0.80757000  1
  C  C71  1  0.87149000  0.25695000  0.80755000  1
  C  C72  1  0.25695000  0.87149000  0.80755000  1
  C  C73  1  0.12841000  0.12841000  0.30773000  1
  C  C74  1  0.12847000  0.74314000  0.30771000  1
  C  C75  1  0.74313000  0.12847000  0.30771000  1
  C  C76  1  0.12851000  0.74306000  0.19245000  1
  C  C77  1  0.12845000  0.12845000  0.19243000  1
  C  C78  1  0.74305000  0.12851000  0.19245000  1
  C  C79  1  0.87153000  0.25687000  0.69229000  1
  C  C80  1  0.87160000  0.87159000  0.69227000  1
  C  C81  1  0.25687000  0.87153000  0.69229000  1
  C  C82  1  0.88386000  0.55805000  0.63549000  1
  C  C83  1  0.94475000  0.52759000  0.56580000  1
  C  C84  1  0.55806000  0.55806000  0.63554000  1
  C  C85  1  0.52763000  0.52763000  0.56582000  1
  C  C86  1  0.55805000  0.88385000  0.63549000  1
  C  C87  1  0.52760000  0.94475000  0.56580000  1
  C  C88  1  0.11599000  0.44203000  0.13632000  1
  C  C89  1  0.05550000  0.47229000  0.06611000  1
  C  C90  1  0.44202000  0.44202000  0.13639000  1
  C  C91  1  0.47224000  0.47224000  0.06614000  1
  C  C92  1  0.44202000  0.11600000  0.13632000  1
  C  C93  1  0.47228000  0.05550000  0.06611000  1
  C  C94  1  0.11615000  0.44195000  0.36451000  1
  C  C95  1  0.05525000  0.47241000  0.43420000  1
  C  C96  1  0.44195000  0.11615000  0.36451000  1
  C  C97  1  0.47241000  0.05525000  0.43420000  1
  C  C98  1  0.44194000  0.44194000  0.36447000  1
  C  C99  1  0.47237000  0.47237000  0.43418000  1
  C  C100  1  0.88401000  0.55797000  0.86368000  1
  C  C101  1  0.94451000  0.52771000  0.93389000  1
  C  C102  1  0.55798000  0.88400000  0.86368000  1
  C  C103  1  0.52772000  0.94450000  0.93389000  1
  C  C104  1  0.55798000  0.55798000  0.86361000  1
  C  C105  1  0.52776000  0.52776000  0.93387000  1
  N  N106  1  0.83796000  0.83795000  0.74989000  1
  N  N107  1  0.83788000  0.32401000  0.74989000  1
  N  N108  1  0.32402000  0.83788000  0.74989000  1
  N  N109  1  0.16205000  0.16205000  0.25012000  1
  N  N110  1  0.16212000  0.67599000  0.25011000  1
  N  N111  1  0.67599000  0.16213000  0.25011000  1
  N  N112  1  0.92284000  0.92284000  0.78716000  1
  N  N113  1  0.92274000  0.15464000  0.78717000  1
  N  N114  1  0.15465000  0.92274000  0.78717000  1
  N  N115  1  0.07714000  0.07714000  0.28728000  1
  N  N116  1  0.07724000  0.84541000  0.28729000  1
  N  N117  1  0.84541000  0.07724000  0.28729000  1
  N  N118  1  0.07726000  0.84536000  0.21284000  1
  N  N119  1  0.07716000  0.07717000  0.21284000  1
  N  N120  1  0.84535000  0.07727000  0.21284000  1
  N  N121  1  0.92277000  0.15459000  0.71272000  1
  N  N122  1  0.92287000  0.92286000  0.71272000  1
  N  N123  1  0.15459000  0.92276000  0.71272000  1
  O  O124  1  0.86078000  0.64896000  0.66197000  1
  O  O125  1  0.64882000  0.49035000  0.66204000  1
  O  O126  1  0.49016000  0.86072000  0.66203000  1
  O  O127  1  0.13885000  0.35133000  0.16314000  1
  O  O128  1  0.35150000  0.50973000  0.16324000  1
  O  O129  1  0.50991000  0.13890000  0.16321000  1
  O  O130  1  0.13928000  0.50984000  0.33797000  1
  O  O131  1  0.35104000  0.13922000  0.33803000  1
  O  O132  1  0.50965000  0.35119000  0.33796000  1
  O  O133  1  0.86110000  0.49009000  0.83679000  1
  O  O134  1  0.64867000  0.86115000  0.83686000  1
  O  O135  1  0.49028000  0.64850000  0.83676000  1
  O  O136  1  0.13922000  0.35104000  0.33803000  1
  O  O137  1  0.35119000  0.50965000  0.33796000  1
  O  O138  1  0.50984000  0.13928000  0.33797000  1
  O  O139  1  0.86116000  0.64867000  0.83686000  1
  O  O140  1  0.64851000  0.49027000  0.83677000  1
  O  O141  1  0.49009000  0.86110000  0.83679000  1
  O  O142  1  0.86072000  0.49016000  0.66203000  1
  O  O143  1  0.64896000  0.86078000  0.66197000  1
  O  O144  1  0.49036000  0.64881000  0.66204000  1
  O  O145  1  0.13890000  0.50991000  0.16321000  1
  O  O146  1  0.35133000  0.13885000  0.16314000  1
  O  O147  1  0.50973000  0.35150000  0.16324000  1
  O  O148  1  0.66656000  0.66656000  0.74931000  1
  O  O149  1  0.33344000  0.33344000  0.25069000  1
