# generated using pymatgen
data_MgH3C7O3
_symmetry_space_group_name_H-M   'P 1'
_cell_length_a   6.84830000
_cell_length_b   21.05610000
_cell_length_c   21.05611356
_cell_angle_alpha   118.84028414
_cell_angle_beta   96.22401218
_cell_angle_gamma   96.22380000
_symmetry_Int_Tables_number   1
_chemical_formula_structural   MgH3C7O3
_chemical_formula_sum   'Mg6 H18 C42 O18'
_cell_volume   2598.57198324
_cell_formula_units_Z   6
loop_
 _symmetry_equiv_pos_site_id
 _symmetry_equiv_pos_as_xyz
  1  'x, y, z'
loop_
 _atom_site_type_symbol
 _atom_site_label
 _atom_site_symmetry_multiplicity
 _atom_site_fract_x
 _atom_site_fract_y
 _atom_site_fract_z
 _atom_site_occupancy
  Mg  Mg1  1  0.79697000  0.31505000  0.61869000  1.0
  Mg  Mg2  1  0.48192000  0.30364000  0.68495000  1.0
  Mg  Mg3  1  0.17828000  0.38131000  0.69636000  1.0
  Mg  Mg4  1  0.20303000  0.68495000  0.38131000  1.0
  Mg  Mg5  1  0.51808000  0.69636000  0.31505000  1.0
  Mg  Mg6  1  0.82172000  0.61869000  0.30364000  1.0
  H  H1  1  0.84386000  0.46212000  0.57638000  1.0
  H  H2  1  0.48681000  0.40604000  0.49824000  1.0
  H  H3  1  0.29418000  0.46389000  0.44717000  1.0
  H  H4  1  0.38174000  0.11426000  0.53788000  1.0
  H  H5  1  0.08077000  0.09220000  0.59396000  1.0
  H  H6  1  0.83029000  0.98328000  0.53611000  1.0
  H  H7  1  0.26748000  0.42362000  0.88574000  1.0
  H  H8  1  0.98857000  0.50176000  0.90780000  1.0
  H  H9  1  0.84701000  0.55283000  0.01672000  1.0
  H  H10  1  0.15614000  0.53788000  0.42362000  1.0
  H  H11  1  0.51319000  0.59396000  0.50176000  1.0
  H  H12  1  0.70582000  0.53611000  0.55283000  1.0
  H  H13  1  0.61826000  0.88574000  0.46212000  1.0
  H  H14  1  0.91923000  0.90780000  0.40604000  1.0
  H  H15  1  0.16971000  0.01672000  0.46389000  1.0
  H  H16  1  0.73252000  0.57638000  0.11426000  1.0
  H  H17  1  0.01143000  0.49824000  0.09220000  1.0
  H  H18  1  0.15299000  0.44717000  0.98328000  1.0
  C  C1  1  0.42341000  0.36780000  0.60929000  1.0
  C  C2  1  0.29135000  0.40258000  0.57898000  1.0
  C  C3  1  0.09889000  0.41571000  0.59693000  1.0
  C  C4  1  0.98435000  0.45162000  0.55853000  1.0
  C  C5  1  0.05258000  0.47417000  0.50976000  1.0
  C  C6  1  0.23431000  0.45400000  0.48778000  1.0
  C  C7  1  0.34739000  0.41970000  0.51734000  1.0
  C  C8  1  0.05561000  0.24149000  0.63220000  1.0
  C  C9  1  0.88877000  0.17640000  0.59742000  1.0
  C  C10  1  0.68318000  0.18122000  0.58429000  1.0
  C  C11  1  0.53273000  0.10691000  0.54838000  1.0
  C  C12  1  0.57841000  0.03559000  0.52583000  1.0
  C  C13  1  0.78031000  0.03378000  0.54600000  1.0
  C  C14  1  0.92769000  0.09764000  0.58030000  1.0
  C  C15  1  0.81412000  0.39071000  0.75851000  1.0
  C  C16  1  0.71237000  0.42102000  0.82360000  1.0
  C  C17  1  0.50196000  0.40307000  0.81878000  1.0
  C  C18  1  0.42582000  0.44147000  0.89309000  1.0
  C  C19  1  0.54282000  0.49024000  0.96441000  1.0
  C  C20  1  0.74653000  0.51222000  0.96622000  1.0
  C  C21  1  0.83005000  0.48266000  0.90236000  1.0
  C  C22  1  0.57659000  0.63220000  0.39071000  1.0
  C  C23  1  0.70865000  0.59742000  0.42102000  1.0
  C  C24  1  0.90111000  0.58429000  0.40307000  1.0
  C  C25  1  0.01565000  0.54838000  0.44147000  1.0
  C  C26  1  0.94742000  0.52583000  0.49024000  1.0
  C  C27  1  0.76569000  0.54600000  0.51222000  1.0
  C  C28  1  0.65261000  0.58030000  0.48266000  1.0
  C  C29  1  0.94439000  0.75851000  0.36780000  1.0
  C  C30  1  0.11123000  0.82360000  0.40258000  1.0
  C  C31  1  0.31682000  0.81878000  0.41571000  1.0
  C  C32  1  0.46727000  0.89309000  0.45162000  1.0
  C  C33  1  0.42159000  0.96441000  0.47417000  1.0
  C  C34  1  0.21969000  0.96622000  0.45400000  1.0
  C  C35  1  0.07231000  0.90236000  0.41970000  1.0
  C  C36  1  0.18588000  0.60929000  0.24149000  1.0
  C  C37  1  0.28763000  0.57898000  0.17640000  1.0
  C  C38  1  0.49804000  0.59693000  0.18122000  1.0
  C  C39  1  0.57418000  0.55853000  0.10691000  1.0
  C  C40  1  0.45718000  0.50976000  0.03559000  1.0
  C  C41  1  0.25347000  0.48778000  0.03378000  1.0
  C  C42  1  0.16995000  0.51734000  0.09764000  1.0
  O  O1  1  0.59505000  0.35834000  0.58929000  1.0
  O  O2  1  0.36917000  0.34688000  0.65283000  1.0
  O  O3  1  0.01530000  0.40083000  0.64787000  1.0
  O  O4  1  0.23671000  0.23095000  0.64166000  1.0
  O  O5  1  0.02229000  0.30595000  0.65312000  1.0
  O  O6  1  0.61447000  0.24704000  0.59917000  1.0
  O  O7  1  0.00576000  0.41071000  0.76905000  1.0
  O  O8  1  0.71634000  0.34717000  0.69405000  1.0
  O  O9  1  0.36743000  0.35213000  0.75296000  1.0
  O  O10  1  0.40495000  0.64166000  0.41071000  1.0
  O  O11  1  0.63083000  0.65312000  0.34717000  1.0
  O  O12  1  0.98470000  0.59917000  0.35213000  1.0
  O  O13  1  0.76329000  0.76905000  0.35834000  1.0
  O  O14  1  0.97771000  0.69405000  0.34688000  1.0
  O  O15  1  0.38553000  0.75296000  0.40083000  1.0
  O  O16  1  0.99424000  0.58929000  0.23095000  1.0
  O  O17  1  0.28366000  0.65283000  0.30595000  1.0
  O  O18  1  0.63257000  0.64787000  0.24704000  1.0
