# generated using pymatgen
data_H18C13N4
_symmetry_space_group_name_H-M   'P 1'
_cell_length_a   11.54396667
_cell_length_b   31.02000000
_cell_length_c   31.02000000
_cell_angle_alpha   90.00000000
_cell_angle_beta   90.00000000
_cell_angle_gamma   90.00000000
_symmetry_Int_Tables_number   1
_chemical_formula_structural   H18C13N4
_chemical_formula_sum   'H288 C208 N64'
_cell_volume   11108.07110292
_cell_formula_units_Z   16
loop_
 _symmetry_equiv_pos_site_id
 _symmetry_equiv_pos_as_xyz
  1  'x, y, z'
loop_
 _atom_site_type_symbol
 _atom_site_label
 _atom_site_symmetry_multiplicity
 _atom_site_fract_x
 _atom_site_fract_y
 _atom_site_fract_z
 _atom_site_occupancy
  C  1  1  0.24686600  0.28449900  0.55161100  1
  C  2  1  0.30406300  0.32024000  0.52284300  1
  C  3  1  0.33106300  0.27306700  0.58966700  1
  C  4  1  0.45100000  0.25694100  0.57206200  1
  C  7  1  0.50412000  0.29324000  0.54311700  1
  C  8  1  0.42339300  0.30483400  0.50419300  1
  C  13  1  0.40315000  0.26311300  0.47653700  1
  C  14  1  0.34821100  0.22617200  0.50452500  1
  C  17  1  0.43153400  0.21597700  0.54315500  1
  C  20  1  0.23053900  0.24302000  0.52349700  1
  C  23  1  0.12494800  0.29888700  0.56833900  1
  C  26  1  0.32145300  0.18487400  0.47718800  1
  C  29  1  0.53789800  0.24763300  0.60950600  1
  C  32  1  0.48551100  0.34110900  0.47783000  1
  C  35  1  0.74678900  0.20069400  0.93357100  1
  C  36  1  0.80403700  0.16497300  0.96235200  1
  C  37  1  0.83098100  0.21214200  0.89551800  1
  C  38  1  0.95088800  0.22829900  0.91312300  1
  C  41  1  0.00405000  0.19201600  0.94208100  1
  C  42  1  0.92333300  0.18041100  0.98100500  1
  C  47  1  0.90300200  0.22213400  0.00865000  1
  C  48  1  0.84801200  0.25905600  0.98065000  1
  C  51  1  0.93133700  0.26926200  0.94202700  1
  C  54  1  0.73037900  0.24217400  0.96167500  1
  C  57  1  0.62490000  0.18627200  0.91684600  1
  C  60  1  0.82114900  0.30035300  0.00797500  1
  C  63  1  0.03778100  0.23761400  0.87567600  1
  C  66  1  0.98550300  0.14415800  0.00738000  1
  C  69  1  0.49698900  0.43358100  0.78467300  1
  C  70  1  0.55432700  0.46234300  0.82038900  1
  C  71  1  0.58114500  0.39552500  0.77318700  1
  C  72  1  0.70101900  0.41313300  0.75700100  1
  C  75  1  0.75427500  0.44207600  0.79327800  1
  C  76  1  0.67360000  0.48099600  0.80492200  1
  C  81  1  0.65319300  0.50866200  0.76321600  1
  C  82  1  0.59811200  0.48067600  0.72629800  1
  C  85  1  0.68139800  0.44205000  0.71605300  1
  C  88  1  0.48050500  0.46170500  0.74321000  1
  C  91  1  0.37512500  0.41685600  0.79912200  1
  C  94  1  0.57117200  0.50802000  0.68501800  1
  C  97  1  0.78789600  0.37569300  0.74764900  1
  C  100  1  0.73586800  0.50734900  0.84116600  1
  C  103  1  0.99686600  0.05177500  0.70071800  1
  C  104  1  0.05404900  0.02292700  0.66504100  1
  C  105  1  0.08110200  0.08983700  0.71208500  1
  C  106  1  0.20100800  0.07224400  0.72825500  1
  C  109  1  0.25411700  0.04321300  0.69202000  1
  C  110  1  0.17334100  0.00428300  0.68049600  1
  C  115  1  0.15301900  0.97671400  0.72226500  1
  C  116  1  0.09809600  0.00478400  0.75914800  1
  C  119  1  0.18147400  0.04341500  0.76927400  1
  C  122  1  0.98046500  0.02374600  0.74224900  1
  C  125  1  0.87498800  0.06849500  0.68627600  1
  C  128  1  0.07127100  0.97753300  0.80049900  1
  C  131  1  0.28791800  0.10970100  0.73749700  1
  C  134  1  0.23543800  0.97782900  0.64427700  1
  C  137  1  0.73927600  0.78641700  0.05012900  1
  C  138  1  0.80884900  0.81784200  0.01990900  1
  C  139  1  0.81422000  0.77592100  0.09122800  1
  C  140  1  0.93400100  0.75526300  0.07868200  1
  C  143  1  0.99843400  0.78782300  0.04815000  1
  C  144  1  0.92840900  0.79788100  0.00603300  1
  C  149  1  0.90470000  0.75393800  0.98241300  1
  C  150  1  0.83687400  0.72145900  0.01154800  1
  C  153  1  0.91031900  0.71251000  0.05291800  1
  C  156  1  0.71979900  0.74321000  0.02509000  1
  C  159  1  0.61711100  0.80496000  0.06236000  1
  C  162  1  0.80637300  0.67923200  0.98645600  1
  C  165  1  0.01257300  0.74675000  0.11919500  1
  C  168  1  0.00113800  0.82988600  0.97720400  1
  C  171  1  0.23921800  0.69858100  0.43493800  1
  C  172  1  0.30885600  0.66723300  0.46521900  1
  C  173  1  0.31428900  0.70913200  0.39388700  1
  C  174  1  0.43386600  0.72991500  0.40650500  1
  C  177  1  0.49836600  0.69743000  0.43709800  1
  C  178  1  0.42820900  0.68732000  0.47917100  1
  C  183  1  0.40406800  0.73124700  0.50275600  1
  C  184  1  0.33615300  0.76364800  0.47356200  1
  C  187  1  0.40974000  0.77265500  0.43223700  1
  C  190  1  0.21931100  0.74177500  0.45994800  1
  C  193  1  0.11723200  0.67991500  0.42264000  1
  C  196  1  0.30519200  0.80584700  0.49862600  1
  C  199  1  0.51259900  0.73848400  0.36604100  1
  C  202  1  0.50101000  0.65538900  0.50806800  1
  C  205  1  0.98921900  0.93505000  0.28645800  1
  C  206  1  0.05880500  0.96530500  0.31784600  1
  C  207  1  0.06422300  0.89396700  0.27595600  1
  C  208  1  0.18392700  0.90654000  0.25525000  1
  C  211  1  0.24836800  0.93710700  0.28777200  1
  C  212  1  0.17828700  0.97920900  0.29783700  1
  C  217  1  0.15440500  0.00280100  0.25389300  1
  C  218  1  0.08655900  0.97363200  0.22144800  1
  C  221  1  0.16007000  0.93227800  0.21249400  1
  C  224  1  0.96957200  0.96006300  0.24324600  1
  C  227  1  0.86713600  0.92278700  0.30505800  1
  C  230  1  0.05591100  0.99870200  0.17922200  1
  C  233  1  0.26257100  0.86604700  0.24673100  1
  C  236  1  0.25104200  0.00807600  0.32980900  1
  C  239  1  0.48880800  0.55013500  0.19876200  1
  C  240  1  0.55844900  0.51988700  0.16738200  1
  C  241  1  0.56372600  0.59124400  0.20923800  1
  C  242  1  0.68348100  0.57872900  0.22994000  1
  C  245  1  0.74796800  0.54816200  0.19742900  1
  C  246  1  0.67797500  0.50603100  0.18739100  1
  C  251  1  0.65417100  0.48245300  0.23134700  1
  C  252  1  0.58628200  0.51161800  0.26378200  1
  C  255  1  0.65970200  0.55299700  0.27270700  1
  C  258  1  0.46924400  0.52513800  0.24198700  1
  C  261  1  0.36668800  0.56234900  0.18016100  1
  C  264  1  0.55572200  0.48656300  0.30602500  1
  C  267  1  0.76201600  0.61926400  0.23842500  1
  C  270  1  0.75076900  0.47717200  0.15543000  1
  C  273  1  0.65888400  0.07186100  0.59717500  1
  C  274  1  0.67627800  0.11234300  0.62136600  1
  C  279  1  0.59527500  0.18006800  0.64346800  1
  C  280  1  0.69763200  0.18966800  0.66677500  1
  C  281  1  0.71891400  0.22926700  0.69174000  1
  C  286  1  0.78029700  0.12288600  0.64322900  1
  C  291  1  0.15913900  0.41339400  0.88819700  1
  C  292  1  0.17646400  0.37292300  0.86397700  1
  C  297  1  0.09536000  0.30522100  0.84185600  1
  C  298  1  0.19760400  0.29565800  0.81846100  1
  C  299  1  0.21882700  0.25608500  0.79344500  1
  C  304  1  0.28042800  0.36238800  0.84207800  1
  C  309  1  0.90884000  0.38796200  0.57179800  1
  C  310  1  0.92620800  0.36377800  0.61228800  1
  C  315  1  0.84525800  0.34178600  0.68006000  1
  C  316  1  0.94750100  0.31838800  0.68962500  1
  C  317  1  0.96875000  0.29341000  0.72922200  1
  C  322  1  0.03008000  0.34180200  0.62278800  1
  C  327  1  0.40869300  0.09725300  0.91332900  1
  C  328  1  0.42620000  0.12145300  0.87285800  1
  C  333  1  0.34538700  0.14355600  0.80509900  1
  C  334  1  0.44772700  0.16690400  0.79556600  1
  C  335  1  0.46907900  0.19192200  0.75600500  1
  C  340  1  0.53022700  0.14333100  0.86236500  1
  C  345  1  0.14911200  0.57029900  0.09136900  1
  C  346  1  0.16725100  0.60970600  0.11717700  1
  C  351  1  0.08554500  0.67594700  0.14374700  1
  C  352  1  0.18925400  0.68424200  0.16677000  1
  C  353  1  0.21131700  0.72208800  0.19420500  1
  C  358  1  0.27239700  0.61905500  0.13885000  1
  C  363  1  0.64978900  0.91488600  0.39392600  1
  C  364  1  0.66777100  0.87547900  0.36810400  1
  C  369  1  0.58581600  0.80927700  0.34154400  1
  C  370  1  0.68941900  0.80096600  0.31846000  1
  C  371  1  0.71133600  0.76311600  0.29101000  1
  C  376  1  0.77283000  0.86610500  0.34638600  1
  C  381  1  0.39963100  0.89384500  0.07033500  1
  C  382  1  0.41757200  0.86799400  0.10972400  1
  C  387  1  0.33565900  0.84146900  0.17595300  1
  C  388  1  0.43924600  0.81837400  0.18426300  1
  C  389  1  0.46118300  0.79095600  0.22213300  1
  C  394  1  0.52248700  0.84615300  0.11904200  1
  C  399  1  0.90019400  0.59096600  0.41468400  1
  C  400  1  0.91801400  0.61686900  0.37531900  1
  C  405  1  0.83580200  0.64356500  0.30921000  1
  C  406  1  0.93940100  0.66666667  0.30087400  1
  C  407  1  0.96116200  0.69417700  0.26307600  1
  C  412  1  0.02300100  0.63863200  0.36593400  1
  C  417  1  0.16020800  0.14865900  0.33100900  1
  C  418  1  0.24561300  0.12730600  0.35943200  1
  C  423  1  0.37795800  0.13847000  0.41843300  1
  C  424  1  0.40622300  0.09399000  0.41810100  1
  C  425  1  0.48839600  0.07375600  0.44846800  1
  C  430  1  0.27332300  0.08284300  0.35913600  1
  C  435  1  0.65952500  0.33663100  0.15409300  1
  C  436  1  0.74502300  0.35797200  0.12569700  1
  C  441  1  0.87744200  0.34679800  0.06672000  1
  C  442  1  0.90593000  0.39126000  0.06712500  1
  C  443  1  0.98828900  0.41147900  0.03681900  1
  C  448  1  0.77290400  0.40242100  0.12604900  1
  C  453  1  0.40926000  0.65403500  0.64856100  1
  C  454  1  0.49491400  0.62567000  0.62726900  1
  C  459  1  0.62742300  0.56673400  0.63852000  1
  C  460  1  0.65605200  0.56713700  0.59407100  1
  C  461  1  0.73858700  0.53686300  0.57390000  1
  C  466  1  0.52294100  0.62601800  0.58283300  1
  C  471  1  0.90974900  0.83137500  0.83667900  1
  C  472  1  0.99526100  0.85975100  0.85804200  1
  C  477  1  0.12759400  0.91876400  0.84691700  1
  C  478  1  0.15611200  0.91831600  0.89137500  1
  C  479  1  0.23848300  0.94860600  0.91161400  1
  C  484  1  0.02318800  0.85935400  0.90248400  1
  C  489  1  0.66887500  0.37708200  0.31798400  1
  C  490  1  0.61382100  0.39843900  0.35537400  1
  C  495  1  0.48682700  0.38724300  0.41558600  1
  C  496  1  0.49029300  0.43185600  0.42543100  1
  C  497  1  0.42112300  0.45258500  0.45979000  1
  C  502  1  0.61780500  0.44316500  0.36512500  1
  C  507  1  0.16868500  0.10824200  0.16729200  1
  C  508  1  0.11365600  0.08686700  0.12990800  1
  C  513  1  0.98685500  0.09803200  0.06963500  1
  C  514  1  0.99050200  0.05342400  0.05977800  1
  C  515  1  0.92142100  0.03265700  0.02541600  1
  C  520  1  0.11785700  0.04215000  0.12013300  1
  C  525  1  0.41821200  0.81788400  0.60815200  1
  C  526  1  0.36297200  0.85524700  0.58681100  1
  C  531  1  0.23641200  0.91557600  0.59813600  1
  C  532  1  0.23959100  0.92541800  0.55351600  1
  C  533  1  0.17056000  0.95987000  0.53287200  1
  C  538  1  0.36640200  0.86499200  0.54207500  1
  C  543  1  0.91909700  0.66728200  0.87695600  1
  C  544  1  0.86423700  0.62988300  0.89836400  1
  C  549  1  0.73737600  0.56959300  0.88730400  1
  C  550  1  0.74115200  0.55976400  0.93192000  1
  C  551  1  0.67230700  0.52534400  0.95270400  1
  C  556  1  0.86839400  0.62010900  0.94307100  1
  H  5  1  0.29213100  0.24814900  0.61000600  1
  H  6  1  0.34397400  0.30149000  0.61001500  1
  H  9  1  0.51966000  0.32203100  0.56277200  1
  H  10  1  0.58856100  0.28275200  0.53085400  1
  H  11  1  0.31757100  0.34960300  0.54169500  1
  H  12  1  0.24469000  0.32834300  0.49662400  1
  H  15  1  0.48577200  0.25226700  0.46307800  1
  H  16  1  0.34621900  0.27047400  0.44930300  1
  H  18  1  0.51489100  0.20445200  0.53095000  1
  H  19  1  0.39458100  0.18995600  0.56259400  1
  H  21  1  0.17039300  0.25022000  0.49713700  1
  H  22  1  0.19043200  0.21754900  0.54290100  1
  H  24  1  0.08760300  0.27169200  0.58615700  1
  H  25  1  0.06749400  0.30534900  0.54101200  1
  H  27  1  0.24583800  0.19235700  0.45723000  1
  H  28  1  0.29583600  0.15847000  0.49864500  1
  H  30  1  0.54412200  0.27599600  0.63039300  1
  H  31  1  0.62404200  0.24313500  0.59525100  1
  H  33  1  0.50048500  0.36861700  0.49916100  1
  H  34  1  0.57074300  0.32906100  0.46800400  1
  H  39  1  0.79201700  0.23704700  0.87517000  1
  H  40  1  0.84394200  0.18371800  0.87517600  1
  H  43  1  0.01964500  0.16322600  0.92243300  1
  H  44  1  0.08846500  0.20252600  0.95434800  1
  H  45  1  0.81760300  0.13561000  0.94350600  1
  H  46  1  0.74466800  0.15686200  0.98856700  1
  H  49  1  0.98559800  0.23300400  0.02211200  1
  H  50  1  0.84607200  0.21476500  0.03588100  1
  H  52  1  0.01466900  0.28080900  0.95423500  1
  H  53  1  0.89434700  0.29527200  0.92257800  1
  H  55  1  0.67023200  0.23496500  0.98803600  1
  H  56  1  0.69023400  0.26763200  0.94226200  1
  H  58  1  0.58752200  0.21345200  0.89901600  1
  H  59  1  0.56744900  0.17980800  0.94417000  1
  H  61  1  0.74551700  0.29285500  0.02791700  1
  H  62  1  0.79551000  0.32674700  0.98650700  1
  H  64  1  0.04388800  0.20927400  0.85475400  1
  H  65  1  0.12396000  0.24205000  0.88992200  1
  H  67  1  0.00054800  0.11665100  0.98605300  1
  H  68  1  0.07069800  0.15623100  0.01721400  1
  H  73  1  0.54212000  0.37519300  0.74828400  1
  H  74  1  0.59415800  0.37517400  0.80160100  1
  H  77  1  0.76992800  0.42241100  0.82205600  1
  H  78  1  0.83867500  0.45433900  0.78274900  1
  H  79  1  0.56794500  0.44348800  0.84974100  1
  H  80  1  0.49498700  0.48856200  0.82852600  1
  H  83  1  0.73577100  0.52212100  0.75232700  1
  H  84  1  0.59628900  0.53589200  0.77061500  1
  H  86  1  0.76471000  0.45425800  0.70448700  1
  H  87  1  0.64434700  0.42261400  0.69004700  1
  H  89  1  0.42038700  0.48806200  0.75044400  1
  H  90  1  0.44030200  0.44230100  0.71775500  1
  H  92  1  0.33767600  0.39904200  0.77194300  1
  H  93  1  0.31770200  0.44418700  0.80561500  1
  H  95  1  0.49557800  0.52797200  0.69254900  1
  H  96  1  0.54545700  0.48656300  0.65862900  1
  H  98  1  0.79414100  0.35478400  0.77599500  1
  H  99  1  0.87404300  0.38994500  0.74315500  1
  H  101  1  0.75099700  0.48600800  0.86865500  1
  H  102  1  0.82102900  0.51719100  0.82906400  1
  H  107  1  0.04218000  0.11023200  0.73695900  1
  H  108  1  0.09406100  0.11012700  0.68362300  1
  H  111  1  0.26970700  0.06281100  0.66319400  1
  H  112  1  0.33853000  0.03095500  0.70253900  1
  H  113  1  0.06761400  0.04171800  0.63564100  1
  H  114  1  0.99463400  0.99671100  0.65698500  1
  H  117  1  0.23561500  0.96325800  0.73314500  1
  H  118  1  0.09605400  0.94947700  0.71495100  1
  H  120  1  0.26480000  0.03121500  0.78083100  1
  H  121  1  0.14452000  0.06290900  0.79525400  1
  H  123  1  0.92028300  0.99738400  0.73509600  1
  H  124  1  0.94036900  0.04321000  0.76767800  1
  H  126  1  0.83764800  0.08638200  0.71342600  1
  H  127  1  0.81749400  0.04116500  0.67987000  1
  H  129  1  0.99556900  0.95760700  0.79305800  1
  H  130  1  0.04575000  0.99904700  0.82686900  1
  H  132  1  0.29401800  0.13057800  0.70912500  1
  H  133  1  0.37410200  0.09546300  0.74195300  1
  H  135  1  0.25052400  0.99911600  0.61674000  1
  H  136  1  0.32061400  0.96798400  0.65635300  1
  H  141  1  0.76687600  0.75393800  0.11247900  1
  H  142  1  0.82904000  0.80560500  0.10946600  1
  H  145  1  0.01576800  0.81787100  0.06555300  1
  H  146  1  0.08267000  0.77425400  0.03916100  1
  H  147  1  0.82340300  0.84834200  0.03677700  1
  H  148  1  0.75787000  0.82524100  0.99109800  1
  H  151  1  0.98727900  0.73985700  0.97240400  1
  H  152  1  0.85379100  0.75967700  0.95322600  1
  H  154  1  0.99283100  0.69755600  0.04408900  1
  H  155  1  0.86359800  0.68944800  0.07316900  1
  H  157  1  0.66695600  0.74945400  0.99641400  1
  H  158  1  0.67052600  0.72081500  0.04535300  1
  H  160  1  0.56786600  0.77881300  0.07754900  1
  H  161  1  0.56989500  0.81391600  0.03309400  1
  H  163  1  0.75940800  0.68889700  0.95725900  1
  H  164  1  0.74572500  0.66037300  0.00598100  1
  H  166  1  0.00114600  0.77301000  0.14239500  1
  H  167  1  0.10358900  0.74839000  0.10932000  1
  H  169  1  0.98864000  0.86270000  0.98925100  1
  H  170  1  0.09374200  0.82272000  0.98030500  1
  H  175  1  0.26689400  0.73106300  0.37259500  1
  H  176  1  0.32940600  0.67945800  0.37567000  1
  H  179  1  0.51600800  0.66739100  0.41971900  1
  H  180  1  0.58246100  0.71108900  0.44614400  1
  H  181  1  0.32370900  0.63674300  0.44836800  1
  H  182  1  0.25778700  0.65979600  0.49399700  1
  H  185  1  0.48650100  0.74541800  0.51281400  1
  H  186  1  0.35306900  0.72546700  0.53191400  1
  H  188  1  0.49210000  0.78769400  0.44111800  1
  H  189  1  0.36295500  0.79566300  0.41194700  1
  H  191  1  0.16635900  0.73548900  0.48858700  1
  H  192  1  0.16997900  0.76411300  0.43964200  1
  H  194  1  0.06785200  0.70601800  0.40743300  1
  H  195  1  0.06997800  0.67091100  0.45188200  1
  H  197  1  0.25812900  0.79613100  0.52778800  1
  H  198  1  0.24451100  0.82464400  0.47905500  1
  H  200  1  0.50125100  0.71226200  0.34279800  1
  H  201  1  0.60358100  0.73682400  0.37595400  1
  H  203  1  0.48869100  0.62255600  0.49605700  1
  H  204  1  0.59359400  0.66261000  0.50499000  1
  H  209  1  0.01686900  0.87269400  0.25399800  1
  H  210  1  0.07916000  0.87575000  0.30564300  1
  H  213  1  0.26582200  0.91972500  0.31782300  1
  H  214  1  0.33255000  0.94611700  0.27416700  1
  H  215  1  0.07347100  0.94845800  0.34834600  1
  H  216  1  0.00777800  0.99410600  0.32524800  1
  H  219  1  0.23693200  0.01282400  0.23977800  1
  H  220  1  0.10346500  0.03197800  0.25963900  1
  H  222  1  0.24252800  0.94112400  0.19750600  1
  H  223  1  0.11333400  0.91200400  0.18945800  1
  H  225  1  0.91667900  0.98872500  0.24949700  1
  H  226  1  0.92028300  0.93977600  0.22088000  1
  H  228  1  0.81786300  0.90754900  0.27894700  1
  H  229  1  0.81986000  0.95204300  0.31399900  1
  H  231  1  0.00887400  0.02788300  0.18889100  1
  H  232  1  0.99529100  0.97915100  0.16037700  1
  H  234  1  0.25118100  0.84283900  0.27298500  1
  H  235  1  0.35357300  0.87594000  0.24837300  1
  H  237  1  0.23845300  0.99609800  0.36264300  1
  H  238  1  0.34365300  0.00492400  0.32267500  1
  H  243  1  0.51633400  0.61251400  0.23118900  1
  H  244  1  0.57859900  0.60945100  0.17954000  1
  H  247  1  0.76536400  0.56553400  0.16736700  1
  H  248  1  0.83217800  0.53918700  0.21103300  1
  H  249  1  0.57306300  0.53672400  0.13687200  1
  H  250  1  0.50748800  0.49106600  0.15999900  1
  H  253  1  0.73673300  0.47245600  0.24545900  1
  H  254  1  0.60328300  0.45325900  0.22562100  1
  H  256  1  0.74218600  0.54418400  0.28769200  1
  H  257  1  0.61293000  0.57327100  0.29573800  1
  H  259  1  0.41641200  0.49645300  0.23575500  1
  H  260  1  0.41991900  0.54542200  0.26434700  1
  H  262  1  0.31738200  0.57758100  0.20626800  1
  H  263  1  0.31947800  0.53307800  0.17122900  1
  H  265  1  0.50875400  0.45735900  0.29637600  1
  H  266  1  0.49505700  0.50610500  0.32486100  1
  H  268  1  0.75013900  0.64253900  0.21225800  1
  H  269  1  0.85306100  0.60946400  0.23658000  1
  H  271  1  0.73830200  0.48917700  0.12260100  1
  H  272  1  0.84336100  0.48029600  0.16261000  1
  H  275  1  0.57244100  0.07056500  0.58290100  1
  H  276  1  0.66851600  0.04429700  0.61870000  1
  H  277  1  0.72239200  0.06946000  0.57125000  1
  H  282  1  0.78525300  0.24811700  0.67537300  1
  H  283  1  0.74941600  0.22094700  0.72398700  1
  H  284  1  0.64140200  0.24893100  0.69523800  1
  H  288  1  0.46462700  0.21816500  0.66376400  1
  H  290  1  0.89265800  0.07898100  0.62000900  1
  H  293  1  0.07272600  0.41468700  0.90249700  1
  H  294  1  0.16872400  0.44097000  0.86668200  1
  H  295  1  0.22270700  0.41578000  0.91410300  1
  H  300  1  0.28523800  0.23722200  0.80975400  1
  H  301  1  0.24920600  0.26444200  0.76118900  1
  H  302  1  0.14131500  0.23641800  0.78996700  1
  H  306  1  0.96466100  0.26719500  0.82144300  1
  H  308  1  0.39297100  0.40619500  0.86535400  1
  H  311  1  0.82247500  0.40230400  0.57052800  1
  H  312  1  0.91826600  0.36641200  0.54424500  1
  H  313  1  0.97248400  0.41383600  0.56935800  1
  H  318  1  0.03519900  0.30973200  0.74805500  1
  H  319  1  0.99908900  0.26114400  0.72089500  1
  H  320  1  0.89126300  0.28996000  0.74890600  1
  H  324  1  0.71459200  0.32145700  0.71814200  1
  H  326  1  0.14261500  0.36512500  0.57899700  1
  H  329  1  0.32225600  0.08297100  0.91458600  1
  H  330  1  0.41822900  0.11877500  0.94090100  1
  H  331  1  0.47220600  0.07133000  0.91575300  1
  H  336  1  0.53556400  0.17561500  0.73717800  1
  H  337  1  0.49941100  0.22417800  0.76437700  1
  H  338  1  0.39164000  0.19539300  0.73629500  1
  H  342  1  0.21489600  0.16400200  0.76699100  1
  H  344  1  0.64258100  0.12002600  0.90622700  1
  H  347  1  0.06211400  0.56954200  0.07753100  1
  H  348  1  0.15981800  0.54184700  0.11164100  1
  H  349  1  0.21165600  0.56909700  0.06503600  1
  H  354  1  0.27662300  0.74211100  0.17865900  1
  H  355  1  0.24352000  0.71174000  0.22562700  1
  H  356  1  0.13375600  0.74131100  0.19946200  1
  H  360  1  0.95268800  0.70877700  0.17039700  1
  H  362  1  0.38659900  0.57561500  0.11431500  1
  H  365  1  0.56282500  0.91566900  0.40779800  1
  H  366  1  0.66050500  0.94334200  0.37365800  1
  H  367  1  0.71240800  0.91606300  0.42023800  1
  H  372  1  0.77661700  0.74306800  0.30653400  1
  H  373  1  0.74351600  0.77346500  0.25958200  1
  H  374  1  0.63372000  0.74392600  0.28576500  1
  H  378  1  0.45278400  0.77654300  0.31488600  1
  H  380  1  0.88718300  0.90950200  0.37089300  1
  H  383  1  0.31272800  0.90776800  0.06958400  1
  H  384  1  0.41019200  0.87358000  0.04186900  1
  H  385  1  0.46235700  0.92011500  0.06915000  1
  H  390  1  0.52654500  0.80647900  0.24214600  1
  H  391  1  0.49326600  0.75950900  0.21180900  1
  H  392  1  0.38359700  0.78575300  0.24135600  1
  H  396  1  0.20266600  0.81485400  0.20874100  1
  H  398  1  0.63690600  0.87078900  0.07572400  1
  H  401  1  0.81325700  0.57707500  0.41547300  1
  H  402  1  0.91096200  0.61118600  0.44317200  1
  H  403  1  0.96285700  0.56467000  0.41578300  1
  H  408  1  0.02646600  0.67871900  0.24298700  1
  H  409  1  0.99325700  0.72559900  0.27347700  1
  H  410  1  0.88350200  0.69942200  0.24390500  1
  H  414  1  0.70268100  0.67037000  0.27665900  1
  H  416  1  0.13750000  0.61410900  0.40927400  1
  H  419  1  0.09438200  0.16450100  0.35068600  1
  H  420  1  0.11634900  0.12620300  0.30945800  1
  H  421  1  0.20388500  0.17295500  0.31144600  1
  H  426  1  0.57393900  0.08827900  0.44480600  1
  H  427  1  0.49627100  0.03917300  0.44252400  1
  H  428  1  0.45850200  0.07836200  0.48151800  1
  H  432  1  0.48356300  0.15857900  0.46703700  1
  H  434  1  0.25082600  0.06635300  0.29923400  1
  H  437  1  0.59367300  0.32083100  0.13439100  1
  H  438  1  0.61570900  0.35908700  0.17565300  1
  H  439  1  0.70311100  0.31230200  0.17364100  1
  H  444  1  0.07375500  0.39689800  0.04050300  1
  H  445  1  0.99629600  0.44605000  0.04280700  1
  H  446  1  0.95847900  0.40693100  0.00375000  1
  H  450  1  0.98318300  0.32668900  0.01815300  1
  H  452  1  0.75036800  0.41887100  0.18596000  1
  H  455  1  0.34341200  0.63431300  0.66433200  1
  H  456  1  0.36545800  0.67557600  0.62607900  1
  H  457  1  0.45270300  0.67360700  0.67290700  1
  H  462  1  0.82398700  0.54058600  0.58852300  1
  H  463  1  0.74670400  0.54284600  0.53933200  1
  H  464  1  0.70886600  0.50378100  0.57843900  1
  H  468  1  0.73319500  0.51819700  0.65867700  1
  H  470  1  0.50032400  0.68592100  0.56636600  1
  H  473  1  0.84386400  0.85109500  0.82091800  1
  H  474  1  0.86597200  0.80978300  0.85911600  1
  H  475  1  0.95331100  0.81186200  0.81231700  1
  H  480  1  0.32393900  0.94494100  0.89702000  1
  H  481  1  0.24653000  0.94258100  0.94617900  1
  H  482  1  0.20865800  0.98167800  0.90710700  1
  H  486  1  0.23330200  0.96735500  0.82684000  1
  H  488  1  0.00070400  0.79942500  0.91886700  1
  H  491  1  0.72638900  0.35161800  0.32944200  1
  H  492  1  0.71973800  0.39893600  0.29812300  1
  H  493  1  0.60213600  0.36266600  0.29767500  1
  H  498  1  0.32929200  0.44577000  0.45502200  1
  H  499  1  0.43258400  0.48752000  0.45951900  1
  H  500  1  0.44755200  0.44078300  0.49136900  1
  H  504  1  0.34285700  0.36685000  0.44483200  1
  H  506  1  0.72744700  0.46746600  0.32062600  1
  H  509  1  0.22619100  0.13370600  0.15583100  1
  H  510  1  0.21953800  0.08639700  0.18716700  1
  H  511  1  0.10192700  0.12266100  0.18759000  1
  H  516  1  0.82957000  0.03944100  0.03017100  1
  H  517  1  0.93297700  0.99772900  0.02569300  1
  H  518  1  0.94784700  0.04446300  0.99383800  1
  H  522  1  0.84287700  0.11837400  0.04036200  1
  H  524  1  0.22757600  0.01788100  0.16462300  1
  H  527  1  0.47624300  0.82938000  0.63343600  1
  H  528  1  0.46855100  0.79790000  0.58624000  1
  H  529  1  0.35162300  0.79767500  0.62280100  1
  H  534  1  0.07874700  0.95522400  0.53980300  1
  H  535  1  0.18170000  0.95958600  0.49792300  1
  H  536  1  0.19740100  0.99141400  0.54463500  1
  H  540  1  0.09261500  0.94482800  0.61865800  1
  H  542  1  0.47676200  0.82062800  0.51785200  1
  H  545  1  0.97652900  0.65583400  0.85146300  1
  H  546  1  0.96999800  0.68717200  0.89877100  1
  H  547  1  0.85224000  0.68755900  0.86257100  1
  H  552  1  0.58041000  0.53002800  0.94595000  1
  H  553  1  0.68394500  0.52562500  0.98762900  1
  H  554  1  0.69888000  0.49378700  0.94088500  1
  H  558  1  0.59332900  0.54030600  0.86704600  1
  H  560  1  0.97807100  0.66467400  0.96729100  1
  N  278  1  0.58976600  0.14205000  0.62192100  1
  N  285  1  0.78515200  0.16066300  0.66505400  1
  N  287  1  0.50434900  0.20932400  0.63560200  1
  N  289  1  0.87885800  0.09653600  0.64751400  1
  N  296  1  0.08991300  0.34323300  0.86341300  1
  N  303  1  0.28517500  0.32464200  0.82019600  1
  N  305  1  0.00435300  0.27597300  0.84962800  1
  N  307  1  0.37903600  0.38872000  0.83781000  1
  N  314  1  0.83975600  0.36329400  0.64202000  1
  N  321  1  0.03495600  0.32002400  0.66058900  1
  N  323  1  0.75432800  0.34962200  0.70932200  1
  N  325  1  0.12872900  0.33757900  0.59647200  1
  N  332  1  0.33976000  0.12202100  0.84312300  1
  N  339  1  0.53517900  0.16517800  0.82459900  1
  N  341  1  0.25446500  0.13580600  0.77581500  1
  N  343  1  0.62877200  0.14756700  0.88872900  1
  N  350  1  0.07989700  0.63906100  0.12020200  1
  N  357  1  0.27712200  0.65553400  0.16281700  1
  N  359  1  0.99020400  0.70456100  0.14084800  1
  N  361  1  0.37030000  0.59190100  0.14242900  1
  N  368  1  0.58032300  0.84615900  0.36509600  1
  N  375  1  0.77738300  0.82963500  0.32239800  1
  N  377  1  0.49037000  0.78071100  0.34443200  1
  N  379  1  0.87079400  0.89322300  0.34278200  1
  N  386  1  0.33017600  0.86502500  0.13907000  1
  N  393  1  0.52714400  0.82224300  0.15555600  1
  N  395  1  0.24025900  0.84439300  0.20453500  1
  N  397  1  0.62056900  0.84265200  0.09196400  1
  N  404  1  0.83045300  0.61993800  0.34605100  1
  N  411  1  0.02745600  0.66266800  0.32949700  1
  N  413  1  0.74016500  0.64079200  0.28072000  1
  N  415  1  0.12102700  0.64223000  0.39303000  1
  N  422  1  0.29996000  0.15248200  0.38878700  1
  N  429  1  0.35269700  0.06865900  0.38837200  1
  N  431  1  0.41678400  0.16985200  0.44849100  1
  N  433  1  0.22259500  0.05486600  0.32844600  1
  N  440  1  0.79935600  0.33279800  0.09634000  1
  N  447  1  0.85242200  0.41658900  0.09686000  1
  N  449  1  0.91639700  0.31540800  0.03669000  1
  N  451  1  0.72220800  0.43039000  0.15675200  1
  N  458  1  0.54922600  0.59633400  0.65247500  1
  N  465  1  0.60256900  0.59685000  0.56871000  1
  N  467  1  0.66639400  0.53673700  0.66994100  1
  N  469  1  0.47227900  0.65670100  0.55483500  1
  N  476  1  0.04953600  0.88914800  0.83289100  1
  N  483  1  0.10267100  0.88854200  0.91667800  1
  N  485  1  0.16652400  0.94881900  0.81555000  1
  N  487  1  0.97253600  0.82861600  0.93042400  1
  N  494  1  0.54848800  0.37292700  0.38127600  1
  N  501  1  0.55388500  0.45741700  0.39900300  1
  N  503  1  0.42431100  0.35559900  0.43838100  1
  N  505  1  0.65238600  0.47566000  0.33597000  1
  N  512  1  0.04836500  0.11236500  0.10397500  1
  N  519  1  0.05407500  0.02787800  0.08622800  1
  N  521  1  0.92430200  0.12965400  0.04682400  1
  N  523  1  0.15253300  0.00965900  0.14927800  1
  N  530  1  0.29802000  0.88122400  0.61239100  1
  N  537  1  0.30284500  0.89896100  0.52786500  1
  N  539  1  0.17414700  0.93838400  0.62983500  1
  N  541  1  0.40157200  0.83587300  0.50962900  1
  N  548  1  0.79883700  0.60393200  0.87292000  1
  N  555  1  0.80480300  0.58621100  0.95744600  1
  N  557  1  0.67470100  0.54677900  0.85571800  1
  N  559  1  0.90307400  0.64931300  0.97553100  1
