# generated using pymatgen
data_CuH6C6BrN2
_symmetry_space_group_name_H-M   'P 1'
_cell_length_a   12.63053000
_cell_length_b   14.00130775
_cell_length_c   14.00130775
_cell_angle_alpha   78.36260705
_cell_angle_beta   63.30507665
_cell_angle_gamma   63.30507665
_symmetry_Int_Tables_number   1
_chemical_formula_structural   CuH6C6BrN2
_chemical_formula_sum   'Cu8 H48 C48 Br8 N16'
_cell_volume   1976.33952517
_cell_formula_units_Z   8
loop_
 _symmetry_equiv_pos_site_id
 _symmetry_equiv_pos_as_xyz
  1  'x, y, z'
loop_
 _atom_site_type_symbol
 _atom_site_label
 _atom_site_symmetry_multiplicity
 _atom_site_fract_x
 _atom_site_fract_y
 _atom_site_fract_z
 _atom_site_occupancy
  Cu  Cu1  1  0.35131000  0.47117000  0.00047000  1.0
  Cu  Cu2  1  0.82306000  0.52848000  0.99941000  1.0
  Cu  Cu3  1  0.07211000  0.50055000  0.02886000  1.0
  Cu  Cu4  1  0.60154000  0.49955000  0.97151000  1.0
  Cu  Cu5  1  0.35131000  0.00047000  0.47117000  1.0
  Cu  Cu6  1  0.82306000  0.99941000  0.52848000  1.0
  Cu  Cu7  1  0.07210000  0.02887000  0.50055000  1.0
  Cu  Cu8  1  0.60154000  0.97151000  0.49955000  1.0
  H  H1  1  0.87614000  0.40384000  0.75404000  1.0
  H  H2  1  0.84771000  0.36008000  0.88687000  1.0
  H  H3  1  0.39765000  0.23415000  0.92702000  1.0
  H  H4  1  0.33118000  0.36424000  0.87918000  1.0
  H  H5  1  0.03315000  0.59733000  0.24734000  1.0
  H  H6  1  0.09358000  0.64112000  0.11450000  1.0
  H  H7  1  0.56047000  0.76463000  0.07187000  1.0
  H  H8  1  0.57611000  0.63448000  0.11949000  1.0
  H  H9  1  0.53001000  0.25321000  0.09678000  1.0
  H  H10  1  0.45810000  0.38612000  0.14047000  1.0
  H  H11  1  0.88245000  0.42751000  0.26540000  1.0
  H  H12  1  0.94546000  0.37990000  0.13519000  1.0
  H  H13  1  0.88072000  0.74654000  0.90327000  1.0
  H  H14  1  0.98469000  0.61376000  0.85937000  1.0
  H  H15  1  0.57443000  0.57234000  0.73488000  1.0
  H  H16  1  0.46044000  0.62028000  0.86492000  1.0
  H  H17  1  0.87614000  0.75404000  0.40384000  1.0
  H  H18  1  0.84771000  0.88687000  0.36008000  1.0
  H  H19  1  0.39765000  0.92702000  0.23415000  1.0
  H  H20  1  0.33118000  0.87918000  0.36424000  1.0
  H  H21  1  0.03315000  0.24734000  0.59733000  1.0
  H  H22  1  0.09358000  0.11450000  0.64112000  1.0
  H  H23  1  0.56047000  0.07187000  0.76463000  1.0
  H  H24  1  0.57612000  0.11949000  0.63447000  1.0
  H  H25  1  0.53002000  0.09678000  0.25320000  1.0
  H  H26  1  0.45810000  0.14047000  0.38612000  1.0
  H  H27  1  0.88244000  0.26541000  0.42751000  1.0
  H  H28  1  0.94546000  0.13519000  0.37990000  1.0
  H  H29  1  0.88072000  0.90327000  0.74654000  1.0
  H  H30  1  0.98469000  0.85937000  0.61376000  1.0
  H  H31  1  0.57443000  0.73488000  0.57234000  1.0
  H  H32  1  0.46044000  0.86492000  0.62028000  1.0
  H  H33  1  0.07429000  0.24792000  0.75410000  1.0
  H  H34  1  0.98435000  0.17186000  0.82950000  1.0
  H  H35  1  0.35154000  0.21748000  0.78048000  1.0
  H  H36  1  0.42548000  0.30153000  0.69699000  1.0
  H  H37  1  0.07428000  0.75411000  0.24792000  1.0
  H  H38  1  0.98435000  0.82950000  0.17186000  1.0
  H  H39  1  0.35155000  0.78048000  0.21747000  1.0
  H  H40  1  0.42548000  0.69699000  0.30153000  1.0
  H  H41  1  0.57226000  0.25306000  0.25306000  1.0
  H  H42  1  0.40665000  0.32881000  0.32881000  1.0
  H  H43  1  0.81910000  0.28156000  0.28156000  1.0
  H  H44  1  0.97666000  0.19775000  0.19774000  1.0
  H  H45  1  0.07846000  0.74687000  0.74687000  1.0
  H  H46  1  0.06354000  0.67113000  0.67113000  1.0
  H  H47  1  0.38191000  0.71852000  0.71852000  1.0
  H  H48  1  0.37282000  0.80229000  0.80229000  1.0
  C  C1  1  0.75030000  0.32379000  0.81747000  1.0
  C  C2  1  0.53447000  0.30113000  0.83917000  1.0
  C  C3  1  0.86579000  0.33666000  0.80867000  1.0
  C  C4  1  0.41618000  0.28697000  0.85707000  1.0
  C  C5  1  0.89115000  0.67649000  0.18335000  1.0
  C  C6  1  0.67541000  0.69810000  0.16056000  1.0
  C  C7  1  0.01019000  0.66436000  0.19258000  1.0
  C  C8  1  0.56157000  0.71183000  0.14187000  1.0
  C  C9  1  0.32431000  0.31704000  0.17634000  1.0
  C  C10  1  0.08589000  0.33929000  0.19848000  1.0
  C  C11  1  0.45262000  0.30800000  0.16383000  1.0
  C  C12  1  0.95342000  0.35760000  0.21247000  1.0
  C  C13  1  0.81779000  0.68291000  0.82360000  1.0
  C  C14  1  0.62361000  0.66064000  0.80145000  1.0
  C  C15  1  0.92464000  0.69191000  0.83610000  1.0
  C  C16  1  0.52321000  0.64241000  0.78757000  1.0
  C  C17  1  0.75031000  0.81747000  0.32378000  1.0
  C  C18  1  0.53447000  0.83917000  0.30113000  1.0
  C  C19  1  0.86579000  0.80867000  0.33666000  1.0
  C  C20  1  0.41617000  0.85708000  0.28697000  1.0
  C  C21  1  0.89114000  0.18335000  0.67649000  1.0
  C  C22  1  0.67542000  0.16056000  0.69809000  1.0
  C  C23  1  0.01019000  0.19258000  0.66436000  1.0
  C  C24  1  0.56156000  0.14188000  0.71183000  1.0
  C  C25  1  0.32431000  0.17634000  0.31704000  1.0
  C  C26  1  0.08590000  0.19848000  0.33928000  1.0
  C  C27  1  0.45262000  0.16383000  0.30800000  1.0
  C  C28  1  0.95342000  0.21247000  0.35760000  1.0
  C  C29  1  0.81780000  0.82360000  0.68290000  1.0
  C  C30  1  0.62361000  0.80145000  0.66064000  1.0
  C  C31  1  0.92464000  0.83610000  0.69191000  1.0
  C  C32  1  0.52321000  0.78757000  0.64241000  1.0
  C  C33  1  0.76772000  0.24817000  0.75211000  1.0
  C  C34  1  0.65776000  0.23635000  0.76338000  1.0
  C  C35  1  0.98985000  0.23387000  0.76753000  1.0
  C  C36  1  0.43253000  0.23969000  0.75887000  1.0
  C  C37  1  0.76772000  0.75211000  0.24817000  1.0
  C  C38  1  0.65775000  0.76339000  0.23635000  1.0
  C  C39  1  0.98986000  0.76753000  0.23386000  1.0
  C  C40  1  0.43253000  0.75887000  0.23969000  1.0
  C  C41  1  0.26594000  0.25196000  0.25196000  1.0
  C  C42  1  0.14419000  0.26351000  0.26351000  1.0
  C  C43  1  0.47384000  0.26682000  0.26681000  1.0
  C  C44  1  0.92223000  0.25961000  0.25961000  1.0
  C  C45  1  0.76992000  0.74798000  0.74798000  1.0
  C  C46  1  0.67119000  0.73643000  0.73643000  1.0
  C  C47  1  0.00739000  0.73313000  0.73313000  1.0
  C  C48  1  0.44141000  0.74042000  0.74042000  1.0
  Br  Br1  1  0.36748000  0.60113000  0.08744000  1.0
  Br  Br2  1  0.05532000  0.39842000  0.91291000  1.0
  Br  Br3  1  0.21828000  0.58692000  0.89911000  1.0
  Br  Br4  1  0.70436000  0.41239000  0.10175000  1.0
  Br  Br5  1  0.36748000  0.08744000  0.60113000  1.0
  Br  Br6  1  0.05532000  0.91291000  0.39842000  1.0
  Br  Br7  1  0.21828000  0.89911000  0.58692000  1.0
  Br  Br8  1  0.70436000  0.10175000  0.41239000  1.0
  N  N1  1  0.52286000  0.37409000  0.89631000  1.0
  N  N2  1  0.63134000  0.38417000  0.88674000  1.0
  N  N3  1  0.79364000  0.62513000  0.10406000  1.0
  N  N4  1  0.90217000  0.61549000  0.11411000  1.0
  N  N5  1  0.14739000  0.39610000  0.12553000  1.0
  N  N6  1  0.26597000  0.38625000  0.11562000  1.0
  N  N7  1  0.66901000  0.60383000  0.87444000  1.0
  N  N8  1  0.76801000  0.61360000  0.88426000  1.0
  N  N9  1  0.52286000  0.89631000  0.37409000  1.0
  N  N10  1  0.63134000  0.88675000  0.38417000  1.0
  N  N11  1  0.79365000  0.10406000  0.62512000  1.0
  N  N12  1  0.90218000  0.11411000  0.61548000  1.0
  N  N13  1  0.14738000  0.12554000  0.39610000  1.0
  N  N14  1  0.26596000  0.11562000  0.38625000  1.0
  N  N15  1  0.66901000  0.87444000  0.60383000  1.0
  N  N16  1  0.76801000  0.88426000  0.61360000  1.0
