# generated using pymatgen
data_H9C16(NO)4
_symmetry_space_group_name_H-M   'P 1'
_cell_length_a   15.09030000
_cell_length_b   15.09030000
_cell_length_c   90.54160000
_cell_angle_alpha   90.00000000
_cell_angle_beta   90.00000000
_cell_angle_gamma   120.00000000
_symmetry_Int_Tables_number   1
_chemical_formula_structural   H9C16(NO)4
_chemical_formula_sum   'H108 C192 N48 O48'
_cell_volume   17855.60393667
_cell_formula_units_Z   12
loop_
 _symmetry_equiv_pos_site_id
 _symmetry_equiv_pos_as_xyz
  1  'x, y, z'
loop_
 _atom_site_type_symbol
 _atom_site_label
 _atom_site_symmetry_multiplicity
 _atom_site_fract_x
 _atom_site_fract_y
 _atom_site_fract_z
 _atom_site_occupancy
  C  1  1  0.99773300  0.98092600  0.92364300  1
  C  2  1  0.99629550  0.11627350  0.38225300  1
  C  3  1  0.99586100  0.02965400  0.03318500  1
  C  4  1  0.99452750  0.95205150  0.81696400  1
  C  5  1  0.99415150  0.87273450  0.82522300  1
  C  15  1  0.99493050  0.85902050  0.24486000  1
  C  16  1  0.99844950  0.11568750  0.28275200  1
  C  17  1  0.99635200  0.97417300  0.74152100  1
  C  19  1  0.99390750  0.20496450  0.68237000  1
  C  25  1  0.99218950  0.15602650  0.39636800  1
  C  26  1  0.99071950  0.03325750  0.82441400  1
  C  27  1  0.98785950  0.03415750  0.84021500  1
  C  28  1  0.98777650  0.95315250  0.84833600  1
  C  29  1  0.99057500  0.87319100  0.84068300  1
  C  30  1  0.98693750  0.11899150  0.84687700  1
  C  47  1  0.98726850  0.79626450  0.23268700  1
  C  48  1  0.99112350  0.03315850  0.60475400  1
  C  51  1  0.98646350  0.96040950  0.95088400  1
  C  53  1  0.98604650  0.87550650  0.34821000  1
  C  55  1  0.98636500  0.18910000  0.82360800  1
  C  69  1  0.05699800  0.03302900  0.91085800  1
  C  70  1  0.13934900  0.13571900  0.91164800  1
  C  71  1  0.20225000  0.19075300  0.89948400  1
  C  72  1  0.17891100  0.13886500  0.88568500  1
  C  73  1  0.09900350  0.03582550  0.88438500  1
  C  74  1  0.03780750  0.98561350  0.89679700  1
  C  77  1  0.04125550  0.00854050  0.93795300  1
  C  78  1  0.88246000  0.88290100  0.94954400  1
  C  79  1  0.83471250  0.84747950  0.93549900  1
  C  80  1  0.89524750  0.89805750  0.92287700  1
  C  87  1  0.73267150  0.76263150  0.93432500  1
  C  88  1  0.07983750  0.98372950  0.87066600  1
  C  89  1  0.03652500  0.98644700  0.96490200  1
  C  90  1  0.28306550  0.29412350  0.90113000  1
  C  95  1  0.97462200  0.94139400  0.24406500  1
  C  98  1  0.95882000  0.81966200  0.21888300  1
  C  99  1  0.93561100  0.89951700  0.21758400  1
  C  100  1  0.94636150  0.96055250  0.23000400  1
  C  103  1  0.98171100  0.00062100  0.25685000  1
  C  104  1  0.96575550  0.95703650  0.27115600  1
  C  105  1  0.97200100  0.01169300  0.28408500  1
  C  107  1  0.01109150  0.16356050  0.26871000  1
  C  108  1  0.00134000  0.10311200  0.25608700  1
  C  115  1  0.02828350  0.26560250  0.26753500  1
  C  116  1  0.90276200  0.91873500  0.20386200  1
  C  117  1  0.94765050  0.96151050  0.29809300  1
  C  118  1  0.00986500  0.71547600  0.23433300  1
  C  123  1  0.96678900  0.02467300  0.57765700  1
  C  124  1  0.86414800  0.00449700  0.57843700  1
  C  125  1  0.80919450  0.01242550  0.56626700  1
  C  126  1  0.86109300  0.04078800  0.55246700  1
  C  127  1  0.96409350  0.06377250  0.55117700  1
  C  128  1  0.01423100  0.05280100  0.56359600  1
  C  131  1  0.01879200  0.01735800  0.59044300  1
  C  133  1  0.03911550  0.02627950  0.61768600  1
  C  134  1  0.11659000  0.99973800  0.61634400  1
  C  135  1  0.15209750  0.98755050  0.60229800  1
  C  136  1  0.10161150  0.99766050  0.58967700  1
  C  143  1  0.23695100  0.97036900  0.60112200  1
  C  144  1  0.01621650  0.09609750  0.53744700  1
  C  145  1  0.01298300  0.05014400  0.63171000  1
  C  146  1  0.70585400  0.98999000  0.56790300  1
  C  151  1  0.03713350  0.97439150  0.42069900  1
  C  152  1  0.01705200  0.87169200  0.42008700  1
  C  153  1  0.02780550  0.81844150  0.43225700  1
  C  154  1  0.05864950  0.87189650  0.44591600  1
  C  155  1  0.08197650  0.97501450  0.44700800  1
  C  156  1  0.06883850  0.02373850  0.43460000  1
  C  158  1  0.02523600  0.02408900  0.40796600  1
  C  159  1  0.03344550  0.99245450  0.39352400  1
  C  160  1  0.02038000  0.03721700  0.38067100  1
  C  161  1  0.00712150  0.10791750  0.40887600  1
  C  168  1  0.97780200  0.24250800  0.39769000  1
  C  169  1  0.11434950  0.02786350  0.46066000  1
  C  170  1  0.03318050  0.00489950  0.36640300  1
  C  171  1  0.00520100  0.71498500  0.43076500  1
  C  176  1  0.02615050  0.06412250  0.08748500  1
  C  177  1  0.12888600  0.14664900  0.08689000  1
  C  178  1  0.18203200  0.21072100  0.09905600  1
  C  179  1  0.12843250  0.18820450  0.11270300  1
  C  180  1  0.02525900  0.10847800  0.11378900  1
  C  181  1  0.97670000  0.04651800  0.10137700  1
  C  184  1  0.97649600  0.00253200  0.07475200  1
  C  185  1  0.00809750  0.04241250  0.06031100  1
  C  186  1  0.96352850  0.98454550  0.04745500  1
  C  187  1  0.88453950  0.88136850  0.04903500  1
  C  188  1  0.84468800  0.83750300  0.06314700  1
  C  189  1  0.89268650  0.90057050  0.07565800  1
  C  196  1  0.75829100  0.73656400  0.06445900  1
  C  197  1  0.97206250  0.08841350  0.12741500  1
  C  198  1  0.28551850  0.29150650  0.09758000  1
  C  203  1  0.93475200  0.96220100  0.75425700  1
  C  204  1  0.85217000  0.98233100  0.75365700  1
  C  205  1  0.78816300  0.97147000  0.76582900  1
  C  206  1  0.81068550  0.94038850  0.77947500  1
  C  207  1  0.89042000  0.91695100  0.78056100  1
  C  208  1  0.95230350  0.93026250  0.76814400  1
  C  212  1  0.95647250  0.96599450  0.72708400  1
  C  213  1  0.01426400  0.97909200  0.71422500  1
  C  214  1  0.11742150  0.00320150  0.71580000  1
  C  215  1  0.16133650  0.00730350  0.72991100  1
  C  216  1  0.09830950  0.99230750  0.74242300  1
  C  223  1  0.26224900  0.02177000  0.73122300  1
  C  224  1  0.91050750  0.88384150  0.79418500  1
  C  225  1  0.96906900  0.96621200  0.69996000  1
  C  226  1  0.70736200  0.99416600  0.76435100  1
  C  231  1  0.13222500  0.10777400  0.98366800  1
  C  232  1  0.17827850  0.06234050  0.99220400  1
  C  233  1  0.17223800  0.06198500  0.00797600  1
  C  234  1  0.12484100  0.11221600  0.01499600  1
  C  235  1  0.09196300  0.16812600  0.00632600  1
  C  236  1  0.09430650  0.16481450  0.99088100  1
  C  237  1  0.21005900  0.00538100  0.01559500  1
  C  239  1  0.26148800  0.96365800  0.99325100  1
  C  250  1  0.97368650  0.86675450  0.31689400  1
  C  251  1  0.88232550  0.82045650  0.32546200  1
  C  252  1  0.88826150  0.82719150  0.34122900  1
  C  253  1  0.07476350  0.90855250  0.33951900  1
  C  254  1  0.06884200  0.90552700  0.32408000  1
  C  255  1  0.79390150  0.78914250  0.34887300  1
  C  257  1  0.70039700  0.73621800  0.32656800  1
  C  268  1  0.89155400  0.02477100  0.65044600  1
  C  269  1  0.93704850  0.11627650  0.65897600  1
  C  270  1  0.93722950  0.11056450  0.67474700  1
  C  271  1  0.88678800  0.01292600  0.68176400  1
  C  272  1  0.83079750  0.92416950  0.67309000  1
  C  273  1  0.83414400  0.92981100  0.65764500  1
  C  276  1  0.03598150  0.29814650  0.66002600  1
  C  287  1  0.40281900  0.43818200  0.91646600  1
  C  288  1  0.41003650  0.52649350  0.90946900  1
  C  289  1  0.50035700  0.62517100  0.91118200  1
  C  290  1  0.58255300  0.63680700  0.92040300  1
  C  291  1  0.56936650  0.54899350  0.92799000  1
  C  292  1  0.48142900  0.45327800  0.92635400  1
  C  293  1  0.49786750  0.70908750  0.90442400  1
  C  295  1  0.33012850  0.60227950  0.89562900  1
  C  306  1  0.03398800  0.59558900  0.24966500  1
  C  307  1  0.11510550  0.58836050  0.24267700  1
  C  308  1  0.12338500  0.49798700  0.24438600  1
  C  309  1  0.05278550  0.41579050  0.25360400  1
  C  310  1  0.97809450  0.42896050  0.26117300  1
  C  311  1  0.97032850  0.51689350  0.25953300  1
  C  312  1  0.20991300  0.50053700  0.23765900  1
  C  314  1  0.27089450  0.66829250  0.22886000  1
  C  325  1  0.56165650  0.96547750  0.58323300  1
  C  326  1  0.47340950  0.88449650  0.57620600  1
  C  327  1  0.37469950  0.87604450  0.57792900  1
  C  328  1  0.36293150  0.94634150  0.58719100  1
  C  329  1  0.45067200  0.02082300  0.59480700  1
  C  330  1  0.54643450  0.02872550  0.59315700  1
  C  331  1  0.29084250  0.78980750  0.57113000  1
  C  333  1  0.39776300  0.72911700  0.56229000  1
  C  344  1  0.97841900  0.56945100  0.41563800  1
  C  345  1  0.89810800  0.48194900  0.42289800  1
  C  346  1  0.88899950  0.38291950  0.42123900  1
  C  347  1  0.95802400  0.37018400  0.41182500  1
  C  348  1  0.03212450  0.45726850  0.40405100  1
  C  349  1  0.04049600  0.55327000  0.40561200  1
  C  350  1  0.80323950  0.29977650  0.42824100  1
  C  352  1  0.74441900  0.40795400  0.43719700  1
  C  363  1  0.43113150  0.41033050  0.08243400  1
  C  364  1  0.51863300  0.41763200  0.08970900  1
  C  365  1  0.61764400  0.50758300  0.08804600  1
  C  366  1  0.63041250  0.58918050  0.07859500  1
  C  367  1  0.54341300  0.57599200  0.07077700  1
  C  368  1  0.44734750  0.48851850  0.07239000  1
  C  369  1  0.70078400  0.50509000  0.09507200  1
  C  371  1  0.59265750  0.33807550  0.10403100  1
  C  382  1  0.58862550  0.02113050  0.74919600  1
  C  383  1  0.58130650  0.10130350  0.75647600  1
  C  384  1  0.49139600  0.11041700  0.75479900  1
  C  385  1  0.40979700  0.04158200  0.74534800  1
  C  386  1  0.42303050  0.96779950  0.73752800  1
  C  387  1  0.51057900  0.95930700  0.73912600  1
  C  388  1  0.49383900  0.19598600  0.76183900  1
  C  390  1  0.66073100  0.25473900  0.77083100  1
  C  403  1  0.95629600  0.00446100  0.15019800  1
  C  404  1  0.04133600  0.00833400  0.15764800  1
  C  405  1  0.04509200  0.01119100  0.17344800  1
  C  406  1  0.96414900  0.01123600  0.18156800  1
  C  407  1  0.88135650  0.00836650  0.17391600  1
  C  408  1  0.87733150  0.00480150  0.15845600  1
  C  409  1  0.13087500  0.01217500  0.18011100  1
  C  411  1  0.20156700  0.01275200  0.15684300  1
  C  422  1  0.04383400  0.03847800  0.48370500  1
  C  423  1  0.96294100  0.95391200  0.49127500  1
  C  424  1  0.96266900  0.95108800  0.50708000  1
  C  425  1  0.04402650  0.03244550  0.51508900  1
  C  426  1  0.12367350  0.11474850  0.50732400  1
  C  427  1  0.12347250  0.11790250  0.49186000  1
  C  428  1  0.87806500  0.86576500  0.51386100  1
  C  430  1  0.80709100  0.79361300  0.49069400  1
  H  6  1  0.99691300  0.81407000  0.81997700  1
  H  31  1  0.99114800  0.81492000  0.84639400  1
  H  34  1  0.98844650  0.11146950  0.80598000  1
  H  52  1  0.98405350  0.83061350  0.41073800  1
  H  56  1  0.98527800  0.24621900  0.81767600  1
  H  64  1  0.98428250  0.21585450  0.64149900  1
  H  65  1  0.98505300  0.03352400  0.46369100  1
  H  75  1  0.14835700  0.17505700  0.92121700  1
  H  82  1  0.86255400  0.87657400  0.91272500  1
  H  83  1  0.19840200  0.21412900  0.86804400  1
  H  84  1  0.80050250  0.88935850  0.96489200  1
  H  85  1  0.98323850  0.91024350  0.89566300  1
  H  86  1  0.11763250  0.05996750  0.93904200  1
  H  101  1  0.02536850  0.85010450  0.25442400  1
  H  110  1  0.01263400  0.13583300  0.24593600  1
  H  111  1  0.01495200  0.80048000  0.20125800  1
  H  112  1  0.08632500  0.19741700  0.29816200  1
  H  113  1  0.92569300  0.01522200  0.22887000  1
  H  114  1  0.94062950  0.88061950  0.27223600  1
  H  129  1  0.82476650  0.97422050  0.58800500  1
  H  138  1  0.12312400  0.98649900  0.57952500  1
  H  139  1  0.78565700  0.98478100  0.53484600  1
  H  140  1  0.10998650  0.91113550  0.63167300  1
  H  141  1  0.08954750  0.07340650  0.56246300  1
  H  142  1  0.93974750  0.05817050  0.60584700  1
  H  163  1  0.00159400  0.13278100  0.41908000  1
  H  164  1  0.00559050  0.79867450  0.46376900  1
  H  165  1  0.89871950  0.10644950  0.36819300  1
  H  166  1  0.08901050  0.09895250  0.43567200  1
  H  167  1  0.05698700  0.94014600  0.39217400  1
  H  182  1  0.16997800  0.15480900  0.07753800  1
  H  191  1  0.86784550  0.87016850  0.08586300  1
  H  192  1  0.20143050  0.20821250  0.13057500  1
  H  193  1  0.89455250  0.79364250  0.03499100  1
  H  194  1  0.90136850  0.99172750  0.10242100  1
  H  195  1  0.06050500  0.11824200  0.05896500  1
  H  209  1  0.84413100  0.01544600  0.74431800  1
  H  218  1  0.12870550  0.99781550  0.75262800  1
  H  219  1  0.79077150  0.99343550  0.79735000  1
  H  220  1  0.20504050  0.10071850  0.70172400  1
  H  221  1  0.00722000  0.90989500  0.76918900  1
  H  222  1  0.88060850  0.94241850  0.72574100  1
  H  240  1  0.05867050  0.19591750  0.98496800  1
  H  241  1  0.05545500  0.20236700  0.01118500  1
  H  244  1  0.29492250  0.92774150  0.98802800  1
  H  245  1  0.23096000  0.01545100  0.97472800  1
  H  247  1  0.11461350  0.13925450  0.96259800  1
  H  249  1  0.14809250  0.11289750  0.03688700  1
  H  258  1  0.13540950  0.94086650  0.31812500  1
  H  259  1  0.14553800  0.94522900  0.34436900  1
  H  262  1  0.63094850  0.70222150  0.32137000  1
  H  263  1  0.78246700  0.76654800  0.30802400  1
  H  265  1  0.02244950  0.88318850  0.29586600  1
  H  267  1  0.96383200  0.85233200  0.37008100  1
  H  277  1  0.80314200  0.86312100  0.65172300  1
  H  278  1  0.79642750  0.85341550  0.67794800  1
  H  281  1  0.07209250  0.36749850  0.65480400  1
  H  284  1  0.86020950  0.97581050  0.62936700  1
  H  286  1  0.88611300  0.03551300  0.70365500  1
  H  296  1  0.47990900  0.39205000  0.93149500  1
  H  297  1  0.62795400  0.55161500  0.93401900  1
  H  300  1  0.26739850  0.59570050  0.89028500  1
  H  301  1  0.26237800  0.45670300  0.90177200  1
  H  303  1  0.31500600  0.29132400  0.92236400  1
  H  305  1  0.69835350  0.76951250  0.91312200  1
  H  315  1  0.91081500  0.51862100  0.26470100  1
  H  316  1  0.92227800  0.37049600  0.26723800  1
  H  319  1  0.32720100  0.73108300  0.22354800  1
  H  320  1  0.19310600  0.73607600  0.23500400  1
  H  322  1  0.97498500  0.68343700  0.25556300  1
  H  324  1  0.06978900  0.30001700  0.24634300  1
  H  334  1  0.60760450  0.08833950  0.59832200  1
  H  335  1  0.44797400  0.07663100  0.60086600  1
  H  338  1  0.40434500  0.67298500  0.55694200  1
  H  339  1  0.54328250  0.80682450  0.56846000  1
  H  341  1  0.70849100  0.02451200  0.58914300  1
  H  343  1  0.23025450  0.92949150  0.57990700  1
  H  353  1  0.09955300  0.61391400  0.40027500  1
  H  354  1  0.08685400  0.45367500  0.39783600  1
  H  357  1  0.68908100  0.41524600  0.44266000  1
  H  358  1  0.82188800  0.55295700  0.43078600  1
  H  360  1  0.03671650  0.71582950  0.40944700  1
  H  362  1  0.94057650  0.23706850  0.41904600  1
  H  372  1  0.38670050  0.48671550  0.06702100  1
  H  373  1  0.54693550  0.63425450  0.06455500  1
  H  376  1  0.58540250  0.27551350  0.10951000  1
  H  377  1  0.44764800  0.27047100  0.09762400  1
  H  379  1  0.28496650  0.32219850  0.07623300  1
  H  381  1  0.76344500  0.70492000  0.08582500  1
  H  391  1  0.51223500  0.90032000  0.73377900  1
  H  392  1  0.36477500  0.91304900  0.73130800  1
  H  395  1  0.72315750  0.30982550  0.77636100  1
  H  396  1  0.72836600  0.17734600  0.76443100  1
  H  398  1  0.67665600  0.96276500  0.74303900  1
  H  400  1  0.29397400  0.05869100  0.75258700  1
  H  401  1  0.04877000  0.00938200  0.79693300  1
  H  402  1  0.93496300  0.95546500  0.86852100  1
  H  412  1  0.81586400  0.00194700  0.15320800  1
  H  413  1  0.82244450  0.00765650  0.17962700  1
  H  416  1  0.25978100  0.01386100  0.15091100  1
  H  417  1  0.12182950  0.01061650  0.13921400  1
  H  419  1  0.95937600  0.95017500  0.13016900  1
  H  421  1  0.01902750  0.06383450  0.20176900  1
  H  431  1  0.18183850  0.17912250  0.48653700  1
  H  432  1  0.18219950  0.17391350  0.51295200  1
  H  435  1  0.74977750  0.73501350  0.48484400  1
  H  436  1  0.88409250  0.87212150  0.47295600  1
  H  440  1  0.04215400  0.97812700  0.53536400  1
  N  7  1  0.99690650  0.94760150  0.80187100  1
  N  33  1  0.98866600  0.11057300  0.81671700  1
  N  35  1  0.98958550  0.95112350  0.86343700  1
  N  54  1  0.98610500  0.19267900  0.83848900  1
  N  63  1  0.98552800  0.21005300  0.65220500  1
  N  238  1  0.25338000  0.95913000  0.00810900  1
  N  243  1  0.22381150  0.01409150  0.98543400  1
  N  246  1  0.10657150  0.08397550  0.96906700  1
  N  248  1  0.09528500  0.09648200  0.02951100  1
  N  256  1  0.70419050  0.74498550  0.34141900  1
  N  261  1  0.78841700  0.77412800  0.31872400  1
  N  264  1  0.97483100  0.89122600  0.30224300  1
  N  266  1  0.99978950  0.90538450  0.36271400  1
  N  275  1  0.04036300  0.29454100  0.67488500  1
  N  283  1  0.91547100  0.02290600  0.63585000  1
  N  285  1  0.90243850  0.99904150  0.69628000  1
  N  294  1  0.41420900  0.69521500  0.89700000  1
  N  299  1  0.32767000  0.52008800  0.90205500  1
  N  302  1  0.32575600  0.33900400  0.91436800  1
  N  304  1  0.67458150  0.72631350  0.92176400  1
  N  313  1  0.27976400  0.58422900  0.23024800  1
  N  318  1  0.19115450  0.67075850  0.23528000  1
  N  321  1  0.01195850  0.67271550  0.24757200  1
  N  323  1  0.05037000  0.32382300  0.25498400  1
  N  332  1  0.30479250  0.72015150  0.56368100  1
  N  337  1  0.47986250  0.80865650  0.56876300  1
  N  340  1  0.66087250  0.98769150  0.58113600  1
  N  342  1  0.27338350  0.94877950  0.58855600  1
  N  351  1  0.73478450  0.31467650  0.43585200  1
  N  356  1  0.82342850  0.48938150  0.43051700  1
  N  359  1  0.00077550  0.66883050  0.41755000  1
  N  361  1  0.95946800  0.28019600  0.41039500  1
  N  370  1  0.68591450  0.42173650  0.10268100  1
  N  375  1  0.51120400  0.33560000  0.09735100  1
  N  378  1  0.33172700  0.33339000  0.08437800  1
  N  380  1  0.72039300  0.68063000  0.07716800  1
  N  389  1  0.57704200  0.26429600  0.76949200  1
  N  394  1  0.66329250  0.17587750  0.76412700  1
  N  397  1  0.66546550  0.99857250  0.75115400  1
  N  399  1  0.31830450  0.04003250  0.74392400  1
  N  410  1  0.20541000  0.01303700  0.17172200  1
  N  415  1  0.12072150  0.01041150  0.14995200  1
  N  418  1  0.94944750  0.00204150  0.13510500  1
  N  420  1  0.96018700  0.00917700  0.19666800  1
  N  429  1  0.80405700  0.79073200  0.50557800  1
  N  434  1  0.88535750  0.87400250  0.48369200  1
  N  437  1  0.04730800  0.04432800  0.46860600  1
  N  439  1  0.04681000  0.03692000  0.53018200  1
  O  18  1  0.99804000  0.92175400  0.68944200  1
  O  32  1  0.98724150  0.13374250  0.86160300  1
  O  76  1  0.23555900  0.18598600  0.87340100  1
  O  81  1  0.82869850  0.84491550  0.96235000  1
  O  91  1  0.68280150  0.71604550  0.94697700  1
  O  92  1  0.00972700  0.90827000  0.97454700  1
  O  93  1  0.33093950  0.34909350  0.88887200  1
  O  94  1  0.16178950  0.99138450  0.86334600  1
  O  102  1  0.94956900  0.76318700  0.20659200  1
  O  109  1  0.01378650  0.16929950  0.29556300  1
  O  119  1  0.03177500  0.31557400  0.28018500  1
  O  120  1  0.89581050  0.98805750  0.30769100  1
  O  121  1  0.01705850  0.66766950  0.22207500  1
  O  122  1  0.82868150  0.83679350  0.19651400  1
  O  130  1  0.81402100  0.05021800  0.54017000  1
  O  137  1  0.15447800  0.98379800  0.62914900  1
  O  147  1  0.28340550  0.96684250  0.61377400  1
  O  148  1  0.09108200  0.10134700  0.64137300  1
  O  149  1  0.65099550  0.98317650  0.55564400  1
  O  150  1  0.00849500  0.17026200  0.53009900  1
  O  157  1  0.07021550  0.82648950  0.45824300  1
  O  162  1  0.97290750  0.15045150  0.36968900  1
  O  172  1  0.97338950  0.28899850  0.38509300  1
  O  173  1  0.07728200  0.07818900  0.35586000  1
  O  174  1  0.00057800  0.66154000  0.44308200  1
  O  175  1  0.19327600  0.02627700  0.46755500  1
  O  183  1  0.17387500  0.24518500  0.12502800  1
  O  190  1  0.85051050  0.82379850  0.03647000  1
  O  199  1  0.71176500  0.68576000  0.05185800  1
  O  200  1  0.92243500  0.00062600  0.02266600  1
  O  201  1  0.33892150  0.34048550  0.10989200  1
  O  202  1  0.97538150  0.16942850  0.13442000  1
  O  210  1  0.75375050  0.92890650  0.79180400  1
  O  217  1  0.17490850  0.02654550  0.70322800  1
  O  227  1  0.31318900  0.02640700  0.71862000  1
  O  229  1  0.65856400  0.99877200  0.77667200  1
  O  230  1  0.82950500  0.80617100  0.80119600  1
  O  242  1  0.20683650  0.99341250  0.03041100  1
  O  260  1  0.78534500  0.79301500  0.36368400  1
  O  279  1  0.00573150  0.21369250  0.69718800  1
  O  298  1  0.57081100  0.80836900  0.90594600  1
  O  317  1  0.23624150  0.42759050  0.23918900  1
  O  336  1  0.19150100  0.76311300  0.57270800  1
  O  355  1  0.77609450  0.20022250  0.42681100  1
  O  374  1  0.80037100  0.57728300  0.09358900  1
  O  393  1  0.42140300  0.22309900  0.76041100  1
  O  414  1  0.14534000  0.01192900  0.19483800  1
  O  433  1  0.86378300  0.85227100  0.52860600  1
