# generated using pymatgen
data_CuH7C15O4
_symmetry_space_group_name_H-M   'P 1'
_cell_length_a   18.67724402
_cell_length_b   18.70038000
_cell_length_c   28.18487930
_cell_angle_alpha   70.73216442
_cell_angle_beta   70.63720326
_cell_angle_gamma   60.03479211
_symmetry_Int_Tables_number   1
_chemical_formula_structural   CuH7C15O4
_chemical_formula_sum   'Cu12 H84 C180 O48'
_cell_volume   7881.50549590
_cell_formula_units_Z   12
loop_
 _symmetry_equiv_pos_site_id
 _symmetry_equiv_pos_as_xyz
  1  'x, y, z'
loop_
 _atom_site_type_symbol
 _atom_site_label
 _atom_site_symmetry_multiplicity
 _atom_site_fract_x
 _atom_site_fract_y
 _atom_site_fract_z
 _atom_site_occupancy
  Cu  Cu1  1  0.77572000  0.79356000  0.21175000  1.0
  Cu  Cu2  1  0.21900000  0.77565000  0.21174000  1.0
  Cu  Cu3  1  0.79365000  0.21901000  0.21178000  1.0
  Cu  Cu4  1  0.72417000  0.28116000  0.28836000  1.0
  Cu  Cu5  1  0.28099000  0.70652000  0.28831000  1.0
  Cu  Cu6  1  0.70623000  0.72448000  0.28833000  1.0
  Cu  Cu7  1  0.22428000  0.20643000  0.78825000  1.0
  Cu  Cu8  1  0.78099000  0.22435000  0.78826000  1.0
  Cu  Cu9  1  0.20635000  0.78098000  0.78822000  1.0
  Cu  Cu10  1  0.27583000  0.71883000  0.71164000  1.0
  Cu  Cu11  1  0.71901000  0.29347000  0.71169000  1.0
  Cu  Cu12  1  0.29376000  0.27552000  0.71167000  1.0
  H  H1  1  0.91147000  0.37797000  0.11483000  1.0
  H  H2  1  0.90000000  0.61534000  0.11223000  1.0
  H  H3  1  0.78368000  0.49041000  0.24827000  1.0
  H  H4  1  0.05885000  0.38408000  0.11858000  1.0
  H  H5  1  0.79482000  0.61733000  0.06473000  1.0
  H  H6  1  0.20802000  0.28271000  0.09607000  1.0
  H  H7  1  0.71919000  0.71877000  0.99585000  1.0
  H  H8  1  0.59574000  0.91155000  0.11492000  1.0
  H  H9  1  0.37212000  0.90015000  0.11217000  1.0
  H  H10  1  0.47764000  0.78381000  0.24811000  1.0
  H  H11  1  0.43834000  0.05923000  0.11868000  1.0
  H  H12  1  0.52304000  0.79525000  0.06455000  1.0
  H  H13  1  0.41310000  0.20818000  0.09626000  1.0
  H  H14  1  0.56624000  0.71941000  0.99562000  1.0
  H  H15  1  0.37817000  0.59543000  0.11496000  1.0
  H  H16  1  0.61567000  0.37211000  0.11208000  1.0
  H  H17  1  0.49044000  0.47758000  0.24824000  1.0
  H  H18  1  0.38401000  0.43837000  0.11863000  1.0
  H  H19  1  0.61736000  0.52303000  0.06466000  1.0
  H  H20  1  0.28248000  0.41313000  0.09618000  1.0
  H  H21  1  0.71890000  0.56628000  0.99574000  1.0
  H  H22  1  0.58849000  0.90459000  0.38507000  1.0
  H  H23  1  0.59989000  0.12785000  0.38788000  1.0
  H  H24  1  0.71626000  0.02235000  0.25173000  1.0
  H  H25  1  0.44105000  0.06163000  0.38137000  1.0
  H  H26  1  0.70510000  0.97696000  0.43533000  1.0
  H  H27  1  0.29182000  0.08684000  0.40384000  1.0
  H  H28  1  0.78095000  0.93372000  0.50424000  1.0
  H  H29  1  0.90428000  0.12206000  0.38518000  1.0
  H  H30  1  0.12759000  0.88465000  0.38778000  1.0
  H  H31  1  0.02240000  0.00960000  0.25175000  1.0
  H  H32  1  0.06152000  0.11592000  0.38142000  1.0
  H  H33  1  0.97689000  0.88268000  0.43529000  1.0
  H  H34  1  0.08679000  0.21730000  0.40391000  1.0
  H  H35  1  0.93382000  0.78124000  0.50417000  1.0
  H  H36  1  0.12219000  0.58847000  0.38505000  1.0
  H  H37  1  0.88442000  0.59986000  0.38781000  1.0
  H  H38  1  0.00965000  0.71615000  0.25186000  1.0
  H  H39  1  0.11626000  0.44075000  0.38132000  1.0
  H  H40  1  0.88283000  0.70474000  0.43546000  1.0
  H  H41  1  0.21757000  0.29180000  0.40373000  1.0
  H  H42  1  0.78125000  0.78060000  0.50439000  1.0
  H  H43  1  0.08852000  0.62203000  0.88517000  1.0
  H  H44  1  0.09999000  0.38466000  0.88777000  1.0
  H  H45  1  0.21632000  0.50959000  0.75172000  1.0
  H  H46  1  0.94115000  0.61591000  0.88142000  1.0
  H  H47  1  0.20518000  0.38266000  0.93527000  1.0
  H  H48  1  0.79198000  0.71728000  0.90393000  1.0
  H  H49  1  0.28080000  0.28123000  0.00415000  1.0
  H  H50  1  0.40426000  0.08844000  0.88508000  1.0
  H  H51  1  0.62788000  0.09984000  0.88783000  1.0
  H  H52  1  0.52235000  0.21619000  0.75189000  1.0
  H  H53  1  0.56166000  0.94076000  0.88132000  1.0
  H  H54  1  0.47695000  0.20475000  0.93545000  1.0
  H  H55  1  0.58690000  0.79181000  0.90374000  1.0
  H  H56  1  0.43376000  0.28058000  0.00438000  1.0
  H  H57  1  0.62182000  0.40458000  0.88503000  1.0
  H  H58  1  0.38433000  0.62788000  0.88792000  1.0
  H  H59  1  0.50956000  0.52240000  0.75176000  1.0
  H  H60  1  0.61598000  0.56163000  0.88137000  1.0
  H  H61  1  0.38263000  0.47697000  0.93534000  1.0
  H  H62  1  0.71752000  0.58686000  0.90382000  1.0
  H  H63  1  0.28110000  0.43372000  0.00425000  1.0
  H  H64  1  0.41150000  0.09541000  0.61493000  1.0
  H  H65  1  0.40010000  0.87215000  0.61212000  1.0
  H  H66  1  0.28374000  0.97764000  0.74827000  1.0
  H  H67  1  0.55894000  0.93837000  0.61863000  1.0
  H  H68  1  0.29489000  0.02304000  0.56467000  1.0
  H  H69  1  0.70817000  0.91316000  0.59616000  1.0
  H  H70  1  0.21905000  0.06627000  0.49576000  1.0
  H  H71  1  0.09572000  0.87793000  0.61482000  1.0
  H  H72  1  0.87241000  0.11534000  0.61222000  1.0
  H  H73  1  0.97759000  0.99040000  0.74825000  1.0
  H  H74  1  0.93848000  0.88407000  0.61858000  1.0
  H  H75  1  0.02310000  0.11731000  0.56471000  1.0
  H  H76  1  0.91320000  0.78270000  0.59609000  1.0
  H  H77  1  0.06617000  0.21876000  0.49583000  1.0
  H  H78  1  0.87780000  0.41153000  0.61495000  1.0
  H  H79  1  0.11558000  0.40013000  0.61219000  1.0
  H  H80  1  0.99034000  0.28385000  0.74814000  1.0
  H  H81  1  0.88374000  0.55924000  0.61868000  1.0
  H  H82  1  0.11716000  0.29526000  0.56454000  1.0
  H  H83  1  0.78243000  0.70819000  0.59627000  1.0
  H  H84  1  0.21874000  0.21940000  0.49561000  1.0
  C  C1  1  0.81870000  0.35789000  0.21029000  1.0
  C  C2  1  0.91289000  0.49625000  0.10720000  1.0
  C  C3  1  0.80628000  0.63231000  0.20790000  1.0
  C  C4  1  0.89264000  0.42866000  0.13376000  1.0
  C  C5  1  0.91391000  0.55828000  0.01349000  1.0
  C  C6  1  0.04350000  0.44140000  0.03984000  1.0
  C  C7  1  0.88615000  0.56158000  0.13221000  1.0
  C  C8  1  0.83969000  0.55953000  0.18290000  1.0
  C  C9  1  0.95806000  0.49930000  0.05256000  1.0
  C  C10  1  0.82023000  0.49158000  0.20920000  1.0
  C  C11  1  0.09042000  0.38294000  0.07859000  1.0
  C  C12  1  0.84620000  0.42639000  0.18437000  1.0
  C  C13  1  0.82724000  0.61749000  0.02480000  1.0
  C  C14  1  0.17353000  0.32674000  0.06598000  1.0
  C  C15  1  0.78497000  0.67393000  0.98635000  1.0
  C  C16  1  0.61314000  0.81881000  0.21022000  1.0
  C  C17  1  0.48341000  0.91321000  0.10720000  1.0
  C  C18  1  0.35344000  0.80640000  0.20768000  1.0
  C  C19  1  0.54482000  0.89284000  0.13378000  1.0
  C  C20  1  0.51427000  0.91405000  0.01341000  1.0
  C  C21  1  0.47519000  0.04357000  0.03991000  1.0
  C  C22  1  0.41981000  0.88638000  0.13214000  1.0
  C  C23  1  0.41776000  0.83985000  0.18276000  1.0
  C  C24  1  0.48992000  0.95827000  0.05257000  1.0
  C  C25  1  0.47893000  0.82038000  0.20909000  1.0
  C  C26  1  0.44794000  0.09061000  0.07870000  1.0
  C  C27  1  0.54297000  0.84638000  0.18432000  1.0
  C  C28  1  0.53043000  0.82750000  0.02464000  1.0
  C  C29  1  0.43366000  0.17361000  0.06614000  1.0
  C  C30  1  0.55479000  0.78510000  0.98616000  1.0
  C  C31  1  0.35808000  0.61295000  0.21038000  1.0
  C  C32  1  0.49649000  0.48328000  0.10721000  1.0
  C  C33  1  0.63237000  0.35331000  0.20785000  1.0
  C  C34  1  0.42887000  0.54462000  0.13382000  1.0
  C  C35  1  0.55838000  0.51423000  0.01344000  1.0
  C  C36  1  0.44140000  0.47515000  0.03988000  1.0
  C  C37  1  0.56186000  0.41972000  0.13214000  1.0
  C  C38  1  0.55971000  0.41764000  0.18283000  1.0
  C  C39  1  0.49946000  0.48982000  0.05256000  1.0
  C  C40  1  0.49170000  0.47881000  0.20918000  1.0
  C  C41  1  0.38286000  0.44794000  0.07865000  1.0
  C  C42  1  0.42654000  0.54282000  0.18441000  1.0
  C  C43  1  0.61760000  0.53042000  0.02472000  1.0
  C  C44  1  0.32659000  0.43368000  0.06606000  1.0
  C  C45  1  0.67407000  0.55479000  0.98625000  1.0
  C  C46  1  0.68113000  0.88709000  0.28965000  1.0
  C  C47  1  0.58700000  0.01669000  0.39279000  1.0
  C  C48  1  0.69368000  0.14661000  0.29219000  1.0
  C  C49  1  0.60727000  0.95537000  0.36619000  1.0
  C  C50  1  0.58607000  0.98575000  0.48656000  1.0
  C  C51  1  0.45644000  0.02485000  0.46012000  1.0
  C  C52  1  0.61377000  0.08021000  0.36784000  1.0
  C  C53  1  0.66025000  0.08230000  0.31714000  1.0
  C  C54  1  0.54186000  0.01017000  0.44744000  1.0
  C  C55  1  0.67969000  0.02115000  0.29080000  1.0
  C  C56  1  0.40948000  0.05206000  0.42135000  1.0
  C  C57  1  0.65369000  0.95719000  0.31559000  1.0
  C  C58  1  0.67277000  0.96957000  0.47527000  1.0
  C  C59  1  0.32635000  0.06631000  0.43395000  1.0
  C  C60  1  0.71513000  0.94521000  0.51373000  1.0
  C  C61  1  0.88704000  0.14216000  0.28966000  1.0
  C  C62  1  0.01637000  0.00377000  0.39280000  1.0
  C  C63  1  0.14645000  0.86766000  0.29216000  1.0
  C  C64  1  0.95509000  0.07135000  0.36625000  1.0
  C  C65  1  0.98569000  0.94171000  0.48652000  1.0
  C  C66  1  0.02474000  0.05860000  0.46016000  1.0
  C  C67  1  0.07997000  0.93841000  0.36780000  1.0
  C  C68  1  0.08213000  0.94046000  0.31712000  1.0
  C  C69  1  0.00993000  0.00071000  0.44744000  1.0
  C  C70  1  0.02105000  0.00842000  0.29082000  1.0
  C  C71  1  0.05194000  0.11707000  0.42141000  1.0
  C  C72  1  0.95701000  0.07362000  0.31565000  1.0
  C  C73  1  0.96954000  0.88252000  0.47522000  1.0
  C  C74  1  0.06623000  0.17327000  0.43401000  1.0
  C  C75  1  0.94526000  0.82607000  0.51367000  1.0
  C  C76  1  0.14226000  0.68107000  0.28972000  1.0
  C  C77  1  0.00379000  0.58680000  0.39278000  1.0
  C  C78  1  0.86749000  0.69358000  0.29230000  1.0
  C  C79  1  0.07142000  0.60717000  0.36620000  1.0
  C  C80  1  0.94173000  0.58593000  0.48659000  1.0
  C  C81  1  0.05866000  0.45642000  0.46008000  1.0
  C  C82  1  0.93831000  0.61363000  0.36784000  1.0
  C  C83  1  0.94036000  0.66014000  0.31721000  1.0
  C  C84  1  0.00073000  0.54173000  0.44742000  1.0
  C  C85  1  0.00842000  0.67961000  0.29088000  1.0
  C  C86  1  0.11726000  0.40937000  0.42130000  1.0
  C  C87  1  0.07367000  0.65361000  0.31566000  1.0
  C  C88  1  0.88256000  0.67249000  0.47537000  1.0
  C  C89  1  0.17343000  0.32639000  0.43385000  1.0
  C  C90  1  0.82603000  0.71490000  0.51385000  1.0
  C  C91  1  0.18129000  0.64211000  0.78971000  1.0
  C  C92  1  0.08710000  0.50375000  0.89280000  1.0
  C  C93  1  0.19371000  0.36769000  0.79210000  1.0
  C  C94  1  0.10736000  0.57133000  0.86624000  1.0
  C  C95  1  0.08609000  0.44171000  0.98651000  1.0
  C  C96  1  0.95649000  0.55860000  0.96016000  1.0
  C  C97  1  0.11384000  0.43841000  0.86779000  1.0
  C  C98  1  0.16030000  0.44047000  0.81710000  1.0
  C  C99  1  0.04194000  0.50069000  0.94744000  1.0
  C  C100  1  0.17977000  0.50841000  0.79080000  1.0
  C  C101  1  0.90957000  0.61706000  0.92141000  1.0
  C  C102  1  0.15380000  0.57360000  0.81563000  1.0
  C  C103  1  0.17275000  0.38251000  0.97520000  1.0
  C  C104  1  0.82647000  0.67325000  0.93402000  1.0
  C  C105  1  0.21503000  0.32606000  0.01365000  1.0
  C  C106  1  0.38685000  0.18119000  0.78978000  1.0
  C  C107  1  0.51658000  0.08679000  0.89280000  1.0
  C  C108  1  0.64656000  0.19359000  0.79232000  1.0
  C  C109  1  0.45518000  0.10715000  0.86622000  1.0
  C  C110  1  0.48573000  0.08594000  0.98659000  1.0
  C  C111  1  0.52481000  0.95642000  0.96009000  1.0
  C  C112  1  0.58018000  0.11362000  0.86786000  1.0
  C  C113  1  0.58223000  0.16015000  0.81724000  1.0
  C  C114  1  0.51008000  0.04172000  0.94743000  1.0
  C  C115  1  0.52106000  0.17962000  0.79091000  1.0
  C  C116  1  0.55206000  0.90938000  0.92130000  1.0
  C  C117  1  0.45703000  0.15361000  0.81568000  1.0
  C  C118  1  0.46957000  0.17249000  0.97536000  1.0
  C  C119  1  0.56633000  0.82639000  0.93386000  1.0
  C  C120  1  0.44521000  0.21489000  0.01384000  1.0
  C  C121  1  0.64192000  0.38704000  0.78962000  1.0
  C  C122  1  0.50351000  0.51671000  0.89279000  1.0
  C  C123  1  0.36762000  0.64669000  0.79215000  1.0
  C  C124  1  0.57113000  0.45537000  0.86618000  1.0
  C  C125  1  0.44162000  0.48576000  0.98656000  1.0
  C  C126  1  0.55860000  0.52484000  0.96012000  1.0
  C  C127  1  0.43814000  0.58026000  0.86786000  1.0
  C  C128  1  0.44029000  0.58235000  0.81717000  1.0
  C  C129  1  0.50054000  0.51018000  0.94743000  1.0
  C  C130  1  0.50830000  0.52118000  0.79082000  1.0
  C  C131  1  0.61714000  0.55205000  0.92135000  1.0
  C  C132  1  0.57345000  0.45718000  0.81559000  1.0
  C  C133  1  0.38240000  0.46957000  0.97528000  1.0
  C  C134  1  0.67340000  0.56633000  0.93393000  1.0
  C  C135  1  0.32593000  0.44520000  0.01375000  1.0
  C  C136  1  0.31886000  0.11291000  0.71035000  1.0
  C  C137  1  0.41299000  0.98331000  0.60721000  1.0
  C  C138  1  0.30632000  0.85338000  0.70781000  1.0
  C  C139  1  0.39272000  0.04463000  0.63381000  1.0
  C  C140  1  0.41392000  0.01425000  0.51344000  1.0
  C  C141  1  0.54355000  0.97515000  0.53988000  1.0
  C  C142  1  0.38623000  0.91978000  0.63216000  1.0
  C  C143  1  0.33974000  0.91771000  0.68285000  1.0
  C  C144  1  0.45813000  0.98983000  0.55256000  1.0
  C  C145  1  0.32030000  0.97885000  0.70920000  1.0
  C  C146  1  0.59052000  0.94793000  0.57865000  1.0
  C  C147  1  0.34630000  0.04281000  0.68441000  1.0
  C  C148  1  0.32723000  0.03042000  0.52473000  1.0
  C  C149  1  0.67365000  0.93368000  0.56605000  1.0
  C  C150  1  0.28487000  0.05479000  0.48626000  1.0
  C  C151  1  0.11295000  0.85784000  0.71034000  1.0
  C  C152  1  0.98362000  0.99623000  0.60720000  1.0
  C  C153  1  0.85355000  0.13233000  0.70784000  1.0
  C  C154  1  0.04490000  0.92865000  0.63375000  1.0
  C  C155  1  0.01430000  0.05829000  0.51348000  1.0
  C  C156  1  0.97526000  0.94139000  0.53984000  1.0
  C  C157  1  0.92003000  0.06158000  0.63220000  1.0
  C  C158  1  0.91786000  0.05954000  0.68288000  1.0
  C  C159  1  0.99006000  0.99929000  0.55256000  1.0
  C  C160  1  0.97894000  0.99158000  0.70918000  1.0
  C  C161  1  0.94805000  0.88293000  0.57859000  1.0
  C  C162  1  0.04298000  0.92638000  0.68435000  1.0
  C  C163  1  0.03045000  0.11748000  0.52478000  1.0
  C  C164  1  0.93376000  0.82673000  0.56599000  1.0
  C  C165  1  0.05473000  0.17393000  0.48633000  1.0
  C  C166  1  0.85774000  0.31892000  0.71028000  1.0
  C  C167  1  0.99620000  0.41320000  0.60722000  1.0
  C  C168  1  0.13251000  0.30641000  0.70770000  1.0
  C  C169  1  0.92857000  0.39283000  0.63380000  1.0
  C  C170  1  0.05827000  0.41406000  0.51341000  1.0
  C  C171  1  0.94133000  0.54358000  0.53991000  1.0
  C  C172  1  0.06168000  0.38637000  0.63216000  1.0
  C  C173  1  0.05963000  0.33986000  0.68279000  1.0
  C  C174  1  0.99926000  0.45827000  0.55258000  1.0
  C  C175  1  0.99157000  0.32039000  0.70912000  1.0
  C  C176  1  0.88274000  0.59062000  0.57870000  1.0
  C  C177  1  0.92632000  0.34639000  0.68434000  1.0
  C  C178  1  0.11744000  0.32750000  0.52463000  1.0
  C  C179  1  0.82656000  0.67361000  0.56615000  1.0
  C  C180  1  0.17397000  0.28509000  0.48615000  1.0
  O  O1  1  0.82197000  0.69497000  0.18099000  1.0
  O  O2  1  0.77143000  0.36277000  0.25513000  1.0
  O  O3  1  0.76307000  0.62711000  0.25382000  1.0
  O  O4  1  0.84243000  0.30111000  0.18524000  1.0
  O  O5  1  0.30160000  0.82253000  0.18087000  1.0
  O  O6  1  0.61043000  0.77202000  0.25513000  1.0
  O  O7  1  0.35629000  0.76277000  0.25341000  1.0
  O  O8  1  0.67162000  0.84193000  0.18505000  1.0
  O  O9  1  0.69517000  0.30184000  0.18091000  1.0
  O  O10  1  0.36264000  0.61030000  0.25533000  1.0
  O  O11  1  0.62696000  0.35580000  0.25381000  1.0
  O  O12  1  0.30171000  0.67132000  0.18522000  1.0
  O  O13  1  0.67781000  0.19820000  0.31913000  1.0
  O  O14  1  0.72784000  0.88975000  0.24465000  1.0
  O  O15  1  0.73705000  0.14397000  0.24630000  1.0
  O  O16  1  0.65793000  0.82875000  0.31482000  1.0
  O  O17  1  0.19810000  0.80521000  0.31902000  1.0
  O  O18  1  0.88985000  0.13743000  0.24472000  1.0
  O  O19  1  0.14375000  0.87261000  0.24633000  1.0
  O  O20  1  0.82872000  0.19881000  0.31472000  1.0
  O  O21  1  0.80478000  0.67776000  0.31916000  1.0
  O  O22  1  0.13790000  0.72750000  0.24472000  1.0
  O  O23  1  0.87261000  0.73696000  0.24649000  1.0
  O  O24  1  0.19859000  0.65811000  0.31493000  1.0
  O  O25  1  0.17802000  0.30502000  0.81901000  1.0
  O  O26  1  0.22857000  0.63722000  0.74487000  1.0
  O  O27  1  0.23693000  0.37287000  0.74618000  1.0
  O  O28  1  0.15757000  0.69888000  0.81476000  1.0
  O  O29  1  0.69840000  0.17746000  0.81913000  1.0
  O  O30  1  0.38957000  0.22797000  0.74487000  1.0
  O  O31  1  0.64371000  0.23722000  0.74659000  1.0
  O  O32  1  0.32838000  0.15807000  0.81494000  1.0
  O  O33  1  0.30482000  0.69816000  0.81909000  1.0
  O  O34  1  0.63735000  0.38970000  0.74467000  1.0
  O  O35  1  0.37304000  0.64419000  0.74619000  1.0
  O  O36  1  0.69829000  0.32867000  0.81478000  1.0
  O  O37  1  0.32219000  0.80179000  0.68087000  1.0
  O  O38  1  0.27216000  0.11024000  0.75535000  1.0
  O  O39  1  0.26295000  0.85602000  0.75370000  1.0
  O  O40  1  0.34207000  0.17124000  0.68518000  1.0
  O  O41  1  0.80190000  0.19478000  0.68098000  1.0
  O  O42  1  0.11015000  0.86256000  0.75528000  1.0
  O  O43  1  0.85625000  0.12738000  0.75367000  1.0
  O  O44  1  0.17127000  0.80119000  0.68528000  1.0
  O  O45  1  0.19521000  0.32224000  0.68084000  1.0
  O  O46  1  0.86210000  0.27249000  0.75528000  1.0
  O  O47  1  0.12739000  0.26303000  0.75351000  1.0
  O  O48  1  0.80141000  0.34188000  0.68507000  1.0
