# generated using pymatgen
data_H36C63N8O9
_symmetry_space_group_name_H-M   'P 1'
_cell_length_a   9.84653333
_cell_length_b   38.87675000
_cell_length_c   38.87680000
_cell_angle_alpha   120.00012763
_cell_angle_beta   90.00000000
_cell_angle_gamma   90.00000000
_symmetry_Int_Tables_number   1
_chemical_formula_structural   H36C63N8O9
_chemical_formula_sum   'H72 C126 N16 O18'
_cell_volume   12888.24819208
_cell_formula_units_Z   2
loop_
 _symmetry_equiv_pos_site_id
 _symmetry_equiv_pos_as_xyz
  1  'x, y, z'
loop_
 _atom_site_type_symbol
 _atom_site_label
 _atom_site_symmetry_multiplicity
 _atom_site_fract_x
 _atom_site_fract_y
 _atom_site_fract_z
 _atom_site_occupancy
  C  2  1  0.98642400  0.95398100  0.97836300  1
  C  3  1  0.98123500  0.01784900  0.97743800  1
  C  4  1  0.98889100  0.01935000  0.04124600  1
  C  5  1  0.87715600  0.02185700  0.06518100  1
  C  6  1  0.88564500  0.04330400  0.10695100  1
  C  7  1  0.00431000  0.06470800  0.12686100  1
  C  8  1  0.11322000  0.06387600  0.10251700  1
  C  9  1  0.10663000  0.04119000  0.06067600  1
  C  10  1  0.09420000  0.93248100  0.95248200  1
  C  11  1  0.09583500  0.89071200  0.93102000  1
  C  12  1  0.99685400  0.86758100  0.93685200  1
  C  13  1  0.88978100  0.88937000  0.96340200  1
  C  14  1  0.88261900  0.93120700  0.98257900  1
  C  15  1  0.09911600  0.02038800  0.95814300  1
  C  16  1  0.09804900  0.04007900  0.93611300  1
  C  17  1  0.98267700  0.06136000  0.93512600  1
  C  18  1  0.86565900  0.05984600  0.95573700  1
  C  19  1  0.86434900  0.03815600  0.97602700  1
  C  33  1  0.94570900  0.54372900  0.80414700  1
  C  34  1  0.98090100  0.60898400  0.80677300  1
  C  35  1  0.00271600  0.54307400  0.74330900  1
  C  36  1  0.09921600  0.51194700  0.72894500  1
  C  37  1  0.09258500  0.47991800  0.68964200  1
  C  38  1  0.99450900  0.47868000  0.66226500  1
  C  39  1  0.91169600  0.51281000  0.67544800  1
  C  40  1  0.91207200  0.54349300  0.71535300  1
  C  41  1  0.03853500  0.54121600  0.83054600  1
  C  42  1  0.02811500  0.51117300  0.84051600  1
  C  43  1  0.92929700  0.48077400  0.82261200  1
  C  44  1  0.83503900  0.48376400  0.79664300  1
  C  45  1  0.83930600  0.51552200  0.78896600  1
  C  46  1  0.08377900  0.62991500  0.83492500  1
  C  47  1  0.08546600  0.67172000  0.85695900  1
  C  48  1  0.99377700  0.69488800  0.84883900  1
  C  49  1  0.89003500  0.67374700  0.82074200  1
  C  50  1  0.88120700  0.63197100  0.80128800  1
  C  64  1  0.95771200  0.25170600  0.44942800  1
  C  65  1  0.99417400  0.18964800  0.38433500  1
  C  66  1  0.01296300  0.19100600  0.44955700  1
  C  67  1  0.10640700  0.20773400  0.48145500  1
  C  68  1  0.09580200  0.19996400  0.51307500  1
  C  69  1  0.99716100  0.17331500  0.51307400  1
  C  70  1  0.91747700  0.15250800  0.47818900  1
  C  71  1  0.92188200  0.16208200  0.44772300  1
  C  72  1  0.04882400  0.28059900  0.45115000  1
  C  73  1  0.03914300  0.32060000  0.48143700  1
  C  74  1  0.94221400  0.33297500  0.51235800  1
  C  75  1  0.84924900  0.30394000  0.50983200  1
  C  76  1  0.85277400  0.26455700  0.47805700  1
  C  77  1  0.10729000  0.19323300  0.36401600  1
  C  78  1  0.11082400  0.17366700  0.32218300  1
  C  79  1  0.00588500  0.14739300  0.29879100  1
  C  80  1  0.89180200  0.14433300  0.31938400  1
  C  81  1  0.88503900  0.16559100  0.36124400  1
  C  95  1  0.93859800  0.18887000  0.74041000  1
  C  96  1  0.96875200  0.18667100  0.80317400  1
  C  97  1  0.99253800  0.24987900  0.80111900  1
  C  98  1  0.08800300  0.26460300  0.78448700  1
  C  99  1  0.07990000  0.30400600  0.79222200  1
  C  100  1  0.98235300  0.33113300  0.81890700  1
  C  101  1  0.90101200  0.31747600  0.83976600  1
  C  102  1  0.90241300  0.27739200  0.83006100  1
  C  103  1  0.03134500  0.16153300  0.71228900  1
  C  104  1  0.02567700  0.15151400  0.67213500  1
  C  105  1  0.93121500  0.16984500  0.65883100  1
  C  106  1  0.83673500  0.19656100  0.68710900  1
  C  107  1  0.83619900  0.20450500  0.72661700  1
  C  108  1  0.08169800  0.16331800  0.80105200  1
  C  109  1  0.08343500  0.14237200  0.82196100  1
  C  110  1  0.97682800  0.14626300  0.84818200  1
  C  111  1  0.86248000  0.16906000  0.84951700  1
  C  112  1  0.85755500  0.18825400  0.82688800  1
  C  125  1  0.00231900  0.82437900  0.91576500  1
  C  126  1  0.12511500  0.80194000  0.90398900  1
  C  127  1  0.12672000  0.75964200  0.87904700  1
  C  128  1  0.00211600  0.73781300  0.86940600  1
  C  129  1  0.88063100  0.76019600  0.88285200  1
  C  130  1  0.88084200  0.80191600  0.90411300  1
  C  132  1  0.37115000  0.76201300  0.87653500  1
  C  133  1  0.36992100  0.80279500  0.90467200  1
  C  139  1  0.48653100  0.82564000  0.91741500  1
  C  143  1  0.01190600  0.08583000  0.16979900  1
  C  144  1  0.12700500  0.08457100  0.19128000  1
  C  145  1  0.12801700  0.10336400  0.23371200  1
  C  146  1  0.01246700  0.12572000  0.25596900  1
  C  147  1  0.89941700  0.12746000  0.23437600  1
  C  148  1  0.89874900  0.10785800  0.19264000  1
  C  150  1  0.35493200  0.07855700  0.23031200  1
  C  151  1  0.35577300  0.06130200  0.18869900  1
  C  157  1  0.46815300  0.04206400  0.16541300  1
  C  161  1  0.98541100  0.08385400  0.91463900  1
  C  162  1  0.09826100  0.10731900  0.91570300  1
  C  163  1  0.09779500  0.12950700  0.89541800  1
  C  164  1  0.98299200  0.12725200  0.87186400  1
  C  165  1  0.87125700  0.10385600  0.87091600  1
  C  166  1  0.87203700  0.08307500  0.89191400  1
  C  168  1  0.32307100  0.15307200  0.92049500  1
  C  169  1  0.32564200  0.13015200  0.93930000  1
  C  175  1  0.43857500  0.12725900  0.95906000  1
  C  179  1  0.97586100  0.44370100  0.62369300  1
  C  180  1  0.84624100  0.42923300  0.60591000  1
  C  181  1  0.83191000  0.39483800  0.56745100  1
  C  182  1  0.94871700  0.37174800  0.54734700  1
  C  183  1  0.07684300  0.38598700  0.56554000  1
  C  184  1  0.09016600  0.42134500  0.60203300  1
  C  186  1  0.58999900  0.40523000  0.57149800  1
  C  187  1  0.60253000  0.43700300  0.61070400  1
  C  193  1  0.49191500  0.45840900  0.63339500  1
  C  197  1  0.97522200  0.16934800  0.54774300  1
  C  198  1  0.84425200  0.16589900  0.56139900  1
  C  199  1  0.82669200  0.16222000  0.59594000  1
  C  200  1  0.94137300  0.16562400  0.61991500  1
  C  201  1  0.07094300  0.16937600  0.60630700  1
  C  202  1  0.08749600  0.17022100  0.57087400  1
  C  204  1  0.58563200  0.15547100  0.58402000  1
  C  205  1  0.60123000  0.16242400  0.55200700  1
  C  211  1  0.49247100  0.16342200  0.52985000  1
  C  215  1  0.96338000  0.36987000  0.82290500  1
  C  216  1  0.83386400  0.38788400  0.82673900  1
  C  217  1  0.81951100  0.42617700  0.83038000  1
  C  218  1  0.93591700  0.44583900  0.82648500  1
  C  219  1  0.06393600  0.42749700  0.82222200  1
  C  220  1  0.07750300  0.39128100  0.82160300  1
  C  222  1  0.57818800  0.42284900  0.83819300  1
  C  223  1  0.59046600  0.38380200  0.83123200  1
  C  229  1  0.47968500  0.36159500  0.83089700  1
  H  20  1  0.17088800  0.87755500  0.91036200  1
  H  21  1  0.17267400  0.94682200  0.94804100  1
  H  22  1  0.80064100  0.94487500  0.00016900  1
  H  23  1  0.81448300  0.87499500  0.96935300  1
  H  24  1  0.78785500  0.00807700  0.05240600  1
  H  25  1  0.80352500  0.04268900  0.12276200  1
  H  26  1  0.18843600  0.00832400  0.96028000  1
  H  27  1  0.18431100  0.03870700  0.92085800  1
  H  28  1  0.77981400  0.07511300  0.95666400  1
  H  29  1  0.77799400  0.03776600  0.99044600  1
  H  30  1  0.18827400  0.04093800  0.04429500  1
  H  31  1  0.19921100  0.08010600  0.11503800  1
  H  51  1  0.10050600  0.51006300  0.85883400  1
  H  52  1  0.12176300  0.55910400  0.84038100  1
  H  53  1  0.77469400  0.51496900  0.76808600  1
  H  54  1  0.76646600  0.46150200  0.78111700  1
  H  55  1  0.16354300  0.50974000  0.74841700  1
  H  56  1  0.15388400  0.45598200  0.68229400  1
  H  57  1  0.15950100  0.61501400  0.83980500  1
  H  58  1  0.15832500  0.68512200  0.87839300  1
  H  59  1  0.81895200  0.68862100  0.81395700  1
  H  60  1  0.80093700  0.61856100  0.78279800  1
  H  61  1  0.83786400  0.56442600  0.72409900  1
  H  62  1  0.84309300  0.51467300  0.65671700  1
  H  82  1  0.11024600  0.34016400  0.48218900  1
  H  83  1  0.12937000  0.27241100  0.43218000  1
  H  84  1  0.78933600  0.24417000  0.47894100  1
  H  85  1  0.78221900  0.31057900  0.53242300  1
  H  86  1  0.17066400  0.22978700  0.48454700  1
  H  87  1  0.15493000  0.21647400  0.53756000  1
  H  88  1  0.18868000  0.21013600  0.37957900  1
  H  89  1  0.19336100  0.17805700  0.30884200  1
  H  90  1  0.81215000  0.12624500  0.30396700  1
  H  91  1  0.79958700  0.16320400  0.37479400  1
  H  92  1  0.85085200  0.14976500  0.42574100  1
  H  93  1  0.84844700  0.13168500  0.47553100  1
  H  113  1  0.09804600  0.13266600  0.65319800  1
  H  114  1  0.11033800  0.15091800  0.72123200  1
  H  115  1  0.77220400  0.22597800  0.74651600  1
  H  116  1  0.77141200  0.21237800  0.67980600  1
  H  117  1  0.15187200  0.24536100  0.76248600  1
  H  118  1  0.14019400  0.31165100  0.77567200  1
  H  119  1  0.16452000  0.16163500  0.78446800  1
  H  120  1  0.16642900  0.12523000  0.81892800  1
  H  121  1  0.78182200  0.17237300  0.86752900  1
  H  122  1  0.77239900  0.20390000  0.82827400  1
  H  123  1  0.83034700  0.26809700  0.84243300  1
  H  124  1  0.83279700  0.33597700  0.86066100  1
  H  135  1  0.78868800  0.81573400  0.91097500  1
  H  136  1  0.78842400  0.74628300  0.87736500  1
  H  138  1  0.25640000  0.71455000  0.84396300  1
  H  142  1  0.53837600  0.82310000  0.86935200  1
  H  153  1  0.81412800  0.11072700  0.17898400  1
  H  154  1  0.81540700  0.14375000  0.24901400  1
  H  156  1  0.24394800  0.10773800  0.27931600  1
  H  160  1  0.50118500  0.00394500  0.18104400  1
  H  171  1  0.78930000  0.06591300  0.88909500  1
  H  172  1  0.78798600  0.10076600  0.85381900  1
  H  174  1  0.21060700  0.17031100  0.88939200  1
  H  178  1  0.47255700  0.18155200  0.99509800  1
  H  189  1  0.18607000  0.43008800  0.61306100  1
  H  190  1  0.16344200  0.37006700  0.55286500  1
  H  192  1  0.69084600  0.36459400  0.52410800  1
  H  196  1  0.41766500  0.47585500  0.59983300  1
  H  207  1  0.18431300  0.17247000  0.56266800  1
  H  208  1  0.15617000  0.17281500  0.62281100  1
  H  210  1  0.68253900  0.14944600  0.62565400  1
  H  214  1  0.41544200  0.11290000  0.51326800  1
  H  225  1  0.17346600  0.38019700  0.81909100  1
  H  226  1  0.15036000  0.43984800  0.81840000  1
  H  228  1  0.67910500  0.46972600  0.84369200  1
  H  232  1  0.40850400  0.39575000  0.88212500  1
  N  1  1  0.98146900  0.99671400  0.99883600  1
  N  32  1  0.97712200  0.56640000  0.78525200  1
  N  63  1  0.98980600  0.21024300  0.42675100  1
  N  94  1  0.96749300  0.20795900  0.78206600  1
  N  131  1  0.25100400  0.74220200  0.86468500  1
  N  134  1  0.24706400  0.82052100  0.91604600  1
  N  149  1  0.24165200  0.09792500  0.25095800  1
  N  152  1  0.24065700  0.06468100  0.17154300  1
  N  167  1  0.20964100  0.15269300  0.90032600  1
  N  170  1  0.21198700  0.10927400  0.93640900  1
  N  185  1  0.70371600  0.38562600  0.55142900  1
  N  188  1  0.73004000  0.44744400  0.62545100  1
  N  203  1  0.69751900  0.15541500  0.60447900  1
  N  206  1  0.72978400  0.16679800  0.54228800  1
  N  221  1  0.69174000  0.44249300  0.83770200  1
  N  224  1  0.71776200  0.36876400  0.82637300  1
  O  137  1  0.48938400  0.74232600  0.86139200  1
  O  140  1  0.49579200  0.84970100  0.95285800  1
  O  141  1  0.54252000  0.83613300  0.89565800  1
  O  155  1  0.46533600  0.07671600  0.25015700  1
  O  158  1  0.48953700  0.04541900  0.13624200  1
  O  159  1  0.51861500  0.01232800  0.16410200  1
  O  173  1  0.43210500  0.17484300  0.92150700  1
  O  176  1  0.46287800  0.09541000  0.95693600  1
  O  177  1  0.49116200  0.15648400  0.98757200  1
  O  191  1  0.46696000  0.39337700  0.55377100  1
  O  194  1  0.49407700  0.47015600  0.66900900  1
  O  195  1  0.42040500  0.47841800  0.62378400  1
  O  209  1  0.46140500  0.14971200  0.59531900  1
  O  212  1  0.49695100  0.18673900  0.51744500  1
  O  213  1  0.41945200  0.13403500  0.51030300  1
  O  227  1  0.45548400  0.44085400  0.84455800  1
  O  230  1  0.48143300  0.32590400  0.80729800  1
  O  231  1  0.41003800  0.37166500  0.86091800  1
