# generated using pymatgen
data_AlH9(C5O2)3
_symmetry_space_group_name_H-M   'P 1'
_cell_length_a   17.17692327
_cell_length_b   17.17692327
_cell_length_c   17.17692327
_cell_angle_alpha   91.52717531
_cell_angle_beta   119.12223679
_cell_angle_gamma   119.12223679
_symmetry_Int_Tables_number   1
_chemical_formula_structural   AlH9(C5O2)3
_chemical_formula_sum   'Al8 H72 C120 O48'
_cell_volume   3629.76303605
_cell_formula_units_Z   8
loop_
 _symmetry_equiv_pos_site_id
 _symmetry_equiv_pos_as_xyz
  1  'x, y, z'
loop_
 _atom_site_type_symbol
 _atom_site_label
 _atom_site_symmetry_multiplicity
 _atom_site_fract_x
 _atom_site_fract_y
 _atom_site_fract_z
 _atom_site_occupancy
  Al  Al0  1  0.64268000  0.32134000  0.32134000  1
  Al  Al1  1  0.35732000  0.67866000  0.67866000  1
  Al  Al2  1  1.00000000  0.67866000  0.32134000  1
  Al  Al3  1  1.00000000  0.32134000  0.67866000  1
  Al  Al4  1  0.74616000  0.24616000  0.50000000  1
  Al  Al5  1  0.25384000  0.75384000  0.50000000  1
  Al  Al6  1  0.74616000  0.50000000  0.24616000  1
  Al  Al7  1  0.25384000  0.50000000  0.75384000  1
  C  C8  1  0.15672000  0.06046000  0.41336000  1
  C  C9  1  0.84328500  0.25664000  0.90374500  1
  C  C10  1  0.64710500  0.90374500  0.06046000  1
  C  C11  1  0.35290000  0.41336000  0.25664000  1
  C  C12  1  0.35290000  0.93954000  0.09626000  1
  C  C13  1  0.64710500  0.74336000  0.58664500  1
  C  C14  1  0.15672000  0.09626000  0.74336000  1
  C  C15  1  0.84328500  0.58664500  0.93954000  1
  C  C16  1  0.66472000  0.97746000  0.12728000  1
  C  C17  1  0.33528000  0.46256000  0.31274000  1
  C  C18  1  0.85018000  0.31274000  0.97746000  1
  C  C19  1  0.14982000  0.12728000  0.46256000  1
  C  C20  1  0.14982000  0.02254000  0.68726000  1
  C  C21  1  0.85018000  0.53744000  0.87272000  1
  C  C22  1  0.66472000  0.68726000  0.53744000  1
  C  C23  1  0.33528000  0.87272000  0.02254000  1
  C  C24  1  0.63790500  0.04043000  0.09321500  1
  C  C25  1  0.36210500  0.45531500  0.40253000  1
  C  C26  1  0.94722000  0.40253000  0.04043000  1
  C  C27  1  0.05279000  0.09321500  0.45531500  1
  C  C28  1  0.05279000  0.95957500  0.59747500  1
  C  C29  1  0.94722000  0.54469000  0.90679000  1
  C  C30  1  0.63790500  0.59747500  0.54469000  1
  C  C31  1  0.36210500  0.90679000  0.95957500  1
  C  C32  1  0.64240000  0.10334000  0.15058000  1
  C  C33  1  0.35760500  0.50818000  0.46094500  1
  C  C34  1  0.95276500  0.46094500  0.10334000  1
  C  C35  1  0.04724000  0.15058000  0.50818000  1
  C  C36  1  0.04724000  0.89666000  0.53906000  1
  C  C37  1  0.95276500  0.49182000  0.84942500  1
  C  C38  1  0.64240000  0.53906000  0.49182000  1
  C  C39  1  0.35760500  0.84942500  0.89666000  1
  C  C40  1  0.67443000  0.10449000  0.24334000  1
  C  C41  1  0.32557000  0.56891000  0.43006000  1
  C  C42  1  0.86115000  0.43006000  0.10449000  1
  C  C43  1  0.13885000  0.24334000  0.56891000  1
  C  C44  1  0.13885000  0.89551000  0.56994000  1
  C  C45  1  0.86115000  0.43109000  0.75666000  1
  C  C46  1  0.67443000  0.56994000  0.43109000  1
  C  C47  1  0.32557000  0.75666000  0.89551000  1
  C  C48  1  0.70291000  0.04293000  0.27818000  1
  C  C49  1  0.29709000  0.57527000  0.34002000  1
  C  C50  1  0.76475000  0.34002000  0.04293000  1
  C  C51  1  0.23525000  0.27818000  0.57527000  1
  C  C52  1  0.23525000  0.95707000  0.65998000  1
  C  C53  1  0.76475000  0.42473000  0.72182000  1
  C  C54  1  0.70291000  0.65998000  0.42473000  1
  C  C55  1  0.29709000  0.72182000  0.95707000  1
  C  C56  1  0.69814500  0.97981500  0.22057000  1
  C  C57  1  0.30186000  0.52243000  0.28167000  1
  C  C58  1  0.75924500  0.28167000  0.97981500  1
  C  C59  1  0.24076000  0.22057000  0.52243000  1
  C  C60  1  0.24076000  0.02019000  0.71833000  1
  C  C61  1  0.75924500  0.47757500  0.77943000  1
  C  C62  1  0.69814500  0.71833000  0.47757500  1
  C  C63  1  0.30186000  0.77943000  0.02019000  1
  C  C64  1  0.67776000  0.17042000  0.30532000  1
  C  C65  1  0.32224500  0.62756500  0.49266000  1
  C  C66  1  0.86510000  0.49266000  0.17042000  1
  C  C67  1  0.13490500  0.30532000  0.62756500  1
  C  C68  1  0.13490500  0.82958500  0.50734000  1
  C  C69  1  0.86510000  0.37244000  0.69468000  1
  C  C70  1  0.67776000  0.50734000  0.37244000  1
  C  C71  1  0.32224500  0.69468000  0.82958500  1
  C  C72  1  0.40651000  0.09708000  0.44421000  1
  C  C73  1  0.59349000  0.03770000  0.69057000  1
  C  C74  1  0.65287000  0.69057000  0.09708000  1
  C  C75  1  0.34713000  0.44421000  0.03770000  1
  C  C76  1  0.34713000  0.90292000  0.30943000  1
  C  C77  1  0.65287000  0.96230000  0.55579000  1
  C  C78  1  0.40651000  0.30943000  0.96230000  1
  C  C79  1  0.59349000  0.55579000  0.90292000  1
  C  C80  1  0.31634500  0.06286000  0.44702500  1
  C  C81  1  0.68366000  0.13068000  0.74652000  1
  C  C82  1  0.61584000  0.74652000  0.06286000  1
  C  C83  1  0.38416500  0.44702500  0.13068000  1
  C  C84  1  0.38416500  0.93714000  0.25348500  1
  C  C85  1  0.61584000  0.86932000  0.55298000  1
  C  C86  1  0.31634500  0.25348500  0.86932000  1
  C  C87  1  0.68366000  0.55298000  0.93714000  1
  C  C88  1  0.25297500  0.09873000  0.40909500  1
  C  C89  1  0.74703000  0.15612500  0.84575500  1
  C  C90  1  0.68963500  0.84575500  0.09873000  1
  C  C91  1  0.31037000  0.40909500  0.15612500  1
  C  C92  1  0.31037000  0.90127000  0.15424000  1
  C  C93  1  0.68963500  0.84387500  0.59090000  1
  C  C94  1  0.25297500  0.15424000  0.84387500  1
  C  C95  1  0.74703000  0.59090000  0.90127000  1
  C  C96  1  0.27859000  0.16665000  0.36580000  1
  C  C97  1  0.72142000  0.08721000  0.88807000  1
  C  C98  1  0.80086000  0.88807000  0.16665000  1
  C  C99  1  0.19915000  0.36580000  0.08721000  1
  C  C100  1  0.19915000  0.83335000  0.11194000  1
  C  C101  1  0.80086000  0.91279000  0.63421000  1
  C  C102  1  0.27859000  0.11194000  0.91279000  1
  C  C103  1  0.72142000  0.63421000  0.83335000  1
  C  C104  1  0.36458500  0.19606500  0.35732000  1
  C  C105  1  0.63543000  0.99274000  0.83149000  1
  C  C106  1  0.83875500  0.83149000  0.19606500  1
  C  C107  1  0.16126000  0.35732000  0.99274000  1
  C  C108  1  0.16126000  0.80394000  0.16852000  1
  C  C109  1  0.83875500  0.00726500  0.64269000  1
  C  C110  1  0.36458500  0.16852000  0.00726500  1
  C  C111  1  0.63543000  0.64269000  0.80394000  1
  C  C112  1  0.42968000  0.16222000  0.39776000  1
  C  C113  1  0.57032500  0.96808000  0.73254500  1
  C  C114  1  0.76446500  0.73254500  0.16222000  1
  C  C115  1  0.23554000  0.39776000  0.96808000  1
  C  C116  1  0.23554000  0.83778000  0.26746000  1
  C  C117  1  0.76446500  0.03192000  0.60224500  1
  C  C118  1  0.42968000  0.26746000  0.03192000  1
  C  C119  1  0.57032500  0.60224500  0.83778000  1
  C  C120  1  0.52527500  0.19784000  0.39344500  1
  C  C121  1  0.47473000  0.86817500  0.67256500  1
  C  C122  1  0.80439500  0.67256500  0.19784000  1
  C  C123  1  0.19561000  0.39344500  0.86817500  1
  C  C124  1  0.19561000  0.80216000  0.32743000  1
  C  C125  1  0.80439500  0.13182500  0.60655000  1
  C  C126  1  0.52527500  0.32743000  0.13182500  1
  C  C127  1  0.47473000  0.60655000  0.80216000  1
  H  H128  1  0.61177000  0.03682000  0.02063000  1
  H  H129  1  0.38823000  0.40886000  0.42505000  1
  H  H130  1  0.01619000  0.42505000  0.03682000  1
  H  H131  1  0.98381000  0.02063000  0.40886000  1
  H  H132  1  0.98381000  0.96318000  0.57495000  1
  H  H133  1  0.01619000  0.59114000  0.97937000  1
  H  H134  1  0.61177000  0.57495000  0.59114000  1
  H  H135  1  0.38823000  0.97937000  0.96318000  1
  H  H136  1  0.61997000  0.15121000  0.12484000  1
  H  H137  1  0.38003000  0.50487000  0.53124000  1
  H  H138  1  0.02637000  0.53124000  0.15121000  1
  H  H139  1  0.97363000  0.12484000  0.50487000  1
  H  H140  1  0.97363000  0.84879000  0.46876000  1
  H  H141  1  0.02637000  0.49513000  0.87516000  1
  H  H142  1  0.61997000  0.46876000  0.49513000  1
  H  H143  1  0.38003000  0.87516000  0.84879000  1
  H  H144  1  0.72717500  0.04507000  0.35010500  1
  H  H145  1  0.27284000  0.62294000  0.31790000  1
  H  H146  1  0.69497000  0.31790000  0.04507000  1
  H  H147  1  0.30504500  0.35010500  0.62294000  1
  H  H148  1  0.30504500  0.95494000  0.68210500  1
  H  H149  1  0.69497000  0.37707000  0.64990000  1
  H  H150  1  0.72717500  0.68210500  0.37707000  1
  H  H151  1  0.27284000  0.64990000  0.95494000  1
  H  H152  1  0.71783500  0.93059000  0.24676500  1
  H  H153  1  0.28218000  0.52894000  0.21276000  1
  H  H154  1  0.68383000  0.21276000  0.93059000  1
  H  H155  1  0.31618500  0.24676500  0.52894000  1
  H  H156  1  0.31618500  0.06942000  0.78724500  1
  H  H157  1  0.68383000  0.47107000  0.75324000  1
  H  H158  1  0.71783500  0.78724500  0.47107000  1
  H  H159  1  0.28218000  0.75324000  0.06942000  1
  H  H160  1  0.45975000  0.07380000  0.47717000  1
  H  H161  1  0.54025000  0.01742000  0.61405000  1
  H  H162  1  0.59663000  0.61405000  0.07380000  1
  H  H163  1  0.40337000  0.47717000  0.01742000  1
  H  H164  1  0.40337000  0.92619500  0.38594500  1
  H  H165  1  0.59663000  0.98257500  0.52282500  1
  H  H166  1  0.45975000  0.38594500  0.98257500  1
  H  H167  1  0.54025000  0.52282500  0.92619500  1
  H  H168  1  0.29520000  0.00950500  0.47954500  1
  H  H169  1  0.70480000  0.18434500  0.71430500  1
  H  H170  1  0.52996000  0.71430500  0.00950500  1
  H  H171  1  0.47004000  0.47954500  0.18434500  1
  H  H172  1  0.47004000  0.99049000  0.28569000  1
  H  H173  1  0.52996000  0.81565000  0.52045000  1
  H  H174  1  0.29520000  0.28569000  0.81565000  1
  H  H175  1  0.70480000  0.52045000  0.99049000  1
  H  H176  1  0.22977000  0.19482000  0.33709000  1
  H  H177  1  0.77024500  0.10732500  0.96506000  1
  H  H178  1  0.85774000  0.96506000  0.19482000  1
  H  H179  1  0.14227500  0.33709000  0.10732500  1
  H  H180  1  0.14227500  0.80518500  0.03495000  1
  H  H181  1  0.85774000  0.89268000  0.66292000  1
  H  H182  1  0.22977000  0.03495000  0.89268000  1
  H  H183  1  0.77024500  0.66292000  0.80518500  1
  H  H184  1  0.38370000  0.24676000  0.32172000  1
  H  H185  1  0.61630500  0.93802500  0.86306000  1
  H  H186  1  0.92504000  0.86306000  0.24676000  1
  H  H187  1  0.07496500  0.32172000  0.93802500  1
  H  H188  1  0.07496500  0.75324500  0.13694000  1
  H  H189  1  0.92504000  0.06198000  0.67828000  1
  H  H190  1  0.38370000  0.13694000  0.06198000  1
  H  H191  1  0.61630500  0.67828000  0.75324500  1
  H  H192  1  0.78860500  0.40082500  0.48916000  1
  H  H193  1  0.21140000  0.70056000  0.61222000  1
  H  H194  1  0.91166500  0.61222000  0.40082500  1
  H  H195  1  0.08834000  0.48916000  0.70056000  1
  H  H196  1  0.08834000  0.59918000  0.38778000  1
  H  H197  1  0.91166500  0.29944500  0.51084000  1
  H  H198  1  0.78860500  0.38778000  0.29944500  1
  H  H199  1  0.21140000  0.51084000  0.59918000  1
  O  O200  1  0.64690000  0.22228000  0.26990000  1
  O  O201  1  0.35311000  0.62300500  0.57538500  1
  O  O202  1  0.95238500  0.57538500  0.22228000  1
  O  O203  1  0.04762500  0.26990000  0.62300500  1
  O  O204  1  0.04762500  0.77772500  0.42462000  1
  O  O205  1  0.95238500  0.37700000  0.73010500  1
  O  O206  1  0.64690000  0.42462000  0.37700000  1
  O  O207  1  0.35311000  0.73010500  0.77772500  1
  O  O208  1  0.71231000  0.16960500  0.38993500  1
  O  O209  1  0.28769000  0.67762500  0.45729500  1
  O  O210  1  0.77967000  0.45729500  0.16960500  1
  O  O211  1  0.22033000  0.38993500  0.67762500  1
  O  O212  1  0.22033000  0.83039000  0.54270000  1
  O  O213  1  0.77967000  0.32237000  0.61006000  1
  O  O214  1  0.71231000  0.54270000  0.32237000  1
  O  O215  1  0.28769000  0.61006000  0.83039000  1
  O  O216  1  0.59675500  0.18459000  0.45074500  1
  O  O217  1  0.40325000  0.85399000  0.58784000  1
  O  O218  1  0.73385000  0.58784000  0.18459000  1
  O  O219  1  0.26615500  0.45074500  0.85399000  1
  O  O220  1  0.26615500  0.81541000  0.41216500  1
  O  O221  1  0.73385000  0.14601000  0.54926000  1
  O  O222  1  0.59675500  0.41216500  0.14601000  1
  O  O223  1  0.40325000  0.54926000  0.81541000  1
  O  O224  1  0.52834000  0.23891000  0.33337000  1
  O  O225  1  0.47166000  0.80503000  0.71057000  1
  O  O226  1  0.90554000  0.71057000  0.23891000  1
  O  O227  1  0.09446000  0.33337000  0.80503000  1
  O  O228  1  0.09446000  0.76109000  0.28943000  1
  O  O229  1  0.90554000  0.19497000  0.66663000  1
  O  O230  1  0.52834000  0.28943000  0.19497000  1
  O  O231  1  0.47166000  0.66663000  0.76109000  1
  O  O232  1  0.74839000  0.33875000  0.44372000  1
  O  O233  1  0.25162000  0.69533000  0.59037000  1
  O  O234  1  0.89504000  0.59037000  0.33875000  1
  O  O235  1  0.10497000  0.44372000  0.69533000  1
  O  O236  1  0.10497000  0.66125000  0.40964000  1
  O  O237  1  0.89504000  0.30467000  0.55629000  1
  O  O238  1  0.74839000  0.40964000  0.30467000  1
  O  O239  1  0.25162000  0.55629000  0.66125000  1
  O  O240  1  0.08699000  0.97395000  0.38002000  1
  O  O241  1  0.91302500  0.29303500  0.88697000  1
  O  O242  1  0.59394000  0.88697000  0.97395000  1
  O  O243  1  0.40607500  0.38002000  0.29303500  1
  O  O244  1  0.40607500  0.02605500  0.11304000  1
  O  O245  1  0.59394000  0.70697000  0.61999000  1
  O  O246  1  0.08699000  0.11304000  0.70697000  1
  O  O247  1  0.91302500  0.61999000  0.02605500  1
