# generated using pymatgen
data_MgH8(C7O3)2
_symmetry_space_group_name_H-M   'P 1'
_cell_length_a   8.58970000
_cell_length_b   17.44460000
_cell_length_c   17.44460000
_cell_angle_alpha   120.00000000
_cell_angle_beta   90.00000000
_cell_angle_gamma   90.00000000
_symmetry_Int_Tables_number   1
_chemical_formula_structural   MgH8(C7O3)2
_chemical_formula_sum   'Mg3 H24 C42 O18'
_cell_volume   2263.76144548
_cell_formula_units_Z   3
loop_
 _symmetry_equiv_pos_site_id
 _symmetry_equiv_pos_as_xyz
  1  'x, y, z'
loop_
 _atom_site_type_symbol
 _atom_site_label
 _atom_site_symmetry_multiplicity
 _atom_site_fract_x
 _atom_site_fract_y
 _atom_site_fract_z
 _atom_site_occupancy
  Mg  Mg1  1  0.66666667  0.53516000  0.53516000  1.0
  Mg  Mg2  1  0.33333333  0.46484000  0.00000000  1.0
  Mg  Mg3  1  0.00000000  1.00000000  0.46484000  1.0
  H  H1  1  0.54313000  0.68970000  0.81080000  1.0
  H  H2  1  0.53257000  0.24300000  0.20070000  1.0
  H  H3  1  0.87647000  0.12110000  0.31030000  1.0
  H  H4  1  0.86800000  0.12800000  0.58200000  1.0
  H  H5  1  0.13410000  0.04230000  0.79930000  1.0
  H  H6  1  0.46533000  0.58200000  0.12800000  1.0
  H  H7  1  0.32503000  0.69600000  0.23320000  1.0
  H  H8  1  0.79867000  0.54600000  0.41800000  1.0
  H  H9  1  0.45687000  0.31030000  0.12110000  1.0
  H  H10  1  0.99170000  0.76680000  0.46280000  1.0
  H  H11  1  0.00830000  0.23320000  0.69600000  1.0
  H  H12  1  0.19923000  0.79930000  0.04230000  1.0
  H  H13  1  0.79020000  0.81080000  0.68970000  1.0
  H  H14  1  0.80077000  0.20070000  0.24300000  1.0
  H  H15  1  0.53467000  0.41800000  0.54600000  1.0
  H  H16  1  0.67497000  0.30400000  0.53720000  1.0
  H  H17  1  0.46743000  0.75700000  0.95770000  1.0
  H  H18  1  0.20980000  0.18920000  0.87890000  1.0
  H  H19  1  0.65837000  0.53720000  0.30400000  1.0
  H  H20  1  0.13200000  0.87200000  0.45400000  1.0
  H  H21  1  0.86590000  0.95770000  0.75700000  1.0
  H  H22  1  0.12353000  0.87890000  0.18920000  1.0
  H  H23  1  0.20133000  0.45400000  0.87200000  1.0
  H  H24  1  0.34163000  0.46280000  0.76680000  1.0
  C  C1  1  0.97600000  0.95350000  0.65220000  1.0
  C  C2  1  0.02400000  0.04650000  0.69870000  1.0
  C  C3  1  0.64267000  0.34780000  0.30130000  1.0
  C  C4  1  0.03430000  0.19388000  0.71689000  1.0
  C  C5  1  0.15400000  0.16850000  0.82510000  1.0
  C  C6  1  0.89230000  0.91930000  0.69670000  1.0
  C  C7  1  0.50283000  0.52509000  0.68049000  1.0
  C  C8  1  0.83617000  0.15540000  0.47491000  1.0
  C  C9  1  0.16950000  0.31951000  0.84460000  1.0
  C  C10  1  0.36763000  0.52301000  0.80612000  1.0
  C  C11  1  0.10770000  0.08070000  0.77740000  1.0
  C  C12  1  0.29903000  0.71689000  0.19388000  1.0
  C  C13  1  0.34633000  0.66951000  0.10654000  1.0
  C  C14  1  0.84600000  0.83150000  0.65660000  1.0
  C  C15  1  0.54727000  0.43020000  0.20524000  1.0
  C  C16  1  0.78607000  0.20524000  0.43020000  1.0
  C  C17  1  0.82067000  0.17490000  0.34340000  1.0
  C  C18  1  0.70097000  0.28311000  0.47699000  1.0
  C  C19  1  0.63237000  0.47699000  0.28311000  1.0
  C  C20  1  0.98700000  0.10654000  0.66951000  1.0
  C  C21  1  0.77437000  0.22260000  0.30330000  1.0
  C  C22  1  0.51267000  0.34340000  0.17490000  1.0
  C  C23  1  0.21393000  0.79476000  0.22496000  1.0
  C  C24  1  0.55897000  0.30330000  0.22260000  1.0
  C  C25  1  0.96570000  0.80612000  0.52301000  1.0
  C  C26  1  0.83050000  0.68049000  0.52509000  1.0
  C  C27  1  0.69067000  0.30130000  0.34780000  1.0
  C  C28  1  0.32033000  0.56297000  0.89346000  1.0
  C  C29  1  0.01300000  0.89346000  0.56297000  1.0
  C  C30  1  0.49717000  0.47491000  0.15540000  1.0
  C  C31  1  0.35733000  0.65220000  0.95350000  1.0
  C  C32  1  0.17933000  0.82510000  0.16850000  1.0
  C  C33  1  0.48733000  0.65660000  0.83150000  1.0
  C  C34  1  0.65367000  0.33049000  0.43703000  1.0
  C  C35  1  0.11940000  0.22496000  0.79476000  1.0
  C  C36  1  0.67967000  0.43703000  0.33049000  1.0
  C  C37  1  0.22563000  0.77740000  0.08070000  1.0
  C  C38  1  0.44103000  0.69670000  0.91930000  1.0
  C  C39  1  0.16383000  0.84460000  0.31951000  1.0
  C  C40  1  0.88060000  0.77504000  0.56980000  1.0
  C  C41  1  0.45273000  0.56980000  0.77504000  1.0
  C  C42  1  0.30933000  0.69870000  0.04650000  1.0
  O  O1  1  0.23543000  0.51598000  0.92338000  1.0
  O  O2  1  0.86220000  0.63155000  0.44304000  1.0
  O  O3  1  0.90210000  0.07662000  0.59260000  1.0
  O  O4  1  0.43123000  0.59260000  0.07662000  1.0
  O  O5  1  0.09790000  0.92338000  0.51598000  1.0
  O  O6  1  0.76457000  0.48402000  0.40740000  1.0
  O  O7  1  0.75920000  0.65450000  0.57019000  1.0
  O  O8  1  0.24080000  0.34550000  0.91569000  1.0
  O  O9  1  0.56877000  0.40740000  0.48402000  1.0
  O  O10  1  0.09253000  0.91569000  0.34550000  1.0
  O  O11  1  0.19553000  0.81149000  0.36845000  1.0
  O  O12  1  0.90747000  0.08431000  0.42981000  1.0
  O  O13  1  0.47113000  0.44304000  0.63155000  1.0
  O  O14  1  0.42587000  0.42981000  0.08431000  1.0
  O  O15  1  0.52887000  0.55696000  0.18851000  1.0
  O  O16  1  0.57413000  0.57019000  0.65450000  1.0
  O  O17  1  0.13780000  0.36845000  0.81149000  1.0
  O  O18  1  0.80447000  0.18851000  0.55696000  1.0
