# generated using pymatgen
data_H13C16(NO)2
_symmetry_space_group_name_H-M   'P 1'
_cell_length_a   17.15065000
_cell_length_b   29.70579718
_cell_length_c   31.34160000
_cell_angle_alpha   90.00000000
_cell_angle_beta   90.00000000
_cell_angle_gamma   90.00000000
_symmetry_Int_Tables_number   1
_chemical_formula_structural   H13C16(NO)2
_chemical_formula_sum   'H156 C192 N24 O24'
_cell_volume   15967.72187039
_cell_formula_units_Z   12
loop_
 _symmetry_equiv_pos_site_id
 _symmetry_equiv_pos_as_xyz
  1  'x, y, z'
loop_
 _atom_site_type_symbol
 _atom_site_label
 _atom_site_symmetry_multiplicity
 _atom_site_fract_x
 _atom_site_fract_y
 _atom_site_fract_z
 _atom_site_occupancy
  C  1  1  0.87942000  0.46026400  0.97949200  1
  C  2  1  0.80941000  0.46233100  0.95522400  1
  C  3  1  0.80636800  0.45810900  0.91029700  1
  C  4  1  0.87922200  0.46015600  0.88905000  1
  C  5  1  0.95218000  0.46223000  0.91018800  1
  C  6  1  0.94934100  0.45818700  0.95514100  1
  C  10  1  0.87946500  0.46028700  0.02619300  1
  C  11  1  0.80981400  0.45588700  0.05056000  1
  C  12  1  0.80682700  0.45998800  0.09547300  1
  C  13  1  0.87948900  0.46031400  0.11683800  1
  C  14  1  0.95213900  0.46058700  0.09545600  1
  C  15  1  0.94913800  0.46465300  0.05053900  1
  C  27  1  0.63059600  0.20973500  0.64615600  1
  C  28  1  0.66196200  0.17358500  0.62183100  1
  C  29  1  0.66882500  0.17396700  0.57684900  1
  C  30  1  0.62909200  0.20936100  0.55572400  1
  C  31  1  0.59003000  0.24491400  0.57698600  1
  C  32  1  0.59851300  0.24571000  0.62187900  1
  C  36  1  0.63117000  0.20988200  0.69285100  1
  C  37  1  0.67276700  0.17727500  0.71714800  1
  C  38  1  0.66837000  0.17374800  0.76206900  1
  C  39  1  0.63174200  0.20995200  0.78348200  1
  C  40  1  0.59475500  0.24608800  0.76215200  1
  C  41  1  0.58985800  0.24252200  0.71725000  1
  C  53  1  0.13029200  0.20889900  0.31294900  1
  C  54  1  0.16546000  0.24396500  0.28868000  1
  C  55  1  0.16090900  0.24761200  0.24374600  1
  C  56  1  0.12851100  0.21001000  0.22237500  1
  C  57  1  0.09756900  0.17180200  0.24338600  1
  C  58  1  0.09513700  0.17401300  0.28843000  1
  C  62  1  0.13063200  0.20879500  0.35973500  1
  C  63  1  0.15886000  0.24578700  0.38419200  1
  C  64  1  0.16616100  0.24536700  0.42911600  1
  C  65  1  0.13002100  0.20899700  0.45049700  1
  C  66  1  0.09394800  0.17260700  0.42910600  1
  C  67  1  0.10176700  0.17200200  0.38420800  1
  C  79  1  0.14580100  0.42520300  0.13780800  1
  C  80  1  0.18833900  0.38619100  0.12692400  1
  C  81  1  0.21337200  0.35656700  0.15869600  1
  C  82  1  0.19850900  0.36465600  0.20246500  1
  C  83  1  0.17384000  0.40927700  0.21406100  1
  C  86  1  0.14963600  0.43994800  0.18116200  1
  C  87  1  0.16480200  0.42193100  0.26012200  1
  C  91  1  0.13402300  0.48854100  0.19066300  1
  C  95  1  0.20445500  0.32739300  0.23123100  1
  C  96  1  0.09247900  0.44278900  0.10702300  1
  C  99  1  0.54893300  0.36051200  0.80467100  1
  C  100  1  0.58485500  0.40167200  0.79375200  1
  C  101  1  0.61649800  0.42913800  0.82552500  1
  C  102  1  0.61247900  0.41754500  0.86929400  1
  C  103  1  0.55863500  0.38249400  0.88092400  1
  C  106  1  0.52523800  0.35482000  0.84804400  1
  C  107  1  0.54439200  0.37154000  0.92698400  1
  C  111  1  0.46107000  0.32211100  0.85757500  1
  C  115  1  0.66524600  0.43946600  0.89796800  1
  C  116  1  0.55044300  0.32503700  0.77393800  1
  C  119  1  0.94366500  0.09345600  0.47119700  1
  C  120  1  0.86399800  0.09153000  0.46008400  1
  C  121  1  0.80670900  0.09364500  0.49168500  1
  C  122  1  0.82577800  0.09699200  0.53551800  1
  C  123  1  0.90507500  0.08731200  0.54732600  1
  C  126  1  0.96353600  0.08423500  0.51460000  1
  C  127  1  0.92828100  0.08566200  0.59343700  1
  C  131  1  0.04424000  0.06785700  0.52429600  1
  C  135  1  0.76635800  0.11228200  0.56413400  1
  C  136  1  0.99682400  0.11140000  0.44054200  1
  C  139  1  0.11258600  0.99351300  0.13822100  1
  C  140  1  0.06883400  0.03203900  0.12711600  1
  C  141  1  0.04474300  0.06230200  0.15860300  1
  C  142  1  0.06227500  0.05535100  0.20223000  1
  C  143  1  0.09205800  0.01215900  0.21456400  1
  C  146  1  0.11224700  0.98026300  0.18202300  1
  C  147  1  0.11564200  0.00125800  0.25949400  1
  C  151  1  0.62550500  0.43155200  0.19082800  1
  C  155  1  0.05316800  0.09263500  0.23030500  1
  C  156  1  0.66632000  0.47753000  0.10717500  1
  C  159  1  0.71125500  0.05907400  0.80434200  1
  C  160  1  0.67389400  0.01838400  0.79329900  1
  C  161  1  0.64179700  0.99094800  0.82494100  1
  C  162  1  0.64634100  0.00221200  0.86876800  1
  C  163  1  0.70090000  0.03684700  0.88051500  1
  C  166  1  0.73505200  0.06436700  0.84774800  1
  C  167  1  0.71517800  0.04762400  0.92661100  1
  C  171  1  0.80036200  0.09627800  0.85739900  1
  C  175  1  0.09345200  0.48035100  0.89750600  1
  C  176  1  0.71134200  0.09457400  0.77361000  1
  C  179  1  0.31498500  0.32543800  0.47151600  1
  C  180  1  0.39472300  0.32786700  0.46062700  1
  C  181  1  0.45167800  0.32558300  0.49242200  1
  C  182  1  0.43219200  0.32174400  0.53617800  1
  C  183  1  0.35277200  0.33141800  0.54777900  1
  C  186  1  0.29464000  0.33450600  0.51487700  1
  C  187  1  0.32913400  0.33314600  0.59382000  1
  C  191  1  0.21365000  0.35054100  0.52435400  1
  C  195  1  0.49136100  0.30611300  0.56482400  1
  C  196  1  0.26238900  0.30701800  0.44081000  1
  C  199  1  0.37947100  0.96034500  0.97933000  1
  C  200  1  0.30946400  0.96250200  0.95506500  1
  C  201  1  0.30640900  0.95819300  0.91014700  1
  C  202  1  0.37926700  0.96016600  0.88889400  1
  C  203  1  0.45222600  0.96221300  0.91003500  1
  C  204  1  0.44938100  0.95817300  0.95498500  1
  C  208  1  0.37953100  0.96030400  0.02602100  1
  C  209  1  0.30987700  0.95571600  0.05035400  1
  C  210  1  0.30688100  0.95954000  0.09528300  1
  C  211  1  0.37957800  0.96004800  0.11662900  1
  C  212  1  0.45223400  0.96050900  0.09527500  1
  C  213  1  0.44922200  0.96466400  0.05036700  1
  C  225  1  0.13064100  0.70970700  0.64612800  1
  C  226  1  0.16211000  0.67359200  0.62178600  1
  C  227  1  0.16891900  0.67397300  0.57679800  1
  C  228  1  0.12910600  0.70934600  0.55568900  1
  C  229  1  0.09000800  0.74488500  0.57695800  1
  C  230  1  0.09848500  0.74566600  0.62185000  1
  C  234  1  0.13120000  0.70985100  0.69282600  1
  C  235  1  0.17275700  0.67723800  0.71713500  1
  C  236  1  0.16836700  0.67372400  0.76206000  1
  C  237  1  0.13175600  0.70993900  0.78346600  1
  C  238  1  0.09477600  0.74607300  0.76213000  1
  C  239  1  0.08989500  0.74249800  0.71722500  1
  C  251  1  0.62942900  0.70945100  0.31286400  1
  C  252  1  0.66728300  0.74346400  0.28852400  1
  C  253  1  0.66207100  0.74712700  0.24360400  1
  C  254  1  0.62851900  0.70969000  0.22242300  1
  C  255  1  0.59532600  0.67216800  0.24362800  1
  C  256  1  0.59101200  0.67560200  0.28858400  1
  C  260  1  0.62983100  0.70931600  0.35956600  1
  C  261  1  0.65819700  0.74628200  0.38396200  1
  C  262  1  0.66586000  0.74564900  0.42887700  1
  C  263  1  0.62997700  0.70914100  0.45020600  1
  C  264  1  0.59406000  0.67270400  0.42879400  1
  C  265  1  0.60172700  0.67222200  0.38387900  1
  C  277  1  0.64571400  0.92497800  0.13775700  1
  C  278  1  0.68829600  0.88599200  0.12685100  1
  C  279  1  0.71340400  0.85633800  0.15858900  1
  C  280  1  0.69851700  0.86429900  0.20238400  1
  C  281  1  0.67375600  0.90892400  0.21399800  1
  C  284  1  0.64952700  0.93964500  0.18113500  1
  C  285  1  0.66480500  0.92160800  0.26006000  1
  C  289  1  0.63394900  0.98824100  0.19067600  1
  C  293  1  0.70483100  0.82698000  0.23111100  1
  C  294  1  0.59252900  0.94266400  0.10693900  1
  C  297  1  0.04891200  0.86049900  0.80464200  1
  C  298  1  0.08478300  0.90166900  0.79370400  1
  C  299  1  0.11644300  0.92914900  0.82546700  1
  C  300  1  0.11249800  0.91755500  0.86923700  1
  C  301  1  0.05866800  0.88250100  0.88088600  1
  C  304  1  0.02525800  0.85481300  0.84801900  1
  C  305  1  0.04444100  0.87156400  0.92695200  1
  C  309  1  0.96110400  0.82209900  0.85757200  1
  C  313  1  0.16529900  0.93949000  0.89788500  1
  C  314  1  0.05042900  0.82501700  0.77391600  1
  C  317  1  0.44390400  0.59358400  0.47100900  1
  C  318  1  0.36422500  0.59170900  0.45991200  1
  C  319  1  0.30692700  0.59381300  0.49151500  1
  C  320  1  0.32596900  0.59710200  0.53536100  1
  C  321  1  0.40527300  0.58741400  0.54715100  1
  C  324  1  0.46374100  0.58435700  0.51442100  1
  C  325  1  0.42845800  0.58571400  0.59326800  1
  C  329  1  0.54441300  0.56794000  0.52412700  1
  C  333  1  0.26653000  0.61233200  0.56400400  1
  C  334  1  0.49710600  0.61144300  0.44030900  1
  C  337  1  0.61243700  0.49467800  0.13786700  1
  C  338  1  0.56898700  0.53332700  0.12688700  1
  C  339  1  0.54362300  0.56293700  0.15861700  1
  C  340  1  0.55864600  0.55508400  0.20241300  1
  C  341  1  0.58408900  0.51061100  0.21408500  1
  C  344  1  0.60889400  0.48002400  0.18124600  1
  C  345  1  0.59322600  0.49804100  0.26016400  1
  C  349  1  0.12836900  0.93206400  0.19309400  1
  C  353  1  0.55204200  0.59242300  0.23107900  1
  C  354  1  0.16592200  0.97605900  0.10739500  1
  C  357  1  0.21118000  0.55905900  0.80437400  1
  C  358  1  0.17375400  0.51838000  0.79335700  1
  C  359  1  0.14165400  0.49096500  0.82501400  1
  C  360  1  0.14626700  0.50223200  0.86883800  1
  C  361  1  0.20086900  0.53685500  0.88055700  1
  C  364  1  0.23501400  0.56435800  0.84777300  1
  C  365  1  0.21519700  0.54763700  0.92664900  1
  C  369  1  0.30035300  0.59625700  0.85740600  1
  C  373  1  0.59350000  0.98031400  0.89741000  1
  C  374  1  0.21129700  0.59454400  0.77362900  1
  C  377  1  0.81494600  0.82544800  0.47144000  1
  C  378  1  0.89469500  0.82783500  0.46056600  1
  C  379  1  0.95164400  0.82553200  0.49236700  1
  C  380  1  0.93215300  0.82170200  0.53612700  1
  C  381  1  0.85273200  0.83138000  0.54771900  1
  C  384  1  0.79460700  0.83448700  0.51481000  1
  C  385  1  0.82909600  0.83311000  0.59376300  1
  C  389  1  0.71361900  0.85051700  0.52430600  1
  C  393  1  0.99131800  0.80607800  0.56478200  1
  C  394  1  0.76230500  0.80713500  0.44069200  1
  H  7  1  0.75864800  0.46756900  0.97058400  1
  H  8  1  0.00019500  0.45321800  0.97047600  1
  H  9  1  0.87915000  0.46008900  0.85636500  1
  H  16  1  0.75921900  0.44806700  0.03569800  1
  H  17  1  0.87949500  0.46031400  0.14952000  1
  H  18  1  0.99976400  0.47237200  0.03566100  1
  H  20  1  0.01006700  0.45551000  0.14996700  1
  H  22  1  0.74888800  0.46504100  0.14998800  1
  H  24  1  0.75154700  0.44549900  0.85616800  1
  H  26  1  0.00668700  0.47495800  0.85597000  1
  H  33  1  0.68012500  0.14575200  0.63721600  1
  H  34  1  0.58153800  0.27386800  0.63718700  1
  H  35  1  0.62852700  0.20921400  0.52303900  1
  H  42  1  0.70966100  0.15586100  0.70222200  1
  H  43  1  0.63185000  0.20995100  0.81616700  1
  H  44  1  0.55279900  0.26391800  0.70241400  1
  H  46  1  0.57346300  0.27757000  0.81670600  1
  H  48  1  0.68971900  0.14219800  0.81656900  1
  H  50  1  0.71483800  0.15295600  0.52259200  1
  H  52  1  0.54334800  0.26597400  0.52294600  1
  H  59  1  0.19661500  0.26760200  0.30402600  1
  H  60  1  0.06875100  0.14838300  0.30358400  1
  H  61  1  0.12772400  0.21034200  0.18969200  1
  H  68  1  0.17272600  0.27496800  0.36946100  1
  H  69  1  0.12978900  0.20907200  0.48317800  1
  H  70  1  0.08744500  0.14290900  0.36950800  1
  H  72  1  0.05680700  0.14631200  0.48356800  1
  H  74  1  0.20239900  0.27200100  0.48364400  1
  H  76  1  0.16819400  0.28156900  0.18972500  1
  H  78  1  0.09432600  0.13751800  0.18932800  1
  H  84  1  0.23842500  0.32708100  0.14879500  1
  H  85  1  0.19118000  0.37493400  0.09609400  1
  H  88  1  0.12435400  0.39881100  0.27569900  1
  H  89  1  0.14204500  0.45549400  0.26600200  1
  H  90  1  0.22145800  0.42036900  0.27587800  1
  H  92  1  0.12759600  0.50908200  0.16200900  1
  H  93  1  0.18293000  0.50277700  0.20841100  1
  H  94  1  0.08084600  0.49205200  0.20949200  1
  H  104  1  0.64764300  0.45659800  0.81558000  1
  H  105  1  0.60052500  0.40879900  0.76297200  1
  H  108  1  0.59940600  0.36295900  0.94248400  1
  H  109  1  0.50561600  0.34330000  0.93288000  1
  H  110  1  0.51826300  0.40056500  0.94281000  1
  H  112  1  0.43383400  0.30834000  0.82893900  1
  H  113  1  0.41478200  0.33902500  0.87531200  1
  H  114  1  0.48320200  0.29398600  0.87642200  1
  H  124  1  0.75004700  0.09565900  0.48159900  1
  H  125  1  0.84595800  0.09568900  0.42919900  1
  H  128  1  0.91320200  0.11737900  0.60896000  1
  H  129  1  0.99005000  0.08061600  0.59945500  1
  H  130  1  0.89795600  0.05796000  0.60914800  1
  H  132  1  0.07848900  0.06078300  0.49572100  1
  H  133  1  0.04114300  0.03631800  0.54209400  1
  H  134  1  0.07588900  0.09276300  0.54314300  1
  H  144  1  0.01874800  0.09149400  0.14858000  1
  H  145  1  0.06451200  0.04267300  0.09614500  1
  H  148  1  0.11809100  0.02994000  0.28085000  1
  H  149  1  0.07524100  0.97665100  0.27292400  1
  H  150  1  0.53654800  0.49944500  0.27591200  1
  H  152  1  0.63243400  0.41100700  0.16221000  1
  H  153  1  0.57685500  0.41699900  0.20855500  1
  H  154  1  0.67870400  0.42844500  0.20970300  1
  H  164  1  0.11005700  0.46371800  0.81497300  1
  H  165  1  0.65861200  0.01143200  0.76242000  1
  H  168  1  0.66020400  0.05625000  0.94213000  1
  H  169  1  0.75406900  0.07579500  0.93259000  1
  H  170  1  0.74114600  0.01850200  0.94235700  1
  H  172  1  0.82823300  0.10973200  0.82881100  1
  H  173  1  0.84593500  0.07879100  0.87519700  1
  H  174  1  0.77918200  0.12465400  0.87623400  1
  H  184  1  0.50843200  0.32360700  0.48248600  1
  H  185  1  0.41326500  0.32356500  0.42985300  1
  H  188  1  0.34319200  0.30125000  0.60929500  1
  H  189  1  0.26746300  0.33875900  0.59968100  1
  H  190  1  0.36001900  0.36053900  0.60969400  1
  H  192  1  0.17949400  0.35736500  0.49569200  1
  H  193  1  0.21620100  0.38215400  0.54205800  1
  H  194  1  0.18221800  0.32555200  0.54321300  1
  H  205  1  0.25873100  0.96788500  0.97042500  1
  H  206  1  0.50020400  0.95310300  0.97032600  1
  H  207  1  0.37919700  0.96006200  0.85621200  1
  H  214  1  0.25933800  0.94789900  0.03544200  1
  H  215  1  0.37961400  0.95990000  0.14931200  1
  H  216  1  0.49984800  0.97243000  0.03550200  1
  H  218  1  0.51006800  0.95542300  0.14982400  1
  H  220  1  0.24936800  0.96423300  0.14983600  1
  H  222  1  0.25153000  0.94556600  0.85603700  1
  H  224  1  0.50679500  0.97489000  0.85582900  1
  H  231  1  0.18041900  0.64578600  0.63716500  1
  H  232  1  0.08144100  0.77380900  0.63716200  1
  H  233  1  0.12852300  0.70920500  0.52300700  1
  H  240  1  0.20961900  0.65580100  0.70221600  1
  H  241  1  0.13186500  0.70994200  0.81614700  1
  H  242  1  0.05284200  0.76389800  0.70239100  1
  H  244  1  0.07347500  0.77755900  0.81668000  1
  H  246  1  0.18971700  0.64219100  0.81656900  1
  H  248  1  0.21491100  0.65301400  0.52251600  1
  H  250  1  0.04332100  0.76593800  0.52291800  1
  H  257  1  0.70058100  0.76624800  0.30382400  1
  H  258  1  0.55806600  0.65272100  0.30396900  1
  H  259  1  0.62818900  0.70976400  0.18974000  1
  H  266  1  0.67195800  0.77547200  0.36912200  1
  H  267  1  0.62995000  0.70910700  0.48288800  1
  H  268  1  0.58810800  0.64305600  0.36896300  1
  H  270  1  0.55733500  0.64626100  0.48328700  1
  H  272  1  0.70230200  0.77206800  0.48346500  1
  H  274  1  0.67009400  0.78083400  0.18946700  1
  H  276  1  0.58669600  0.63855900  0.18945000  1
  H  282  1  0.73868400  0.82695000  0.14861800  1
  H  283  1  0.69124700  0.87480600  0.09600000  1
  H  286  1  0.62417600  0.89858900  0.27562700  1
  H  287  1  0.64228800  0.95521800  0.26595900  1
  H  288  1  0.72144900  0.91991800  0.27582000  1
  H  290  1  0.62749400  0.00882000  0.16204700  1
  H  291  1  0.68287900  0.00245900  0.20841600  1
  H  292  1  0.58079000  0.99174600  0.20952600  1
  H  302  1  0.14755200  0.95661100  0.81550600  1
  H  303  1  0.10041100  0.90879900  0.76292100  1
  H  306  1  0.09945500  0.86295900  0.94243900  1
  H  307  1  0.00562700  0.84334400  0.93286100  1
  H  308  1  0.01836000  0.90060200  0.94277800  1
  H  310  1  0.93386300  0.80831400  0.82894200  1
  H  311  1  0.91481700  0.83901500  0.87530500  1
  H  312  1  0.98325500  0.79398600  0.87642800  1
  H  322  1  0.25026400  0.59583000  0.48143000  1
  H  323  1  0.34618500  0.59587000  0.42903000  1
  H  326  1  0.41334900  0.61740800  0.60882300  1
  H  327  1  0.49022800  0.58067800  0.59928900  1
  H  328  1  0.39814800  0.55798500  0.60894400  1
  H  330  1  0.57867200  0.56085300  0.49556100  1
  H  331  1  0.54126300  0.53639700  0.54191800  1
  H  332  1  0.57608000  0.59282700  0.54298700  1
  H  342  1  0.51822600  0.59228800  0.14863000  1
  H  343  1  0.56633300  0.54472500  0.09610200  1
  H  346  1  0.63346800  0.52130200  0.27571100  1
  H  347  1  0.61627500  0.46455900  0.26610000  1
  H  348  1  0.17440800  0.98724800  0.26018800  1
  H  350  1  0.13148200  0.91041500  0.16499500  1
  H  351  1  0.08125500  0.91895900  0.21293900  1
  H  352  1  0.18320600  0.92879800  0.21041800  1
  H  362  1  0.61024100  0.96369400  0.81488400  1
  H  363  1  0.15843700  0.51142500  0.76248400  1
  H  366  1  0.16024200  0.55626900  0.94218400  1
  H  367  1  0.25409800  0.57580700  0.93261200  1
  H  368  1  0.24117300  0.51851500  0.94238800  1
  H  370  1  0.32821300  0.60969600  0.82880500  1
  H  371  1  0.34592200  0.57876600  0.87519700  1
  H  372  1  0.27920100  0.62464600  0.87623400  1
  H  382  1  0.00839500  0.82355300  0.48243800  1
  H  383  1  0.91323300  0.82355000  0.42979200  1
  H  386  1  0.84316400  0.80121400  0.60924100  1
  H  387  1  0.76742600  0.83871500  0.59963000  1
  H  388  1  0.85997700  0.86050500  0.60963600  1
  H  390  1  0.67945200  0.85736800  0.49565700  1
  H  391  1  0.71617400  0.88211400  0.54203600  1
  H  392  1  0.68219700  0.82550900  0.54315000  1
  N  19  1  0.01899900  0.45593100  0.11931800  1
  N  21  1  0.73995000  0.46454900  0.11933800  1
  N  23  1  0.74043200  0.45011100  0.88623600  1
  N  25  1  0.01797800  0.47015100  0.88599400  1
  N  45  1  0.56813200  0.28176200  0.78606000  1
  N  47  1  0.69468400  0.13794200  0.78592200  1
  N  49  1  0.71336300  0.14493900  0.55262600  1
  N  51  1  0.54491500  0.27387800  0.55300900  1
  N  71  1  0.05318500  0.14161300  0.45292100  1
  N  73  1  0.20626500  0.27659100  0.45298800  1
  N  75  1  0.18145500  0.28467300  0.21971900  1
  N  77  1  0.07804000  0.13494400  0.21899900  1
  N  217  1  0.51905200  0.95585700  0.11918000  1
  N  219  1  0.24004500  0.96367400  0.11925000  1
  N  221  1  0.24044600  0.95018200  0.88611200  1
  N  223  1  0.51805100  0.97009700  0.88585700  1
  N  243  1  0.06814200  0.78174600  0.78603400  1
  N  245  1  0.19466700  0.63792300  0.78592200  1
  N  247  1  0.21347900  0.64497800  0.55254600  1
  N  249  1  0.04487800  0.77384200  0.55298000  1
  N  269  1  0.55357200  0.64160500  0.45263700  1
  N  271  1  0.70608600  0.77675700  0.45281900  1
  N  273  1  0.68296000  0.78407300  0.21949300  1
  N  275  1  0.57399900  0.63532400  0.21950400  1
  O  97  1  0.22240800  0.33591200  0.27240200  1
  O  98  1  0.10534100  0.43199000  0.06557200  1
  O  117  1  0.64439600  0.44325000  0.93936400  1
  O  118  1  0.56017500  0.33685000  0.73247000  1
  O  137  1  0.77024700  0.09907800  0.60531300  1
  O  138  1  0.97462100  0.11025600  0.39902500  1
  O  157  1  0.02137700  0.08459800  0.26906100  1
  O  158  1  0.65360400  0.48831200  0.06569500  1
  O  177  1  0.11491500  0.47596100  0.93875700  1
  O  178  1  0.70173600  0.08292000  0.73210300  1
  O  197  1  0.48625900  0.31801200  0.60631500  1
  O  198  1  0.28518900  0.30808600  0.39937600  1
  O  295  1  0.72123400  0.83550700  0.27247200  1
  O  296  1  0.60543100  0.93191600  0.06548100  1
  O  315  1  0.14458400  0.94319600  0.93930900  1
  O  316  1  0.06013200  0.83683000  0.73244400  1
  O  335  1  0.27041400  0.59907800  0.60516900  1
  O  336  1  0.47492900  0.61033500  0.39878600  1
  O  355  1  0.53525000  0.58385200  0.27238800  1
  O  356  1  0.15221600  0.98628600  0.06588500  1
  O  375  1  0.61489600  0.97595400  0.93867500  1
  O  376  1  0.20168100  0.58287600  0.73212500  1
  O  395  1  0.98622300  0.81798800  0.60627300  1
  O  396  1  0.78508600  0.80817600  0.39925500  1
