# generated using pymatgen
data_H36C45N4
_symmetry_space_group_name_H-M   'P 1'
_cell_length_a   41.23930000
_cell_length_b   41.23930000
_cell_length_c   47.93020000
_cell_angle_alpha   90.00000000
_cell_angle_beta   90.00000000
_cell_angle_gamma   90.00000000
_symmetry_Int_Tables_number   1
_chemical_formula_structural   H36C45N4
_chemical_formula_sum   'H288 C360 N32'
_cell_volume   81513.92604098
_cell_formula_units_Z   8
loop_
 _symmetry_equiv_pos_site_id
 _symmetry_equiv_pos_as_xyz
  1  'x, y, z'
loop_
 _atom_site_type_symbol
 _atom_site_label
 _atom_site_symmetry_multiplicity
 _atom_site_fract_x
 _atom_site_fract_y
 _atom_site_fract_z
 _atom_site_occupancy
  H  26  1  0.21618000  0.11076300  0.18886500  1
  H  27  1  0.18557900  0.14241600  0.15707600  1
  H  28  1  0.14556500  0.03704900  0.18505800  1
  H  29  1  0.11477300  0.06883900  0.15327400  1
  H  30  1  0.06981000  0.11501700  0.15463800  1
  H  31  1  0.03701400  0.14743300  0.18464000  1
  H  32  1  0.10854200  0.22025900  0.18458300  1
  H  33  1  0.14134700  0.18815200  0.15429300  1
  H  34  1  0.11532200  0.18646400  0.10153500  1
  H  35  1  0.14684300  0.21691100  0.06957300  1
  H  36  1  0.22018200  0.14589800  0.07280000  1
  H  37  1  0.18847000  0.11518600  0.10467300  1
  H  38  1  0.14266200  0.07104500  0.10158900  1
  H  39  1  0.06979500  0.14269000  0.10270500  1
  H  40  1  0.03881200  0.11184800  0.07041100  1
  H  45  1  0.11185400  0.04045500  0.06913100  1
  H  71  1  0.54773700  0.14400300  0.69498300  1
  H  72  1  0.57859100  0.11266800  0.66304700  1
  H  73  1  0.60739400  0.22485000  0.67905800  1
  H  74  1  0.63863800  0.19344300  0.64757500  1
  H  75  1  0.68095700  0.14434900  0.66356300  1
  H  76  1  0.71232000  0.11186000  0.69454500  1
  H  77  1  0.65394100  0.03099200  0.67576800  1
  H  78  1  0.62190400  0.06344400  0.64558900  1
  H  79  1  0.64556100  0.07817200  0.59462100  1
  H  80  1  0.61377600  0.04828200  0.56227200  1
  H  81  1  0.53344000  0.10796900  0.57974900  1
  H  82  1  0.56526400  0.13831500  0.61158300  1
  H  83  1  0.61420300  0.18071700  0.59588700  1
  H  84  1  0.69443700  0.11991300  0.61129300  1
  H  85  1  0.72604300  0.15078400  0.57964300  1
  H  90  1  0.64577500  0.21113100  0.56372000  1
  H  116  1  0.04102900  0.60878800  0.57061900  1
  H  117  1  0.07159600  0.64049600  0.60234000  1
  H  118  1  0.11443800  0.53772000  0.57059400  1
  H  119  1  0.14519200  0.56957100  0.60242000  1
  H  120  1  0.19102000  0.61523600  0.60557600  1
  H  121  1  0.22378700  0.64754500  0.57557000  1
  H  122  1  0.14916800  0.71694400  0.57025800  1
  H  123  1  0.11649600  0.68510400  0.60087200  1
  H  124  1  0.14228300  0.68737300  0.65394300  1
  H  125  1  0.11053800  0.71794800  0.68563400  1
  H  126  1  0.04008800  0.64397000  0.68650700  1
  H  127  1  0.07199000  0.61318900  0.65480600  1
  H  128  1  0.11685900  0.56849600  0.65402000  1
  H  129  1  0.18721700  0.64249900  0.65719100  1
  H  130  1  0.21797600  0.61135600  0.68948600  1
  H  135  1  0.14726600  0.53767900  0.68635400  1
  H  161  1  0.72258500  0.65464700  0.07770400  1
  H  162  1  0.69249700  0.62220500  0.10909300  1
  H  163  1  0.64086200  0.71407300  0.06477100  1
  H  164  1  0.61061100  0.68173500  0.09669500  1
  H  165  1  0.56321300  0.63631800  0.11273100  1
  H  166  1  0.53124800  0.60342400  0.08285000  1
  H  167  1  0.61310200  0.54645400  0.06403100  1
  H  168  1  0.64513200  0.57863200  0.09484900  1
  H  169  1  0.62160300  0.56512300  0.14736400  1
  H  170  1  0.65373100  0.53440800  0.17840700  1
  H  171  1  0.71333900  0.61570900  0.19275100  1
  H  172  1  0.68125300  0.64660600  0.16117500  1
  H  173  1  0.63679300  0.69379400  0.14783900  1
  H  174  1  0.57810400  0.61208100  0.16343900  1
  H  175  1  0.54702400  0.64290800  0.19580200  1
  H  180  1  0.60577400  0.72440100  0.17972400  1
  H  206  1  0.85765700  0.47203700  0.32479500  1
  H  207  1  0.88864000  0.44176000  0.35708600  1
  H  208  1  0.79513900  0.39229300  0.31348500  1
  H  209  1  0.82617800  0.36186300  0.34611400  1
  H  210  1  0.86963600  0.31580500  0.35854600  1
  H  211  1  0.90118900  0.28465100  0.32738200  1
  H  212  1  0.96486100  0.36352700  0.31627700  1
  H  213  1  0.93314600  0.39491400  0.34776600  1
  H  214  1  0.94130300  0.36990400  0.40025100  1
  H  215  1  0.97171100  0.40225900  0.43153000  1
  H  216  1  0.89243700  0.46591000  0.44019800  1
  H  217  1  0.86186200  0.43353500  0.40855400  1
  H  218  1  0.81468400  0.38808600  0.39694400  1
  H  219  1  0.89470400  0.32654000  0.41122700  1
  H  220  1  0.86254300  0.29479200  0.44228700  1
  H  225  1  0.78250800  0.35568200  0.42716300  1
  H  251  1  0.90273800  0.78364300  0.82667300  1
  H  252  1  0.87159100  0.81399000  0.85872600  1
  H  253  1  0.96186900  0.86512600  0.81168200  1
  H  254  1  0.93078400  0.89561900  0.84425300  1
  H  255  1  0.88775700  0.94242300  0.86050100  1
  H  256  1  0.85605200  0.97392500  0.82988400  1
  H  257  1  0.79538700  0.89361100  0.81463700  1
  H  258  1  0.82707200  0.86189800  0.84595500  1
  H  259  1  0.81622600  0.88564800  0.89831200  1
  H  260  1  0.78592700  0.85323400  0.92957000  1
  H  261  1  0.86705100  0.79279200  0.94178800  1
  H  262  1  0.89751200  0.82512500  0.91001700  1
  H  263  1  0.94527300  0.87053100  0.89475900  1
  H  264  1  0.86371500  0.92863600  0.91281900  1
  H  265  1  0.89591400  0.96046200  0.94376200  1
  H  270  1  0.97742200  0.90306800  0.92479300  1
  H  296  1  0.36349500  0.29599400  0.94443600  1
  H  297  1  0.39488500  0.32632200  0.91214300  1
  H  298  1  0.28364900  0.35735100  0.92978300  1
  H  299  1  0.31512200  0.38810300  0.89793100  1
  H  300  1  0.36354400  0.43005100  0.91332000  1
  H  301  1  0.39518100  0.46016500  0.94564800  1
  H  302  1  0.47512200  0.39934900  0.92981900  1
  H  303  1  0.44345500  0.36883200  0.89792200  1
  H  304  1  0.43144500  0.39468200  0.84634900  1
  H  305  1  0.46236200  0.36328400  0.81449700  1
  H  306  1  0.40114400  0.28320100  0.82881800  1
  H  307  1  0.36990900  0.31466300  0.86029100  1
  H  308  1  0.32758100  0.36352400  0.84560000  1
  H  309  1  0.38814400  0.44368600  0.86228700  1
  H  310  1  0.35610700  0.47635400  0.83223300  1
  H  315  1  0.29622200  0.39621900  0.81471400  1
  H  341  1  0.40146400  0.97379400  0.43159000  1
  H  342  1  0.37035000  0.94334700  0.39956600  1
  H  343  1  0.46159600  0.89283000  0.44573600  1
  H  344  1  0.43052100  0.86224300  0.41323400  1
  H  345  1  0.38758600  0.81565400  0.39816900  1
  H  346  1  0.35600700  0.78434400  0.42913700  1
  H  347  1  0.29419500  0.86417300  0.44270800  1
  H  348  1  0.32587800  0.89572000  0.41129600  1
  H  349  1  0.31589500  0.87158300  0.35892800  1
  H  350  1  0.28563000  0.90402800  0.32762600  1
  H  351  1  0.36631100  0.96536000  0.31655800  1
  H  352  1  0.39672800  0.93297400  0.34831100  1
  H  353  1  0.44423400  0.88777700  0.36263800  1
  H  354  1  0.36329200  0.82839600  0.34561300  1
  H  355  1  0.39565900  0.79659200  0.31477000  1
  H  360  1  0.47656500  0.85529300  0.33268800  1
  H  366  1  0.01829200  0.96130600  0.97059300  1
  H  368  1  0.98963100  0.03562800  0.04461300  1
  H  370  1  0.91855100  0.00672800  0.00569300  1
  H  371  1  0.93485100  0.04197500  0.02038500  1
  H  372  1  0.93089600  0.00647000  0.04100100  1
  H  374  1  0.08924400  0.99966000  0.00338600  1
  H  375  1  0.07404500  0.99077500  0.97004200  1
  H  376  1  0.07608700  0.95989000  0.99576000  1
  H  378  1  0.06816900  0.01104500  0.04931900  1
  H  380  1  0.93508100  0.95850800  0.98772200  1
  H  386  1  0.74107400  0.29416600  0.47028800  1
  H  388  1  0.77036200  0.22330000  0.54658200  1
  H  390  1  0.84136000  0.25283600  0.50797200  1
  H  391  1  0.82571400  0.21773300  0.52340300  1
  H  392  1  0.82831600  0.25407100  0.54308100  1
  H  394  1  0.67062700  0.25446600  0.50259300  1
  H  395  1  0.68647600  0.26295300  0.46941600  1
  H  396  1  0.68261300  0.29445700  0.49440800  1
  H  398  1  0.69018400  0.24483400  0.54867100  1
  H  400  1  0.82405800  0.29969900  0.48835200  1
  H  406  1  0.23496000  0.46574200  0.79322000  1
  H  408  1  0.26652500  0.52297200  0.70926700  1
  H  410  1  0.33461300  0.48086400  0.74399400  1
  H  411  1  0.32614500  0.51909200  0.72943400  1
  H  412  1  0.31754600  0.48327400  0.71028700  1
  H  414  1  0.16780500  0.51166200  0.76115900  1
  H  415  1  0.18487100  0.50462000  0.79418400  1
  H  416  1  0.17500200  0.47144100  0.77218500  1
  H  418  1  0.18642500  0.51072900  0.71195000  1
  H  420  1  0.30065200  0.43455400  0.76949000  1
  H  426  1  0.51779200  0.79658900  0.28775800  1
  H  428  1  0.48973900  0.72296500  0.21303500  1
  H  430  1  0.41838700  0.75094100  0.25211700  1
  H  431  1  0.43491000  0.71603000  0.23702800  1
  H  432  1  0.43079800  0.75183800  0.21682800  1
  H  434  1  0.58902000  0.75914200  0.25461600  1
  H  435  1  0.57380200  0.76744200  0.28807100  1
  H  436  1  0.57557700  0.79870100  0.26267600  1
  H  438  1  0.56748500  0.74874400  0.20825500  1
  H  440  1  0.43456300  0.79908000  0.27042000  1
  H  446  1  0.26853300  0.71324900  0.53827600  1
  H  448  1  0.23943100  0.78118900  0.45994800  1
  H  450  1  0.16822600  0.75095100  0.49802200  1
  H  451  1  0.18329100  0.78616500  0.48230800  1
  H  452  1  0.18216200  0.74935300  0.46318400  1
  H  454  1  0.33886600  0.75289300  0.50560800  1
  H  455  1  0.32281100  0.74543700  0.53891900  1
  H  456  1  0.32730900  0.71307900  0.51482400  1
  H  458  1  0.31873700  0.75975800  0.45841700  1
  H  460  1  0.18649800  0.70485200  0.51885700  1
  H  466  1  0.76878600  0.52584300  0.20696600  1
  H  468  1  0.74146700  0.48136300  0.29748500  1
  H  470  1  0.67052500  0.51300300  0.25926700  1
  H  471  1  0.68148100  0.47650200  0.27597000  1
  H  472  1  0.68779500  0.51432000  0.29277400  1
  H  474  1  0.83973300  0.49425700  0.24522300  1
  H  475  1  0.82248900  0.49289100  0.21170600  1
  H  476  1  0.82876000  0.53072900  0.22848800  1
  H  478  1  0.82059300  0.49587400  0.29415900  1
  H  480  1  0.68955800  0.51135700  0.21042700  1
  H  486  1  0.47526500  0.22593000  0.71778700  1
  H  488  1  0.53402000  0.28165400  0.79090000  1
  H  490  1  0.58152300  0.21642300  0.75773900  1
  H  491  1  0.58680900  0.25788300  0.76549400  1
  H  492  1  0.57169200  0.23082000  0.79116700  1
  H  494  1  0.42776200  0.29115900  0.75095400  1
  H  495  1  0.43759900  0.27678200  0.71752300  1
  H  496  1  0.42247500  0.24970300  0.74318100  1
  H  498  1  0.48707200  0.32579100  0.78435100  1
  H  500  1  0.52217900  0.18181700  0.72426600  1
  H  506  1  0.03407100  0.47713900  0.46588600  1
  H  508  1  0.97558100  0.53023700  0.54055100  1
  H  510  1  0.92862400  0.46495900  0.50697700  1
  H  511  1  0.92271900  0.50625000  0.51511200  1
  H  512  1  0.93862900  0.47915700  0.54040500  1
  H  514  1  0.08109400  0.54228600  0.49957900  1
  H  515  1  0.07107000  0.52823600  0.46610300  1
  H  516  1  0.08692000  0.50102400  0.49132700  1
  H  518  1  0.02143000  0.57500000  0.53478800  1
  H  520  1  0.98828500  0.43248500  0.47132700  1
  H  526  1  0.72476500  0.77914200  0.96556000  1
  H  528  1  0.78333700  0.72838300  0.04136800  1
  H  530  1  0.82963800  0.79368200  0.00719500  1
  H  531  1  0.83609500  0.75261400  0.01584500  1
  H  532  1  0.81958200  0.77986000  0.04072300  1
  H  534  1  0.67845500  0.71385300  0.99973900  1
  H  535  1  0.68850600  0.72767500  0.96621100  1
  H  536  1  0.67200700  0.75492300  0.99109700  1
  H  538  1  0.73834200  0.68302500  0.03643200  1
  H  540  1  0.76982400  0.82448700  0.97048200  1
  H  546  1  0.22406900  0.97781400  0.29182200  1
  H  548  1  0.28293100  0.03070800  0.21726800  1
  H  550  1  0.32958600  0.96528000  0.25092700  1
  H  551  1  0.33566300  0.00657100  0.24288200  1
  H  552  1  0.31975600  0.97958900  0.21750400  1
  H  554  1  0.17727500  0.04297100  0.25791000  1
  H  555  1  0.18716400  0.02899300  0.29144000  1
  H  556  1  0.17136400  0.00173800  0.26622700  1
  H  558  1  0.23712000  0.07562700  0.22300600  1
  H  560  1  0.26973500  0.93313900  0.28676900  1
  H  566  1  0.26749700  0.23228000  0.04988200  1
  H  568  1  0.24070800  0.27548200  0.95881500  1
  H  570  1  0.16998300  0.24193900  0.99603000  1
  H  571  1  0.18020700  0.27875100  0.97948700  1
  H  572  1  0.18797500  0.24113400  0.96280400  1
  H  574  1  0.33821900  0.26602300  0.01280800  1
  H  575  1  0.32011700  0.26668500  0.04598400  1
  H  576  1  0.32807300  0.22913400  0.02925600  1
  H  578  1  0.32114300  0.26429600  0.96433300  1
  H  580  1  0.18765100  0.24442900  0.04489300  1
  H  586  1  0.77446500  0.03926700  0.71411500  1
  H  588  1  0.74328600  0.98752900  0.80077900  1
  H  590  1  0.67593500  0.03089700  0.76610400  1
  H  591  1  0.68323200  0.99310100  0.78190800  1
  H  592  1  0.69400500  0.02943100  0.79946000  1
  H  594  1  0.84060300  0.99189300  0.74615200  1
  H  595  1  0.82274600  0.99826600  0.71334800  1
  H  596  1  0.83482200  0.03189600  0.73398000  1
  H  598  1  0.82413600  0.99582200  0.79526700  1
  H  600  1  0.71118300  0.07449100  0.73839900  1
  H  606  1  0.51611400  0.98327300  0.45930300  1
  H  608  1  0.49020000  0.02760500  0.55016000  1
  H  610  1  0.41888900  0.99484900  0.51319600  1
  H  611  1  0.42970900  0.03157500  0.52959700  1
  H  612  1  0.43688200  0.99393000  0.54643000  1
  H  614  1  0.58740300  0.01640800  0.49598200  1
  H  615  1  0.56917800  0.01710100  0.46285400  1
  H  616  1  0.57672400  0.97955600  0.47972900  1
  H  618  1  0.57043400  0.01544900  0.54456900  1
  H  620  1  0.43689400  0.99681300  0.46398700  1
  H  626  1  0.01725500  0.77509500  0.79781200  1
  H  628  1  0.99040200  0.73047300  0.70725100  1
  H  630  1  0.91928500  0.76226500  0.74514800  1
  H  631  1  0.93030400  0.72571500  0.72855900  1
  H  632  1  0.93670800  0.76348000  0.71169500  1
  H  634  1  0.08835000  0.74309400  0.76006600  1
  H  635  1  0.07079600  0.74194500  0.79346200  1
  H  636  1  0.07741500  0.77968800  0.77662500  1
  H  638  1  0.06990500  0.74456100  0.71124700  1
  H  640  1  0.93815100  0.76071800  0.79415900  1
  H  646  1  0.98940100  0.21417300  0.21842800  1
  H  648  1  0.01842800  0.27952900  0.29842800  1
  H  650  1  0.08957200  0.24694600  0.26147600  1
  H  651  1  0.07563100  0.28297000  0.27671100  1
  H  652  1  0.07454700  0.24625500  0.29598500  1
  H  654  1  0.91934800  0.25497800  0.25060400  1
  H  655  1  0.93593500  0.24776800  0.21744500  1
  H  656  1  0.93007800  0.21506300  0.24097100  1
  H  658  1  0.93864300  0.26003600  0.29828800  1
  H  660  1  0.06905000  0.20096600  0.23988000  1
  H  666  1  0.52002600  0.47099500  0.96301700  1
  H  668  1  0.49077000  0.54504100  0.03706700  1
  H  670  1  0.42011600  0.50579600  0.00465000  1
  H  671  1  0.43283200  0.54577300  0.01203000  1
  H  672  1  0.43544900  0.51505900  0.03785700  1
  H  674  1  0.59088500  0.50067500  0.00179400  1
  H  675  1  0.57845500  0.50063100  0.96651000  1
  H  676  1  0.57490300  0.46518700  0.98725800  1
  H  678  1  0.57383600  0.54873800  0.01985800  1
  H  680  1  0.44047300  0.49416200  0.95912400  1
  C  1  1  0.07151500  0.07242400  0.06741900  1
  C  2  1  0.06050100  0.10269900  0.07722400  1
  C  3  1  0.07878700  0.12071200  0.09662000  1
  C  4  1  0.10843500  0.10896100  0.10794100  1
  C  5  1  0.12041600  0.07978400  0.09594600  1
  C  6  1  0.10224700  0.06159100  0.07659300  1
  C  7  1  0.12851800  0.12868700  0.12888000  1
  C  8  1  0.14944000  0.14866100  0.10874900  1
  C  9  1  0.17958600  0.13710100  0.09830600  1
  C  10  1  0.19832200  0.15506100  0.07918000  1
  C  11  1  0.18734700  0.18508700  0.06876200  1
  C  12  1  0.15639200  0.19591700  0.07736400  1
  C  13  1  0.13778400  0.17780700  0.09646100  1
  C  14  1  0.10812600  0.14905400  0.14911200  1
  C  15  1  0.14800900  0.10812300  0.14960900  1
  C  16  1  0.17691100  0.11996700  0.16218600  1
  C  17  1  0.19501600  0.10135800  0.18129200  1
  C  18  1  0.18434400  0.07026900  0.18967200  1
  C  19  1  0.15454000  0.05908900  0.17894100  1
  C  20  1  0.13651900  0.07788500  0.15989800  1
  C  21  1  0.07837100  0.13733300  0.16027600  1
  C  22  1  0.05898700  0.15623000  0.17819600  1
  C  23  1  0.06960800  0.18696000  0.18717000  1
  C  24  1  0.10019500  0.19808500  0.17822500  1
  C  25  1  0.11924900  0.17915600  0.16004100  1
  C  46  1  0.68954100  0.18483400  0.56939700  1
  C  47  1  0.70258700  0.15772900  0.58333800  1
  C  48  1  0.68385500  0.13982000  0.60249700  1
  C  49  1  0.65131100  0.14834300  0.60909400  1
  C  50  1  0.63797600  0.17433500  0.59327900  1
  C  51  1  0.65661900  0.19249800  0.57425200  1
  C  52  1  0.62988400  0.12889600  0.62929600  1
  C  53  1  0.60843900  0.11003000  0.60870200  1
  C  54  1  0.57583200  0.11862700  0.60242000  1
  C  55  1  0.55695900  0.10103100  0.58315400  1
  C  56  1  0.56994900  0.07424000  0.56873500  1
  C  57  1  0.60296600  0.06665800  0.57315200  1
  C  58  1  0.62173900  0.08452100  0.59229000  1
  C  59  1  0.64913100  0.10721300  0.64944400  1
  C  60  1  0.61066500  0.15003200  0.64988200  1
  C  61  1  0.58487600  0.13645300  0.66577900  1
  C  62  1  0.56653200  0.15496000  0.68478700  1
  C  63  1  0.57388000  0.18796500  0.68963800  1
  C  64  1  0.60071300  0.20128800  0.67548800  1
  C  65  1  0.61889500  0.18265000  0.65645200  1
  C  66  1  0.67477100  0.12046500  0.66573900  1
  C  67  1  0.69324400  0.10143600  0.68425500  1
  C  68  1  0.68619500  0.06822100  0.68806500  1
  C  69  1  0.65997200  0.05488700  0.67315800  1
  C  70  1  0.64139800  0.07417800  0.65490000  1
  C  91  1  0.18648500  0.57082200  0.69042700  1
  C  92  1  0.19687500  0.60179700  0.68178300  1
  C  93  1  0.17870100  0.62004200  0.66245500  1
  C  94  1  0.15000700  0.60775700  0.64980100  1
  C  95  1  0.13856500  0.57773800  0.66054600  1
  C  96  1  0.15650600  0.55942200  0.67995100  1
  C  97  1  0.13032300  0.62772900  0.62876000  1
  C  98  1  0.10949700  0.64795900  0.64876000  1
  C  99  1  0.08022100  0.63566000  0.66035400  1
  C  100  1  0.06136100  0.65369700  0.67932500  1
  C  101  1  0.07144300  0.68456500  0.68849900  1
  C  102  1  0.10162400  0.69625300  0.67876600  1
  C  103  1  0.12033000  0.67808800  0.65977400  1
  C  104  1  0.15107700  0.64782600  0.60862000  1
  C  105  1  0.11068100  0.60740600  0.60795500  1
  C  106  1  0.08090100  0.61856500  0.59647600  1
  C  107  1  0.06283200  0.59997600  0.57733300  1
  C  108  1  0.07434200  0.56962900  0.56784400  1
  C  109  1  0.10491300  0.55921200  0.57748800  1
  C  110  1  0.12293800  0.57804300  0.59650500  1
  C  111  1  0.18184200  0.63693600  0.59897900  1
  C  112  1  0.20121600  0.65574600  0.58099500  1
  C  113  1  0.18967300  0.68539000  0.57034000  1
  C  114  1  0.15819200  0.69554300  0.57778000  1
  C  115  1  0.13918000  0.67678900  0.59612300  1
  C  136  1  0.57251900  0.68703600  0.19042300  1
  C  137  1  0.56568600  0.65405100  0.18546600  1
  C  138  1  0.58406400  0.63593700  0.16620200  1
  C  139  1  0.60933400  0.65007100  0.15003100  1
  C  140  1  0.61729700  0.68267400  0.15683200  1
  C  141  1  0.59915600  0.70088700  0.17617200  1
  C  142  1  0.62865000  0.62960800  0.12902400  1
  C  143  1  0.64915700  0.60882000  0.14891000  1
  C  144  1  0.67532900  0.62276500  0.16410000  1
  C  145  1  0.69431800  0.60460000  0.18288000  1
  C  146  1  0.68734400  0.57173400  0.18827000  1
  C  147  1  0.66026800  0.55790000  0.17464100  1
  C  148  1  0.64149200  0.57616100  0.15577800  1
  C  149  1  0.60741600  0.60979400  0.10895600  1
  C  150  1  0.64872800  0.64970500  0.10829100  1
  C  151  1  0.68118200  0.64197700  0.10075200  1
  C  152  1  0.69900500  0.66080100  0.08161100  1
  C  153  1  0.68483400  0.68789700  0.06830600  1
  C  154  1  0.65212800  0.69492900  0.07432200  1
  C  155  1  0.63435800  0.67577700  0.09327100  1
  C  156  1  0.57425800  0.61693800  0.10350500  1
  C  157  1  0.55525700  0.59784000  0.08544800  1
  C  158  1  0.56903500  0.57172400  0.07070500  1
  C  159  1  0.60238600  0.56534600  0.07435000  1
  C  160  1  0.62112300  0.58432600  0.09272400  1
  C  181  1  0.81937100  0.32206600  0.43745900  1
  C  182  1  0.85226700  0.31444300  0.43271300  1
  C  183  1  0.87105000  0.33314800  0.41415800  1
  C  184  1  0.85775200  0.35955000  0.39881100  1
  C  185  1  0.82523200  0.36803000  0.40552700  1
  C  186  1  0.80615100  0.34921500  0.42375000  1
  C  187  1  0.87879700  0.37911600  0.37844000  1
  C  188  1  0.89892100  0.39943200  0.39894300  1
  C  189  1  0.88520100  0.42671900  0.41275000  1
  C  190  1  0.90316200  0.44588800  0.43155900  1
  C  191  1  0.93527700  0.43766700  0.43872500  1
  C  192  1  0.94862400  0.40934500  0.42673300  1
  C  193  1  0.93064600  0.39051300  0.40770300  1
  C  194  1  0.89919300  0.35817500  0.35861700  1
  C  195  1  0.85935000  0.39920200  0.35727800  1
  C  196  1  0.86841200  0.43103500  0.34896600  1
  C  197  1  0.85029100  0.44900400  0.32942900  1
  C  198  1  0.82258600  0.43555500  0.31646400  1
  C  199  1  0.81459200  0.40318100  0.32290500  1
  C  200  1  0.83296700  0.38530200  0.34232900  1
  C  201  1  0.89022800  0.32616700  0.35075400  1
  C  202  1  0.90873200  0.30766000  0.33187200  1
  C  203  1  0.93686800  0.32061900  0.31920000  1
  C  204  1  0.94507600  0.35298800  0.32547700  1
  C  205  1  0.92633000  0.37142700  0.34425300  1
  C  226  1  0.93983400  0.93494800  0.93704200  1
  C  227  1  0.90651100  0.94150900  0.93343200  1
  C  228  1  0.88767200  0.92274600  0.91496800  1
  C  229  1  0.90124200  0.89731800  0.89859800  1
  C  230  1  0.93433200  0.88990300  0.90408800  1
  C  231  1  0.95344200  0.90879300  0.92222800  1
  C  232  1  0.87996400  0.87789000  0.87826900  1
  C  233  1  0.85968700  0.85765500  0.89874600  1
  C  234  1  0.87382900  0.83126700  0.91351400  1
  C  235  1  0.85593800  0.81212500  0.93238700  1
  C  236  1  0.82333800  0.81945800  0.93857500  1
  C  237  1  0.80940500  0.84683300  0.92551000  1
  C  238  1  0.82734600  0.86564700  0.90644300  1
  C  239  1  0.85965800  0.89909800  0.85855900  1
  C  240  1  0.89924900  0.85761100  0.85710300  1
  C  241  1  0.89115900  0.82515200  0.84989600  1
  C  242  1  0.90932900  0.80712100  0.83043500  1
  C  243  1  0.93607800  0.82106600  0.81642000  1
  C  244  1  0.94309500  0.85392100  0.82182000  1
  C  245  1  0.92468800  0.87184500  0.84119200  1
  C  246  1  0.86775900  0.93171800  0.85196400  1
  C  247  1  0.84923300  0.95044000  0.83327400  1
  C  248  1  0.82200700  0.93715400  0.81942900  1
  C  249  1  0.81454600  0.90434300  0.82461200  1
  C  250  1  0.83330700  0.88569400  0.84323400  1
  C  271  1  0.32310700  0.43948100  0.82063300  1
  C  272  1  0.34978500  0.45257100  0.83508300  1
  C  273  1  0.36835000  0.43316900  0.85325700  1
  C  274  1  0.36011800  0.40035100  0.85912600  1
  C  275  1  0.33409400  0.38728800  0.84317200  1
  C  276  1  0.31562100  0.40641800  0.82472400  1
  C  277  1  0.37931000  0.37869900  0.87932200  1
  C  278  1  0.39860700  0.35763400  0.85875500  1
  C  279  1  0.38995100  0.32525800  0.85173000  1
  C  280  1  0.40813700  0.30660100  0.83271300  1
  C  281  1  0.43540000  0.31969500  0.81902000  1
  C  282  1  0.44320800  0.35250100  0.82432800  1
  C  283  1  0.42484900  0.37103400  0.84331000  1
  C  284  1  0.40057400  0.39763500  0.89999800  1
  C  285  1  0.35794200  0.35919100  0.89951200  1
  C  286  1  0.37121400  0.33292500  0.91502400  1
  C  287  1  0.35266300  0.31481400  0.93415600  1
  C  288  1  0.31992000  0.32282800  0.93947900  1
  C  289  1  0.30695200  0.35013900  0.92576500  1
  C  290  1  0.32559700  0.36801000  0.90651000  1
  C  291  1  0.38725900  0.42349400  0.91598800  1
  C  292  1  0.40593100  0.44147400  0.93511400  1
  C  293  1  0.43880500  0.43364000  0.93996700  1
  C  294  1  0.45171700  0.40643300  0.92608600  1
  C  295  1  0.43296100  0.38874300  0.90679400  1
  C  316  1  0.43929400  0.82274600  0.32101900  1
  C  317  1  0.40608800  0.81579700  0.32487700  1
  C  318  1  0.38716000  0.83454300  0.34328200  1
  C  319  1  0.40056000  0.86032200  0.35933700  1
  C  320  1  0.43348700  0.86813800  0.35355000  1
  C  321  1  0.45268900  0.84927900  0.33546900  1
  C  322  1  0.37925200  0.87977500  0.37959600  1
  C  323  1  0.35907500  0.89999600  0.35904100  1
  C  324  1  0.37315400  0.92662800  0.34455700  1
  C  325  1  0.35528200  0.94581100  0.32570300  1
  C  326  1  0.32282100  0.93824800  0.31919500  1
  C  327  1  0.30900600  0.91059200  0.33192000  1
  C  328  1  0.32691400  0.89174900  0.35099400  1
  C  329  1  0.35891200  0.85863000  0.39931200  1
  C  330  1  0.39849800  0.90002900  0.40078700  1
  C  331  1  0.39009600  0.93232900  0.40824200  1
  C  332  1  0.40824900  0.95040600  0.42767800  1
  C  333  1  0.43528400  0.93663800  0.44141300  1
  C  334  1  0.44259500  0.90389700  0.43580500  1
  C  335  1  0.42418500  0.88591700  0.41648100  1
  C  336  1  0.36734400  0.82622900  0.40639900  1
  C  337  1  0.34884400  0.80761300  0.42519700  1
  C  338  1  0.32126400  0.82081100  0.43855400  1
  C  339  1  0.31357500  0.85348700  0.43301500  1
  C  340  1  0.33230700  0.87202700  0.41430200  1
  C  361  1  0.02892900  0.01435900  0.02313400  1
  C  362  1  0.03713800  0.99303300  0.00087800  1
  C  363  1  0.01196300  0.97758900  0.98581700  1
  C  364  1  0.97866100  0.98307400  0.99146700  1
  C  365  1  0.97056700  0.00584700  0.01278300  1
  C  367  1  0.99575100  0.02046400  0.02847700  1
  C  369  1  0.93681000  0.01556200  0.02022300  1
  C  373  1  0.07105300  0.98555000  0.99223200  1
  C  377  1  0.05210100  0.02653300  0.04151400  1
  C  379  1  0.95519800  0.96455000  0.97755700  1
  C  381  1  0.73089000  0.24261800  0.52400400  1
  C  382  1  0.72254400  0.26288000  0.50105100  1
  C  383  1  0.74756800  0.27863700  0.48603400  1
  C  384  1  0.78089800  0.27438600  0.49232000  1
  C  385  1  0.78919800  0.25258400  0.51432100  1
  C  387  1  0.76412500  0.23775900  0.53000600  1
  C  389  1  0.82305400  0.24406600  0.52248500  1
  C  393  1  0.68864100  0.26889900  0.49154400  1
  C  397  1  0.70762600  0.23004000  0.54214000  1
  C  399  1  0.80411100  0.29306000  0.47821600  1
  C  401  1  0.22717500  0.51282100  0.73613300  1
  C  402  1  0.21812400  0.49643400  0.76110300  1
  C  403  1  0.24190000  0.47862600  0.77589700  1
  C  404  1  0.27444000  0.47671700  0.76677500  1
  C  405  1  0.28380900  0.49406000  0.74241700  1
  C  407  1  0.25999500  0.51178600  0.72754300  1
  C  409  1  0.31742300  0.49416200  0.73104600  1
  C  413  1  0.18454400  0.49613100  0.77260700  1
  C  417  1  0.20417400  0.52544500  0.71791900  1
  C  419  1  0.29466300  0.45457100  0.77988200  1
  C  421  1  0.52881600  0.74425100  0.23478700  1
  C  422  1  0.53687800  0.76533000  0.25724500  1
  C  423  1  0.51158200  0.78042300  0.27240700  1
  C  424  1  0.47832500  0.77483600  0.26661500  1
  C  425  1  0.47040500  0.75223600  0.24511300  1
  C  427  1  0.49570900  0.73795400  0.22933600  1
  C  429  1  0.43672200  0.74244700  0.23750600  1
  C  433  1  0.57074400  0.77295700  0.26593900  1
  C  437  1  0.55204600  0.73274500  0.21619600  1
  C  439  1  0.45473600  0.79315300  0.28055800  1
  C  441  1  0.27875100  0.76333200  0.48357800  1
  C  442  1  0.28706600  0.74390200  0.50705000  1
  C  443  1  0.26206100  0.72821000  0.52212000  1
  C  444  1  0.22879600  0.73162000  0.51523000  1
  C  445  1  0.22049300  0.75254400  0.49261400  1
  C  447  1  0.24557600  0.76743300  0.47698500  1
  C  449  1  0.18663600  0.75994200  0.48370300  1
  C  453  1  0.32093900  0.73865200  0.51695200  1
  C  457  1  0.30203200  0.77519700  0.46519300  1
  C  459  1  0.20573000  0.71281300  0.52933200  1
  C  461  1  0.78012200  0.49074500  0.26970900  1
  C  462  1  0.78813900  0.50421800  0.24324300  1
  C  463  1  0.76298300  0.51671300  0.22624800  1
  C  464  1  0.73013300  0.51646300  0.23474300  1
  C  465  1  0.72211700  0.50299300  0.26121100  1
  C  467  1  0.74727200  0.49049100  0.27820200  1
  C  469  1  0.68857300  0.50173000  0.27274000  1
  C  473  1  0.82168700  0.50550100  0.23173100  1
  C  477  1  0.80357300  0.48019700  0.28844200  1
  C  479  1  0.70667800  0.52699000  0.21601000  1
  C  481  1  0.48905000  0.27897600  0.76989700  1
  C  482  1  0.47189200  0.26270600  0.74826100  1
  C  483  1  0.48774100  0.23764700  0.73333900  1
  C  484  1  0.52022700  0.22859700  0.73880300  1
  C  485  1  0.53739000  0.24487800  0.76042900  1
  C  487  1  0.52154400  0.26994100  0.77534400  1
  C  489  1  0.57119300  0.23689500  0.76899900  1
  C  493  1  0.43809200  0.27069300  0.73968800  1
  C  497  1  0.47615200  0.30435800  0.78540900  1
  C  499  1  0.53314200  0.20323200  0.72328300  1
  C  501  1  0.02030400  0.52870900  0.51907800  1
  C  502  1  0.03737600  0.51317500  0.49699600  1
  C  503  1  0.02164700  0.48827700  0.48178000  1
  C  504  1  0.98933700  0.47866500  0.48734800  1
  C  505  1  0.97228300  0.49416900  0.50946000  1
  C  507  1  0.98800600  0.51908200  0.52466300  1
  C  509  1  0.93874000  0.48549500  0.51828500  1
  C  513  1  0.07094000  0.52182000  0.48820400  1
  C  517  1  0.03303500  0.55389100  0.53496500  1
  C  519  1  0.97659200  0.45356000  0.47137300  1
  C  521  1  0.73878500  0.72883100  0.01959300  1
  C  522  1  0.72170000  0.74366900  0.99716500  1
  C  523  1  0.73720200  0.76849700  0.98169400  1
  C  524  1  0.76931700  0.77868700  0.98733100  1
  C  525  1  0.78640200  0.76385400  0.00976400  1
  C  527  1  0.77090300  0.73901800  0.02522600  1
  C  529  1  0.81974200  0.77317200  0.01868200  1
  C  533  1  0.68835500  0.73436000  0.98825400  1
  C  537  1  0.72626100  0.70387400  0.03586900  1
  C  539  1  0.78186600  0.80361700  0.97104300  1
  C  541  1  0.23813300  0.02929300  0.23862400  1
  C  542  1  0.22094500  0.01380800  0.26066400  1
  C  543  1  0.23657000  0.98889600  0.27594500  1
  C  544  1  0.26887900  0.97920900  0.27047200  1
  C  545  1  0.28603800  0.99464500  0.24838200  1
  C  547  1  0.27042600  0.01958900  0.23312600  1
  C  549  1  0.31958300  0.98588000  0.23963200  1
  C  553  1  0.18736200  0.02252000  0.26935200  1
  C  557  1  0.22551800  0.05452000  0.22272200  1
  C  559  1  0.28153700  0.95415300  0.28656000  1
  C  561  1  0.27910300  0.26741500  0.98715800  1
  C  562  1  0.28693700  0.25429100  0.01380900  1
  C  563  1  0.26181800  0.24111200  0.03047200  1
  C  564  1  0.22913200  0.24038000  0.02153400  1
  C  565  1  0.22129300  0.25347200  0.99488200  1
  C  567  1  0.24641500  0.26661900  0.97821000  1
  C  569  1  0.18796900  0.25374300  0.98284000  1
  C  573  1  0.32022800  0.25412200  0.02592600  1
  C  577  1  0.30264300  0.27881600  0.96881300  1
  C  579  1  0.20555700  0.22937100  0.03999600  1
  C  581  1  0.78212500  0.99467700  0.77268400  1
  C  582  1  0.79102400  0.00939500  0.74691100  1
  C  583  1  0.76754900  0.02751000  0.73202900  1
  C  584  1  0.73543900  0.03127500  0.74182500  1
  C  585  1  0.72615700  0.01555500  0.76700700  1
  C  587  1  0.74967800  0.99754100  0.78197200  1
  C  589  1  0.69296300  0.01751600  0.77914300  1
  C  593  1  0.82418200  0.00766600  0.73461000  1
  C  597  1  0.80519500  0.98190800  0.79077100  1
  C  599  1  0.71582200  0.05379000  0.72850300  1
  C  601  1  0.52838400  0.01876400  0.52176300  1
  C  602  1  0.53597400  0.00532800  0.49518300  1
  C  603  1  0.51062700  0.99233700  0.47867700  1
  C  604  1  0.47797800  0.99212400  0.48772600  1
  C  605  1  0.47037200  0.00554800  0.51429200  1
  C  607  1  0.49572400  0.01847400  0.53082200  1
  C  609  1  0.43706600  0.00642800  0.52634500  1
  C  613  1  0.56921200  0.00466000  0.48296700  1
  C  617  1  0.55211400  0.03013000  0.53991200  1
  C  619  1  0.45425800  0.98134800  0.46935100  1
  C  621  1  0.02892200  0.73985500  0.73516500  1
  C  622  1  0.03678500  0.75333900  0.76166600  1
  C  623  1  0.01155200  0.76596100  0.77851100  1
  C  624  1  0.97875500  0.76578600  0.76986300  1
  C  625  1  0.97087700  0.75223600  0.74339800  1
  C  627  1  0.99611500  0.73965100  0.72653600  1
  C  629  1  0.93738900  0.75094800  0.73175600  1
  C  633  1  0.07023900  0.75448400  0.77340000  1
  C  637  1  0.05250400  0.72912900  0.71660500  1
  C  639  1  0.95522200  0.77637100  0.78850900  1
  C  641  1  0.97919700  0.26335300  0.27378800  1
  C  642  1  0.97091800  0.24466900  0.24984900  1
  C  643  1  0.99583400  0.22863300  0.23493500  1
  C  644  1  0.02896500  0.23093400  0.24252600  1
  C  645  1  0.03732000  0.25100100  0.26567200  1
  C  647  1  0.01230900  0.26637900  0.28103400  1
  C  649  1  0.07117700  0.25691300  0.27533600  1
  C  653  1  0.93714900  0.24050000  0.23933100  1
  C  657  1  0.95579200  0.27528800  0.29203500  1
  C  659  1  0.05171400  0.21158500  0.22869300  1
  C  661  1  0.53055900  0.52366300  0.01612300  1
  C  662  1  0.53884500  0.50098800  0.99479200  1
  C  663  1  0.51377200  0.48612800  0.97913600  1
  C  664  1  0.48053700  0.49187300  0.98454200  1
  C  665  1  0.47216600  0.51310500  0.00682700  1
  C  667  1  0.49722000  0.52883000  0.02182000  1
  C  669  1  0.43821500  0.52019500  0.01562800  1
  C  673  1  0.57268200  0.49158200  0.98732900  1
  C  677  1  0.55386000  0.54233400  0.03006600  1
  C  679  1  0.45739400  0.47920000  0.96636400  1
  N  41  1  0.20042400  0.05066200  0.20708000  1
  N  42  1  0.05007800  0.20555200  0.20237700  1
  N  43  1  0.05239300  0.05629500  0.04966300  1
  N  44  1  0.20662400  0.20081700  0.05084500  1
  N  86  1  0.55756000  0.20746600  0.70695100  1
  N  87  1  0.70422600  0.04872500  0.70397200  1
  N  88  1  0.70879000  0.20086400  0.55169000  1
  N  89  1  0.55050400  0.05852100  0.55101000  1
  N  131  1  0.05824900  0.55000400  0.55046100  1
  N  132  1  0.20922600  0.70366600  0.55484400  1
  N  133  1  0.20552800  0.55453400  0.70820900  1
  N  134  1  0.05207700  0.70027600  0.70634000  1
  N  176  1  0.70055000  0.70761400  0.05077100  1
  N  177  1  0.54974200  0.55338500  0.05495000  1
  N  178  1  0.55331400  0.70291700  0.20830100  1
  N  179  1  0.70667800  0.55603300  0.20614600  1
  N  221  1  0.80345400  0.45119800  0.29839800  1
  N  222  1  0.95612400  0.30453900  0.30146300  1
  N  223  1  0.79999900  0.30383100  0.45323800  1
  N  224  1  0.95119200  0.45742300  0.45610300  1
  N  266  1  0.95527800  0.80539400  0.79841700  1
  N  267  1  0.80290400  0.95345700  0.80168900  1
  N  268  1  0.95927600  0.95318000  0.95277300  1
  N  269  1  0.80755200  0.79981200  0.95611900  1
  N  311  1  0.30073500  0.30702300  0.95739200  1
  N  312  1  0.45809900  0.44967500  0.95761100  1
  N  313  1  0.30489800  0.45900400  0.80494300  1
  N  314  1  0.45172400  0.30016000  0.80173700  1
  N  356  1  0.45455400  0.95240700  0.45928000  1
  N  357  1  0.30208100  0.80466900  0.45629300  1
  N  358  1  0.45881700  0.80460400  0.30531100  1
  N  359  1  0.30701300  0.95799400  0.30174300  1
