# generated using pymatgen
data_H7C10N3
_symmetry_space_group_name_H-M   'P 1'
_cell_length_a   21.87225100
_cell_length_b   21.87225100
_cell_length_c   21.87225100
_cell_angle_alpha   109.47122063
_cell_angle_beta   109.47122063
_cell_angle_gamma   109.47122063
_symmetry_Int_Tables_number   1
_chemical_formula_structural   H7C10N3
_chemical_formula_sum   'H84 C120 N36'
_cell_volume   8054.87030916
_cell_formula_units_Z   12
loop_
 _symmetry_equiv_pos_site_id
 _symmetry_equiv_pos_as_xyz
  1  'x, y, z'
loop_
 _atom_site_type_symbol
 _atom_site_label
 _atom_site_symmetry_multiplicity
 _atom_site_fract_x
 _atom_site_fract_y
 _atom_site_fract_z
 _atom_site_occupancy
  C  1  1  0.17489000  0.72058800  0.43374700  1
  C  2  1  0.19173450  0.68991750  0.48896100  1
  C  3  1  0.21689000  0.70777650  0.38906350  1
  C  4  1  0.30441300  0.74660150  0.44231350  1
  C  7  1  0.31593700  0.71378900  0.49598600  1
  C  8  1  0.27763350  0.72832750  0.54413600  1
  C  13  1  0.30948000  0.81500450  0.58877550  1
  C  14  1  0.29497450  0.84922400  0.53548850  1
  C  17  1  0.33432400  0.83255450  0.48888050  1
  C  20  1  0.20848250  0.80704650  0.48185400  1
  C  23  1  0.82873400  0.27170950  0.53639350  1
  C  24  1  0.81194000  0.31010300  0.48889400  1
  C  25  1  0.78670150  0.18503150  0.48157700  1
  C  26  1  0.69918800  0.15079600  0.43286700  1
  C  29  1  0.68770850  0.19296200  0.38854350  1
  C  30  1  0.72604850  0.27941800  0.44139450  1
  C  35  1  0.69419550  0.29223350  0.49621900  1
  C  36  1  0.70865300  0.25343100  0.54493300  1
  C  39  1  0.66926700  0.16747100  0.48890200  1
  C  42  1  0.79513750  0.28625100  0.58924950  1
  C  45  1  0.73005050  0.55517800  0.26463550  1
  C  46  1  0.69166950  0.49997250  0.17874400  1
  C  47  1  0.81673400  0.59984550  0.29650350  1
  C  48  1  0.85098700  0.54657950  0.28205250  1
  C  51  1  0.80883100  0.49292050  0.19556850  1
  C  52  1  0.72237600  0.44478300  0.16195800  1
  C  57  1  0.70956900  0.40012950  0.20398250  1
  C  58  1  0.74836350  0.45340700  0.29149650  1
  C  61  1  0.83432150  0.49999900  0.32142850  1
  C  64  1  0.71552250  0.50705550  0.30296800  1
  C  67  1  0.28120500  0.45246800  0.71305700  1
  C  68  1  0.31191200  0.49996450  0.79895350  1
  C  69  1  0.29399600  0.50729000  0.68120100  1
  C  70  1  0.25519250  0.55599900  0.69567350  1
  C  73  1  0.28803400  0.60031900  0.78216100  1
  C  74  1  0.27351800  0.54746250  0.81576250  1
  C  79  1  0.18683950  0.49263900  0.77375050  1
  C  80  1  0.15258550  0.44392950  0.68623400  1
  C  83  1  0.16923500  0.49996400  0.65631000  1
  C  86  1  0.19475300  0.39961100  0.67473800  1
  C  89  1  0.45428750  0.72423800  0.26828450  1
  C  90  1  0.50178900  0.81012650  0.29896450  1
  C  91  1  0.50910850  0.69237900  0.28109350  1
  C  92  1  0.55781100  0.70682400  0.24227800  1
  C  95  1  0.60213650  0.79330750  0.27509800  1
  C  96  1  0.54928400  0.82691100  0.26056400  1
  C  101  1  0.49445650  0.78487750  0.17388500  1
  C  102  1  0.44574200  0.69736850  0.13965550  1
  C  105  1  0.50177100  0.66743900  0.15632200  1
  C  108  1  0.40142450  0.68589600  0.18182950  1
  C  111  1  0.55702600  0.27581200  0.71716300  1
  C  112  1  0.50183200  0.18991700  0.67876800  1
  C  113  1  0.60167900  0.30767300  0.80384300  1
  C  114  1  0.54840650  0.29320550  0.83808400  1
  C  117  1  0.49475950  0.20671900  0.79592050  1
  C  118  1  0.44663500  0.17311300  0.70946300  1
  C  123  1  0.40197200  0.21512450  0.69665550  1
  C  124  1  0.45523400  0.30263950  0.73545450  1
  C  127  1  0.50181800  0.33257100  0.82141600  1
  C  130  1  0.50889200  0.31413400  0.70262700  1
  C  265  1  0.32408600  0.93248200  0.57746700  1
  C  267  1  0.39440300  0.04259100  0.69953200  1
  C  268  1  0.39590250  0.08956600  0.66799350  1
  C  270  1  0.32015350  0.97924650  0.54560500  1
  C  272  1  0.28939500  0.95895200  0.47498400  1
  C  274  1  0.67955900  0.26633400  0.59909200  1
  C  276  1  0.60934050  0.31821200  0.63895350  1
  C  277  1  0.60777900  0.28510250  0.68436450  1
  C  279  1  0.68347300  0.23840250  0.64978750  1
  C  281  1  0.71418500  0.19849750  0.66022950  1
  C  283  1  0.65791700  0.06753900  0.37871700  1
  C  285  1  0.66989500  0.95744500  0.33888300  1
  C  286  1  0.59138700  0.91045200  0.29333600  1
  C  288  1  0.57929350  0.02076550  0.32802000  1
  C  290  1  0.52895200  0.04104300  0.31758800  1
  C  292  1  0.34567600  0.73372550  0.40031650  1
  C  294  1  0.33369850  0.68193900  0.27824050  1
  C  295  1  0.41221800  0.71499600  0.30977000  1
  C  297  1  0.42430950  0.76170950  0.43216200  1
  C  299  1  0.47464950  0.80156150  0.50278100  1
  C  301  1  0.73547750  0.41142300  0.33276650  1
  C  303  1  0.68373850  0.28934900  0.32080550  1
  C  304  1  0.71681850  0.32090350  0.39932400  1
  C  306  1  0.76343200  0.44328050  0.41139850  1
  C  308  1  0.80329700  0.51390400  0.46173000  1
  C  310  1  0.06933300  0.38977150  0.64497850  1
  C  312  1  0.95925850  0.34990850  0.65699900  1
  C  313  1  0.91228300  0.30450150  0.57848050  1
  C  315  1  0.02255150  0.33907600  0.56635250  1
  C  317  1  0.04282250  0.32863400  0.51600650  1
  C  319  1  0.26807950  0.61015000  0.66657150  1
  C  321  1  0.31993300  0.65000850  0.59634550  1
  C  322  1  0.28697950  0.69556300  0.59491150  1
  C  324  1  0.24017050  0.66086150  0.67051200  1
  C  326  1  0.20024850  0.67128450  0.70120600  1
  C  328  1  0.93424600  0.58856200  0.31116400  1
  C  330  1  0.04435800  0.71063850  0.38147150  1
  C  331  1  0.09132700  0.67907650  0.38305550  1
  C  333  1  0.98102800  0.55670650  0.30731050  1
  C  335  1  0.96073000  0.48608300  0.27651600  1
  C  337  1  0.39159400  0.65609250  0.05639950  1
  C  339  1  0.35180550  0.66804900  0.94628750  1
  C  340  1  0.30633200  0.58953500  0.89931000  1
  C  342  1  0.34091050  0.57746450  0.00963000  1
  C  344  1  0.33045050  0.52713300  0.02992050  1
  C  346  1  0.41323350  0.34389250  0.72255200  1
  C  348  1  0.29113900  0.33186950  0.67068150  1
  C  349  1  0.32266500  0.41038600  0.70374700  1
  C  351  1  0.44507150  0.42251400  0.75047450  1
  C  353  1  0.51568800  0.47286500  0.79038300  1
  C  355  1  0.59038950  0.32230750  0.92133900  1
  C  357  1  0.71246600  0.39256250  0.03143350  1
  C  358  1  0.68093000  0.39403100  0.07840900  1
  C  360  1  0.55853550  0.31838500  0.96811250  1
  C  362  1  0.48791600  0.28767300  0.94783100  1
  C  364  1  0.61195800  0.67771100  0.25515600  1
  C  366  1  0.65178500  0.60744200  0.30696800  1
  C  367  1  0.69720450  0.60589450  0.27386700  1
  C  369  1  0.66260950  0.68157700  0.22717250  1
  C  371  1  0.67309400  0.71235300  0.18732400  1
  H  5  1  0.20575100  0.72935600  0.35045200  1
  H  6  1  0.19404600  0.64759100  0.35471600  1
  H  9  1  0.29345000  0.65355450  0.46218750  1
  H  10  1  0.37534250  0.73853550  0.53449900  1
  H  11  1  0.16937050  0.62936150  0.45782300  1
  H  12  1  0.16235050  0.69870700  0.52013350  1
  H  15  1  0.36968000  0.84250300  0.62735700  1
  H  16  1  0.28366600  0.82651850  0.62314950  1
  H  18  1  0.39448350  0.86311750  0.52783800  1
  H  19  1  0.32587550  0.85371900  0.44990050  1
  H  21  1  0.18206650  0.81837050  0.51567400  1
  H  22  1  0.19467700  0.82790450  0.44331850  1
  H  27  1  0.79780300  0.15754300  0.51428400  1
  H  28  1  0.80954700  0.17351050  0.44423650  1
  H  31  1  0.71019200  0.18163500  0.35079300  1
  H  32  1  0.62830850  0.17209400  0.35388750  1
  H  33  1  0.83431150  0.30131250  0.45071100  1
  H  34  1  0.84135050  0.37066150  0.52707700  1
  H  37  1  0.63400200  0.27064400  0.46351300  1
  H  38  1  0.72003100  0.35242350  0.53355450  1
  H  40  1  0.60911700  0.14629850  0.45929750  1
  H  41  1  0.67768100  0.13692200  0.51850800  1
  H  43  1  0.82157600  0.34648900  0.62699400  1
  H  44  1  0.80891550  0.26151050  0.62391100  1
  H  49  1  0.84421350  0.63844500  0.35669350  1
  H  50  1  0.82824450  0.63419900  0.27067050  1
  H  53  1  0.82014750  0.52672100  0.16913550  1
  H  54  1  0.82971000  0.45439550  0.18178950  1
  H  55  1  0.70044950  0.53111800  0.14933550  1
  H  56  1  0.63110950  0.46880750  0.15636400  1
  H  59  1  0.73117600  0.36154050  0.19288850  1
  H  60  1  0.64938500  0.36576850  0.18112750  1
  H  62  1  0.85550750  0.46103200  0.31301750  1
  H  63  1  0.86486150  0.53897450  0.38157800  1
  H  65  1  0.65528650  0.47324750  0.28047600  1
  H  66  1  0.74025900  0.54558550  0.36236650  1
  H  71  1  0.27239000  0.47458450  0.62100550  1
  H  72  1  0.35418050  0.54462700  0.70702150  1
  H  75  1  0.34826550  0.63806550  0.80858600  1
  H  76  1  0.26328950  0.63497550  0.79595100  1
  H  77  1  0.37246800  0.53814950  0.82834950  1
  H  78  1  0.30313450  0.46177950  0.82132500  1
  H  81  1  0.15935100  0.52534300  0.78486500  1
  H  82  1  0.17533700  0.45530150  0.79660150  1
  H  84  1  0.13869100  0.52956800  0.66473900  1
  H  85  1  0.14804700  0.47036050  0.59615550  1
  H  87  1  0.18344500  0.36186600  0.69722900  1
  H  88  1  0.17387400  0.36495200  0.61533600  1
  H  93  1  0.47639800  0.63218400  0.25950600  1
  H  94  1  0.54644900  0.71821450  0.34128050  1
  H  97  1  0.63988100  0.81973950  0.33533050  1
  H  98  1  0.63679550  0.80708400  0.25035250  1
  H  99  1  0.53998050  0.83954150  0.35952400  1
  H  100  1  0.46361150  0.83250450  0.29017800  1
  H  103  1  0.52715850  0.79597250  0.14639000  1
  H  104  1  0.45712300  0.80773100  0.16237400  1
  H  106  1  0.53136850  0.67584700  0.12576450  1
  H  107  1  0.47216600  0.60729350  0.13515450  1
  H  109  1  0.36368050  0.70838500  0.17050650  1
  H  110  1  0.36676700  0.62649800  0.16096500  1
  H  115  1  0.64027200  0.36786950  0.83133250  1
  H  116  1  0.63604250  0.28184950  0.81535900  1
  H  119  1  0.52856600  0.18029150  0.80724350  1
  H  120  1  0.45622900  0.19292900  0.81679100  1
  H  121  1  0.53299150  0.16052100  0.68755550  1
  H  122  1  0.47067800  0.16754050  0.61821050  1
  H  125  1  0.36337150  0.20401300  0.71824950  1
  H  126  1  0.36761400  0.19227000  0.63646500  1
  H  128  1  0.46283950  0.32414550  0.84259300  1
  H  129  1  0.54078100  0.39272200  0.85196100  1
  H  131  1  0.47509100  0.29164050  0.64239150  1
  H  132  1  0.54741450  0.37353350  0.72736900  1
  H  271  1  0.42242200  0.06263950  0.75570950  1
  H  280  1  0.58120150  0.34623550  0.63085800  1
  H  289  1  0.70601150  0.93738700  0.34686950  1
  H  298  1  0.29757750  0.65378850  0.22206300  1
  H  307  1  0.65557900  0.23317250  0.28467750  1
  H  316  1  0.93921350  0.35800500  0.69311950  1
  H  325  1  0.34806800  0.64202900  0.56830600  1
  H  334  1  0.06442200  0.76681600  0.40949000  1
  H  343  1  0.35977750  0.70417950  0.92624300  1
  H  352  1  0.23497650  0.29574600  0.64266550  1
  H  361  1  0.76864050  0.42059800  0.05149550  1
  H  370  1  0.64383000  0.57942550  0.33512750  1
  N  266  1  0.36054900  0.96803850  0.65359050  1
  N  269  1  0.35709400  0.05413750  0.59202150  1
  N  273  1  0.26269200  0.94214400  0.41281600  1
  N  275  1  0.64312250  0.30602000  0.59819550  1
  N  278  1  0.64654400  0.24790050  0.68774350  1
  N  282  1  0.74084350  0.16299750  0.67010300  1
  N  284  1  0.69848700  0.03198750  0.37961750  1
  N  287  1  0.55084250  0.94588550  0.29002900  1
  N  291  1  0.48358250  0.05783650  0.30772300  1
  N  293  1  0.30510000  0.69404700  0.32419300  1
  N  296  1  0.45276950  0.75219200  0.38573650  1
  N  300  1  0.52001900  0.83701950  0.56493950  1
  N  302  1  0.69582150  0.33529800  0.29220050  1
  N  305  1  0.75396850  0.39686900  0.43987750  1
  N  309  1  0.83876200  0.57606650  0.50708850  1
  N  311  1  0.03379600  0.39066850  0.68556550  1
  N  314  1  0.94766600  0.30112000  0.53789600  1
  N  318  1  0.05960850  0.31876350  0.47063300  1
  N  320  1  0.30776800  0.60925850  0.63013650  1
  N  323  1  0.24972950  0.69887100  0.63364050  1
  N  327  1  0.16473700  0.68114450  0.72785550  1
  N  329  1  0.96980300  0.66468700  0.34760700  1
  N  332  1  0.05591900  0.60311600  0.34424500  1
  N  336  1  0.94392350  0.42391750  0.24979000  1
  N  338  1  0.39250100  0.69665650  0.02084050  1
  N  341  1  0.30296100  0.54899200  0.93473900  1
  N  345  1  0.32056050  0.48177300  0.04672350  1
  N  347  1  0.33711150  0.30330600  0.68287650  1
  N  350  1  0.39863350  0.45095700  0.74096050  1
  N  354  1  0.57784600  0.51824300  0.82588400  1
  N  356  1  0.66651250  0.35874950  0.95689000  1
  N  359  1  0.60495950  0.35528300  0.04299650  1
  N  363  1  0.42575400  0.26101250  0.93103550  1
  N  365  1  0.61107900  0.64128450  0.29485350  1
  N  368  1  0.70059000  0.64467050  0.23667850  1
  N  372  1  0.68300150  0.73906200  0.15187050  1
