# generated using pymatgen
data_H3C6N5
_symmetry_space_group_name_H-M   'P 1'
_cell_length_a   9.78413333
_cell_length_b   29.84430000
_cell_length_c   29.84430000
_cell_angle_alpha   120.00000000
_cell_angle_beta   90.00000000
_cell_angle_gamma   90.00000000
_symmetry_Int_Tables_number   1
_chemical_formula_structural   H3C6N5
_chemical_formula_sum   'H27 C54 N45'
_cell_volume   7547.02498917
_cell_formula_units_Z   9
loop_
 _symmetry_equiv_pos_site_id
 _symmetry_equiv_pos_as_xyz
  1  'x, y, z'
loop_
 _atom_site_type_symbol
 _atom_site_label
 _atom_site_symmetry_multiplicity
 _atom_site_fract_x
 _atom_site_fract_y
 _atom_site_fract_z
 _atom_site_occupancy
  C  1  1  0.03716800  0.87318200  0.43767800  1
  C  2  1  0.06419500  0.92814400  0.46587000  1
  C  4  1  0.09138500  0.95954600  0.52000200  1
  C  28  1  0.95581400  0.79819300  0.43952900  1
  C  29  1  0.95171600  0.80012200  0.35940600  1
  C  31  1  0.92792500  0.76543500  0.30582200  1
  C  34  1  0.01387100  0.75357000  0.49093300  1
  C  35  1  0.93268300  0.76257400  0.45698200  1
  C  55  1  0.03519600  0.71201800  0.22196300  1
  C  56  1  0.94848000  0.66995100  0.21173900  1
  C  58  1  0.82456000  0.72685400  0.29030500  1
  C  62  1  0.91126000  0.66887800  0.45852400  1
  C  65  1  0.81241700  0.68281500  0.43258600  1
  C  91  1  0.96769100  0.61641200  0.17622600  1
  C  93  1  0.04195500  0.53709300  0.10190600  1
  C  95  1  0.95071300  0.53527600  0.17580700  1
  C  97  1  0.95706400  0.53522600  0.35907400  1
  C  99  1  0.03209800  0.54024900  0.43825200  1
  C  101  1  0.93902500  0.61581000  0.44036200  1
  C  103  1  0.95182700  0.16831200  0.54253200  1
  C  105  1  0.03082600  0.09340700  0.54468600  1
  C  107  1  0.95264500  0.16739800  0.62323400  1
  C  109  1  0.96871600  0.35135100  0.80670000  1
  C  111  1  0.03733200  0.43093800  0.88146200  1
  C  113  1  0.94907300  0.43256300  0.80722600  1
  C  115  1  0.95134700  0.43088800  0.62300300  1
  C  117  1  0.02231700  0.42597600  0.54369000  1
  C  119  1  0.93117700  0.35037900  0.54167100  1
  C  121  1  0.03723000  0.00731500  0.46272600  1
  C  122  1  0.05628400  0.03865300  0.51672500  1
  C  125  1  0.06829400  0.50916700  0.04689300  1
  C  127  1  0.04276400  0.51282400  0.96794100  1
  C  128  1  0.06213600  0.45886400  0.93633200  1
  C  130  1  0.09528300  0.45506500  0.01530500  1
  C  135  1  0.05877400  0.51304900  0.46592400  1
  C  137  1  0.03154100  0.43045200  0.46194700  1
  C  138  1  0.04986100  0.45279400  0.51594000  1
  C  140  1  0.08545000  0.53550300  0.52001100  1
  C  145  1  0.92225300  0.51681900  0.21044200  1
  C  147  1  0.02352300  0.48485000  0.26348800  1
  C  148  1  0.93836500  0.51764400  0.30563000  1
  C  150  1  0.82025600  0.54146900  0.24921000  1
  C  157  1  0.93013900  0.20226300  0.67686800  1
  C  159  1  0.03821000  0.25584400  0.76047300  1
  C  160  1  0.95056900  0.29778200  0.77111400  1
  C  162  1  0.82676800  0.24086500  0.69245300  1
  C  167  1  0.91981100  0.45061900  0.77230900  1
  C  169  1  0.01918300  0.48203600  0.71852100  1
  C  170  1  0.93429700  0.44860400  0.67655000  1
  C  172  1  0.81765600  0.42542600  0.73371000  1
  C  177  1  0.90300100  0.29735700  0.52358400  1
  C  179  1  0.00584200  0.21255400  0.49047600  1
  C  180  1  0.92640700  0.20363700  0.52487200  1
  C  182  1  0.80520100  0.28330500  0.54972600  1
  H  6  1  0.14934000  0.90596200  0.53966400  1
  H  7  1  0.14545000  0.96605700  0.58860400  1
  H  33  1  0.68376100  0.76304200  0.34777300  1
  H  36  1  0.09455200  0.77724700  0.50994700  1
  H  59  1  0.11962800  0.70624500  0.19960400  1
  H  61  1  0.64420600  0.70236000  0.30440500  1
  H  66  1  0.63877400  0.66648700  0.38982400  1
  H  124  1  0.01151400  0.02294700  0.44025900  1
  H  131  1  0.01828700  0.53549000  0.95241100  1
  H  133  1  0.15129700  0.43541400  0.06900400  1
  H  134  1  0.14891600  0.38644700  0.00882400  1
  H  141  1  0.00643100  0.39232600  0.43920300  1
  H  143  1  0.14422800  0.60845800  0.53947200  1
  H  144  1  0.14046100  0.59732200  0.58850400  1
  H  151  1  0.10545100  0.46682700  0.26881900  1
  H  153  1  0.68488900  0.56528600  0.21349300  1
  H  154  1  0.64414500  0.58289900  0.27415400  1
  H  156  1  0.67493400  0.62402000  0.40867800  1
  H  163  1  0.12213800  0.26148300  0.78304700  1
  H  165  1  0.68456900  0.20444400  0.63573900  1
  H  166  1  0.64526900  0.26514600  0.67913000  1
  H  173  1  0.10053200  0.49991600  0.71265100  1
  H  175  1  0.68369900  0.40179700  0.77002000  1
  H  176  1  0.64226000  0.38346500  0.70924100  1
  H  183  1  0.08704500  0.18924200  0.47141500  1
  H  185  1  0.66807100  0.34239100  0.57461000  1
  H  186  1  0.63319900  0.29977200  0.59339000  1
  N  3  1  0.03829700  0.95486300  0.44069200  1
  N  5  1  0.12551400  0.94185500  0.55241600  1
  N  22  1  0.01310400  0.84623700  0.46317800  1
  N  23  1  0.01061400  0.84811500  0.38517500  1
  N  30  1  0.92741800  0.77841000  0.38889000  1
  N  32  1  0.02720800  0.75613300  0.26975800  1
  N  57  1  0.84523600  0.68149200  0.24625100  1
  N  60  1  0.71024100  0.73049500  0.31766000  1
  N  63  1  0.00588300  0.70601900  0.48759800  1
  N  64  1  0.83354800  0.72692000  0.43147700  1
  N  92  1  0.02489800  0.59015600  0.12797400  1
  N  94  1  0.00865600  0.51125400  0.12782400  1
  N  96  1  0.93278500  0.58671900  0.19678900  1
  N  98  1  0.01493200  0.51325700  0.38520200  1
  N  100  1  0.99794700  0.59192300  0.46427000  1
  N  102  1  0.92171500  0.58535400  0.38894800  1
  N  104  1  0.00668500  0.11982400  0.51859100  1
  N  106  1  0.00878000  0.11892900  0.59743000  1
  N  108  1  0.92666200  0.18871200  0.59349600  1
  N  110  1  0.02384600  0.37777900  0.85528200  1
  N  112  1  0.00501700  0.45697500  0.85559100  1
  N  114  1  0.93351600  0.38098300  0.78609600  1
  N  116  1  0.00806600  0.45296900  0.59679200  1
  N  118  1  0.98898200  0.37419100  0.51747000  1
  N  120  1  0.91524700  0.38079300  0.59320200  1
  N  123  1  0.08269600  0.01221900  0.54201300  1
  N  126  1  0.04353600  0.53465300  0.02039300  1
  N  129  1  0.08769400  0.43334500  0.96262800  1
  N  132  1  0.12835000  0.42256700  0.03299700  1
  N  136  1  0.03339200  0.46112900  0.44023600  1
  N  139  1  0.07630600  0.50453600  0.54164800  1
  N  142  1  0.11901400  0.58564700  0.55249300  1
  N  146  1  0.01780400  0.48860400  0.21940800  1
  N  149  1  0.83854100  0.54209200  0.29431600  1
  N  152  1  0.70964400  0.56706100  0.24589200  1
  N  155  1  0.70236100  0.65404100  0.40621800  1
  N  158  1  0.02979800  0.21158700  0.71281200  1
  N  161  1  0.84740700  0.28616000  0.73655600  1
  N  164  1  0.71206200  0.23725900  0.66528000  1
  N  168  1  0.01454900  0.47874100  0.76287000  1
  N  171  1  0.83526100  0.42422200  0.68829300  1
  N  174  1  0.70781900  0.39974000  0.73743700  1
  N  178  1  0.99730100  0.26023800  0.49409900  1
  N  181  1  0.82732400  0.23920200  0.55073100  1
  N  184  1  0.69564700  0.31209900  0.57653500  1
