# generated using pymatgen
data_H13C16(NO)2
_symmetry_space_group_name_H-M   'P 1'
_cell_length_a   35.35940000
_cell_length_b   35.35940000
_cell_length_c   43.55610000
_cell_angle_alpha   90.00000000
_cell_angle_beta   90.00000000
_cell_angle_gamma   90.00000000
_symmetry_Int_Tables_number   1
_chemical_formula_structural   H13C16(NO)2
_chemical_formula_sum   'H208 C256 N32 O32'
_cell_volume   54457.63293381
_cell_formula_units_Z   16
loop_
 _symmetry_equiv_pos_site_id
 _symmetry_equiv_pos_as_xyz
  1  'x, y, z'
loop_
 _atom_site_type_symbol
 _atom_site_label
 _atom_site_symmetry_multiplicity
 _atom_site_fract_x
 _atom_site_fract_y
 _atom_site_fract_z
 _atom_site_occupancy
  H  7  1  0.10585000  0.29008100  0.15200500  1
  H  16  1  0.01044000  0.28403500  0.09374400  1
  H  19  1  0.05941400  0.35690900  0.06243400  1
  H  20  1  0.14539100  0.28887300  0.07805600  1
  H  21  1  0.11214500  0.42670700  0.16224800  1
  H  22  1  0.04608900  0.16589800  0.04868200  1
  H  33  1  0.93351900  0.74666400  0.15286700  1
  H  42  1  0.02674900  0.75110900  0.09338700  1
  H  45  1  0.97346300  0.67882300  0.06198400  1
  H  46  1  0.89160700  0.74724100  0.07864700  1
  H  47  1  0.91798100  0.61123400  0.15886800  1
  H  48  1  0.99137300  0.86963500  0.04867500  1
  H  59  1  0.29069200  0.93053500  0.88368800  1
  H  68  1  0.28473000  0.02589700  0.94197600  1
  H  71  1  0.35754800  0.97681700  0.97330400  1
  H  72  1  0.28935400  0.89088800  0.95754700  1
  H  73  1  0.42732000  0.92407600  0.87346500  1
  H  74  1  0.16649700  0.99037800  0.98691600  1
  H  85  1  0.74735900  0.10280700  0.88288900  1
  H  94  1  0.75183100  0.00956400  0.94231600  1
  H  97  1  0.67946500  0.06280400  0.97373800  1
  H  98  1  0.74772100  0.14465000  0.95724000  1
  H  99  1  0.61192400  0.11825400  0.87679600  1
  H  100  1  0.87022600  0.04501800  0.98724500  1
  H  111  1  0.60682300  0.24702100  0.65276100  1
  H  120  1  0.50892200  0.25425700  0.59571700  1
  H  123  1  0.55541100  0.18052000  0.56513400  1
  H  124  1  0.64364400  0.24717200  0.57953300  1
  H  125  1  0.61355600  0.11148100  0.66078500  1
  H  126  1  0.54586800  0.37084600  0.54884000  1
  H  137  1  0.42989400  0.78911600  0.65264800  1
  H  146  1  0.52881800  0.78111800  0.59651600  1
  H  149  1  0.48505000  0.85560800  0.56647000  1
  H  150  1  0.39418600  0.78919800  0.57978800  1
  H  151  1  0.42404800  0.92182200  0.66572600  1
  H  152  1  0.49140500  0.66493400  0.54938400  1
  H  163  1  0.78966500  0.60639800  0.38291100  1
  H  172  1  0.78256300  0.50847000  0.43987400  1
  H  175  1  0.85619600  0.55507400  0.47056600  1
  H  176  1  0.78931100  0.64321700  0.45614100  1
  H  177  1  0.92523800  0.61326800  0.37488500  1
  H  178  1  0.66581400  0.54512200  0.48665100  1
  H  189  1  0.24757000  0.42946700  0.38315400  1
  H  198  1  0.25565500  0.52841300  0.43931400  1
  H  201  1  0.18104400  0.48483500  0.46924600  1
  H  202  1  0.24727600  0.39381300  0.45601900  1
  H  203  1  0.11487100  0.42369200  0.37008600  1
  H  204  1  0.37166900  0.49081400  0.48661900  1
  H  214  1  0.03033800  0.56326400  0.07416900  1
  H  215  1  0.04050900  0.49810500  0.06382900  1
  H  218  1  0.99219600  0.57002600  0.17914400  1
  H  219  1  0.00739700  0.52599300  0.19164300  1
  H  220  1  0.96045400  0.53204200  0.17788700  1
  H  222  1  0.99102600  0.43138700  0.14961000  1
  H  223  1  0.96465600  0.46678600  0.16676000  1
  H  224  1  0.01231500  0.45942200  0.17824800  1
  H  226  1  0.02095400  0.42882200  0.07939200  1
  H  228  1  0.02265500  0.60591800  0.14248800  1
  H  234  1  0.56397700  0.00594900  0.96148700  1
  H  235  1  0.49883700  0.99570300  0.97186900  1
  H  238  1  0.57058300  0.04412800  0.85650700  1
  H  239  1  0.52655800  0.02887000  0.84404100  1
  H  240  1  0.53256200  0.07582000  0.85779500  1
  H  242  1  0.43198100  0.04517300  0.88614300  1
  H  243  1  0.46734300  0.07155000  0.86896000  1
  H  244  1  0.45999300  0.02388400  0.85748800  1
  H  246  1  0.42951500  0.01523700  0.95635800  1
  H  248  1  0.60660800  0.01376900  0.89315400  1
  H  254  1  0.50292100  0.98294600  0.56547300  1
  H  255  1  0.52102100  0.04726300  0.56066600  1
  H  258  1  0.50960100  0.95764800  0.67171800  1
  H  259  1  0.51914000  0.00094700  0.68872100  1
  H  260  1  0.47163100  0.98907700  0.67964100  1
  H  262  1  0.50065000  0.09927100  0.65991300  1
  H  263  1  0.48237500  0.06072900  0.67927800  1
  H  264  1  0.53197700  0.06851600  0.67942300  1
  H  266  1  0.51283300  0.11240500  0.58499100  1
  H  268  1  0.45244500  0.95002100  0.61587000  1
  H  274  1  0.05372900  0.50244300  0.47019400  1
  H  275  1  0.98939100  0.52045200  0.47501300  1
  H  278  1  0.07912900  0.50918800  0.36394700  1
  H  279  1  0.03589200  0.51918800  0.34701000  1
  H  280  1  0.04740900  0.47152300  0.35587500  1
  H  282  1  0.93744400  0.50044600  0.37569700  1
  H  283  1  0.97598900  0.48216300  0.35633800  1
  H  284  1  0.96824800  0.53177000  0.35623700  1
  H  286  1  0.92426500  0.51236100  0.45060300  1
  H  288  1  0.08674500  0.45220500  0.41994400  1
  H  294  1  0.21648000  0.37244400  0.28879300  1
  H  295  1  0.19642700  0.33677900  0.24566300  1
  H  298  1  0.11856300  0.46291500  0.30715600  1
  H  299  1  0.08076700  0.43182500  0.30180900  1
  H  300  1  0.09668500  0.46157700  0.27155600  1
  H  302  1  0.06797000  0.37059400  0.22844400  1
  H  303  1  0.07359400  0.41988800  0.23190300  1
  H  304  1  0.05828300  0.39172600  0.26328100  1
  H  306  1  0.14035200  0.31149500  0.21501900  1
  H  308  1  0.18111900  0.45643800  0.31417000  1
  H  314  1  0.82180100  0.66495700  0.28985900  1
  H  315  1  0.84214600  0.70068200  0.24686800  1
  H  318  1  0.91851900  0.57310600  0.30794300  1
  H  319  1  0.95675700  0.60297900  0.30094300  1
  H  320  1  0.93892600  0.57281500  0.27167700  1
  H  322  1  0.96902300  0.66257900  0.22704400  1
  H  323  1  0.96174100  0.61358700  0.23091200  1
  H  324  1  0.97914200  0.64144700  0.26176400  1
  H  326  1  0.89877900  0.72518100  0.21638800  1
  H  328  1  0.85603800  0.57999000  0.31490900  1
  H  334  1  0.37291300  0.81994500  0.74691100  1
  H  335  1  0.33724000  0.83996000  0.79005500  1
  H  338  1  0.46342400  0.91784300  0.72865100  1
  H  339  1  0.43233200  0.95565200  0.73395700  1
  H  340  1  0.46203500  0.93973800  0.76424200  1
  H  342  1  0.37097600  0.96844300  0.80726700  1
  H  343  1  0.42028400  0.96282700  0.80387900  1
  H  344  1  0.39218400  0.97812900  0.77245900  1
  H  346  1  0.31198700  0.89603200  0.82076000  1
  H  348  1  0.45691300  0.85523400  0.72154300  1
  H  354  1  0.66538100  0.21456300  0.74585900  1
  H  355  1  0.70114800  0.19420000  0.78881800  1
  H  358  1  0.57362900  0.11776100  0.72771500  1
  H  359  1  0.60351100  0.07955100  0.73477200  1
  H  360  1  0.57329800  0.09740300  0.76399900  1
  H  362  1  0.66303100  0.06734100  0.80869800  1
  H  363  1  0.61405400  0.07458700  0.80474700  1
  H  364  1  0.64199600  0.05719600  0.77394300  1
  H  366  1  0.72573800  0.13758600  0.81921800  1
  H  368  1  0.58039100  0.18022100  0.72081300  1
  H  374  1  0.18454000  0.05954600  0.02726200  1
  H  375  1  0.14438600  0.09915400  0.05527400  1
  H  378  1  0.24961200  0.13770200  0.95629800  1
  H  379  1  0.25849100  0.17573500  0.98111700  1
  H  380  1  0.21881100  0.17611100  0.95590100  1
  H  382  1  0.19603400  0.22173500  0.03401800  1
  H  383  1  0.16389200  0.22008300  0.00254900  1
  H  384  1  0.21282000  0.21969900  0.99657500  1
  H  386  1  0.11534500  0.15607200  0.06481800  1
  H  388  1  0.26256200  0.08096100  0.98611000  1
  H  394  1  0.85257300  0.97608500  0.02735000  1
  H  395  1  0.89297500  0.93663300  0.05524300  1
  H  398  1  0.78623700  0.89752600  0.95740900  1
  H  399  1  0.77817700  0.85943100  0.98233400  1
  H  400  1  0.81730100  0.85934600  0.95654600  1
  H  402  1  0.84134000  0.81378600  0.03438200  1
  H  403  1  0.87345300  0.81563500  0.00289800  1
  H  404  1  0.82454400  0.81573400  0.99693600  1
  H  406  1  0.92225200  0.87980200  0.06464300  1
  H  408  1  0.77414400  0.95449200  0.98630100  1
  H  414  1  0.06022200  0.85159500  0.00821800  1
  H  415  1  0.09973900  0.89192600  0.98029500  1
  H  418  1  0.13856700  0.78577600  0.07860800  1
  H  419  1  0.17675900  0.77757500  0.05381200  1
  H  420  1  0.17673700  0.81686300  0.07943600  1
  H  422  1  0.22254600  0.84050000  0.00158700  1
  H  423  1  0.22058900  0.87271500  0.03300000  1
  H  424  1  0.22047900  0.82382300  0.03906400  1
  H  426  1  0.15659300  0.92118800  0.97090900  1
  H  428  1  0.08172900  0.77341700  0.04902600  1
  H  434  1  0.97676100  0.18353700  0.00855700  1
  H  435  1  0.93719000  0.14329800  0.98060500  1
  H  438  1  0.89847600  0.24902700  0.07918000  1
  H  439  1  0.86054000  0.25787600  0.05424900  1
  H  440  1  0.86001900  0.21829900  0.07957100  1
  H  442  1  0.81460300  0.19518300  0.00146500  1
  H  443  1  0.81614400  0.16318700  0.03303600  1
  H  444  1  0.81655200  0.21214400  0.03885900  1
  H  446  1  0.88028300  0.11419500  0.97112700  1
  H  448  1  0.95517400  0.26178000  0.05011100  1
  H  454  1  0.68385100  0.47601400  0.52655600  1
  H  455  1  0.64390200  0.43678600  0.55509400  1
  H  458  1  0.74782600  0.39696600  0.45563600  1
  H  459  1  0.75768200  0.35959300  0.48089500  1
  H  460  1  0.71750000  0.35818700  0.45623700  1
  H  462  1  0.69555400  0.31410300  0.53515800  1
  H  463  1  0.66379500  0.31491700  0.50342000  1
  H  464  1  0.71283400  0.31555100  0.49785500  1
  H  466  1  0.61531000  0.38000300  0.56565500  1
  H  468  1  0.76147400  0.45415900  0.48518100  1
  H  474  1  0.35463200  0.56011900  0.52597000  1
  H  475  1  0.39439800  0.59924300  0.55471300  1
  H  478  1  0.28785000  0.63976100  0.45716200  1
  H  479  1  0.27908800  0.67701600  0.48276400  1
  H  480  1  0.31837300  0.67841000  0.45716200  1
  H  482  1  0.34175600  0.72204500  0.53595700  1
  H  483  1  0.37359500  0.72144000  0.50426300  1
  H  484  1  0.32462300  0.72090000  0.49858700  1
  H  486  1  0.42200900  0.65611900  0.56629500  1
  H  488  1  0.27620400  0.58174000  0.48536100  1
  H  494  1  0.56050700  0.68232400  0.50969000  1
  H  495  1  0.59967000  0.64249300  0.48101400  1
  H  498  1  0.63995400  0.74869700  0.57887400  1
  H  499  1  0.67740100  0.75741600  0.55344700  1
  H  500  1  0.67851200  0.71805500  0.57897800  1
  H  502  1  0.72252600  0.69485300  0.50028600  1
  H  503  1  0.72167700  0.66284700  0.53186600  1
  H  504  1  0.72122500  0.71178500  0.53771100  1
  H  506  1  0.65652400  0.61445600  0.46990500  1
  H  508  1  0.58211900  0.76053800  0.55019400  1
  H  514  1  0.47641900  0.35331700  0.50917400  1
  H  515  1  0.43720700  0.39319400  0.48059000  1
  H  518  1  0.39719500  0.28862200  0.57956300  1
  H  519  1  0.35991800  0.27892100  0.55417300  1
  H  520  1  0.35840500  0.31892800  0.57901200  1
  H  522  1  0.31453300  0.34119600  0.50008600  1
  H  523  1  0.31521700  0.37289900  0.53186400  1
  H  524  1  0.31587300  0.32386000  0.53738100  1
  H  526  1  0.38038200  0.42137800  0.46960200  1
  H  528  1  0.45438500  0.27544000  0.55103200  1
  C  1  1  0.07531700  0.31539300  0.11524800  1
  C  2  1  0.09536700  0.31509000  0.14386400  1
  C  3  1  0.10030600  0.34818100  0.16215600  1
  C  4  1  0.08499000  0.38251200  0.15114600  1
  C  5  1  0.06455800  0.38443500  0.12330400  1
  C  6  1  0.06006100  0.35096400  0.10553000  1
  C  9  1  0.07040200  0.28117000  0.09659600  1
  C  10  1  0.10188000  0.25935500  0.08583200  1
  C  11  1  0.09730900  0.22665600  0.06697100  1
  C  12  1  0.06013900  0.21655700  0.05780300  1
  C  13  1  0.02805900  0.23746900  0.06722500  1
  C  14  1  0.03373600  0.26934200  0.08658800  1
  C  27  1  0.96185700  0.72044700  0.11538200  1
  C  28  1  0.94275800  0.72133500  0.14438900  1
  C  29  1  0.93643800  0.68819300  0.16228700  1
  C  30  1  0.94950600  0.65333600  0.15053500  1
  C  31  1  0.97033200  0.65094900  0.12284300  1
  C  32  1  0.97530700  0.68438600  0.10511500  1
  C  35  1  0.96686800  0.75450000  0.09663200  1
  C  36  1  0.93540800  0.77647200  0.08607100  1
  C  37  1  0.93999200  0.80910800  0.06715700  1
  C  38  1  0.97714200  0.81903200  0.05781500  1
  C  39  1  0.00917600  0.79792600  0.06706900  1
  C  40  1  0.00350900  0.76601100  0.08639000  1
  C  53  1  0.31603700  0.96100000  0.92046900  1
  C  54  1  0.31571800  0.94095400  0.89185500  1
  C  55  1  0.34880100  0.93602500  0.87356100  1
  C  56  1  0.38315700  0.95126200  0.88459100  1
  C  57  1  0.38508800  0.97168400  0.91243500  1
  C  58  1  0.35162000  0.97620300  0.93020800  1
  C  61  1  0.28181300  0.96594300  0.93910000  1
  C  62  1  0.25993400  0.93447500  0.94978700  1
  C  63  1  0.22723800  0.93907600  0.96863900  1
  C  64  1  0.21714000  0.97624000  0.97781800  1
  C  65  1  0.23809700  0.00830500  0.96843200  1
  C  66  1  0.27000200  0.00261200  0.94910500  1
  C  79  1  0.72112900  0.07444900  0.92036100  1
  C  80  1  0.72202800  0.09354100  0.89134500  1
  C  81  1  0.68890200  0.09983200  0.87341200  1
  C  82  1  0.65404300  0.08675800  0.88515500  1
  C  83  1  0.65163400  0.06599600  0.91287800  1
  C  84  1  0.68506500  0.06098400  0.93060700  1
  C  87  1  0.75516200  0.06945400  0.93915000  1
  C  88  1  0.77705700  0.10092500  0.94980500  1
  C  89  1  0.80963400  0.09634100  0.96879000  1
  C  90  1  0.81962000  0.05917700  0.97804700  1
  C  91  1  0.79859000  0.02713000  0.96870300  1
  C  92  1  0.76670100  0.03280400  0.94935500  1
  C  105  1  0.57344200  0.22238100  0.61736300  1
  C  106  1  0.59475500  0.22236800  0.64539600  1
  C  107  1  0.59930800  0.18948400  0.66403600  1
  C  108  1  0.58398800  0.15516000  0.65282300  1
  C  109  1  0.56223500  0.15348000  0.62566200  1
  C  110  1  0.55712400  0.18707000  0.60817700  1
  C  113  1  0.56894600  0.25635900  0.59831800  1
  C  114  1  0.60063500  0.27750700  0.58707500  1
  C  115  1  0.59634700  0.30983800  0.56776000  1
  C  116  1  0.55926500  0.32018000  0.55854700  1
  C  117  1  0.52699100  0.29985200  0.56834800  1
  C  118  1  0.53238100  0.26844400  0.58824400  1
  C  131  1  0.46451000  0.81349700  0.61793200  1
  C  132  1  0.44260300  0.81360500  0.64563700  1
  C  133  1  0.43859000  0.84624100  0.66459200  1
  C  134  1  0.45490800  0.88039000  0.65390000  1
  C  135  1  0.47716300  0.88214100  0.62689100  1
  C  136  1  0.48202700  0.84850300  0.60944900  1
  C  139  1  0.46875200  0.77960500  0.59876100  1
  C  140  1  0.43697500  0.75860700  0.58747700  1
  C  141  1  0.44117200  0.72619400  0.56823500  1
  C  142  1  0.47821800  0.71566200  0.55907900  1
  C  143  1  0.51053700  0.73583500  0.56895400  1
  C  144  1  0.50527400  0.76722100  0.58886400  1
  C  157  1  0.81435100  0.57306400  0.41831600  1
  C  158  1  0.81434000  0.59439600  0.39029900  1
  C  159  1  0.84724200  0.59904500  0.37171200  1
  C  160  1  0.88157000  0.58371100  0.38289000  1
  C  161  1  0.88326100  0.56192600  0.41003700  1
  C  162  1  0.84967400  0.55679100  0.42752000  1
  C  165  1  0.78036000  0.56849000  0.43730800  1
  C  166  1  0.75911000  0.60014000  0.44848400  1
  C  167  1  0.72675400  0.59575100  0.46774900  1
  C  168  1  0.71644500  0.55866000  0.47694600  1
  C  169  1  0.73686100  0.52644500  0.46716800  1
  C  170  1  0.76831600  0.53189800  0.44733400  1
  C  183  1  0.22321200  0.46414800  0.41783600  1
  C  184  1  0.22309700  0.44223000  0.39012900  1
  C  185  1  0.19047000  0.43822500  0.37114900  1
  C  186  1  0.15632700  0.45456300  0.38183900  1
  C  187  1  0.15458900  0.47688000  0.40881300  1
  C  188  1  0.18821200  0.48171600  0.42628000  1
  C  191  1  0.25707900  0.46834500  0.43706600  1
  C  192  1  0.27798900  0.43653400  0.44841300  1
  C  193  1  0.31033300  0.44067400  0.46774600  1
  C  194  1  0.32093800  0.47771400  0.47686300  1
  C  195  1  0.30087000  0.51007900  0.46693400  1
  C  196  1  0.26950600  0.50485000  0.44698200  1
  C  209  1  0.02165900  0.47718000  0.10687300  1
  C  210  1  0.02966800  0.50540700  0.08481000  1
  C  211  1  0.02366800  0.54403300  0.09089200  1
  C  212  1  0.01048300  0.55644600  0.11975300  1
  C  213  1  0.00245400  0.52852900  0.14275700  1
  C  216  1  0.00612800  0.48887100  0.13573600  1
  C  217  1  0.98995400  0.53998600  0.17438000  1
  C  221  1  0.99303900  0.45997900  0.15868100  1
  C  225  1  0.03010400  0.43944400  0.09912300  1
  C  227  1  0.00753600  0.59548200  0.12518100  1
  C  229  1  0.47784700  0.01455200  0.92884400  1
  C  230  1  0.50610800  0.00657200  0.95088900  1
  C  231  1  0.54472000  0.01262700  0.94478400  1
  C  232  1  0.55708500  0.02582000  0.91591400  1
  C  233  1  0.52913700  0.03380900  0.89292700  1
  C  236  1  0.48949000  0.03009900  0.89997500  1
  C  237  1  0.54054600  0.04632800  0.86129400  1
  C  241  1  0.46056500  0.04316700  0.87704900  1
  C  245  1  0.44012600  0.00608500  0.93662200  1
  C  247  1  0.59609300  0.02887200  0.91044500  1
  C  249  1  0.51844400  0.06105600  0.60809000  1
  C  250  1  0.51692600  0.03672500  0.58231400  1
  C  251  1  0.50680100  0.99840700  0.58510300  1
  C  252  1  0.50044900  0.98179500  0.61406800  1
  C  253  1  0.50463200  0.00496500  0.64078300  1
  C  256  1  0.51095600  0.04500300  0.63772000  1
  C  257  1  0.50092400  0.98722200  0.67187400  1
  C  261  1  0.50641900  0.06981700  0.66542300  1
  C  265  1  0.52565300  0.09966400  0.60242600  1
  C  267  1  0.48046600  0.94760900  0.61506700  1
  C  269  1  0.97564600  0.51807400  0.42757300  1
  C  270  1  0.99996500  0.51652700  0.45335600  1
  C  271  1  0.03829000  0.50641400  0.45056200  1
  C  272  1  0.05491300  0.50021700  0.42157400  1
  C  273  1  0.03175400  0.50440600  0.39486600  1
  C  276  1  0.99171000  0.51066100  0.39793100  1
  C  277  1  0.04949100  0.50074900  0.36377000  1
  C  281  1  0.96691000  0.50619600  0.37021200  1
  C  285  1  0.93703700  0.52526900  0.43322800  1
  C  287  1  0.08910400  0.48024200  0.42061200  1
  C  289  1  0.14223000  0.36171700  0.24039800  1
  C  290  1  0.17808300  0.35646200  0.25435000  1
  C  291  1  0.19007400  0.37754600  0.28009600  1
  C  292  1  0.16737200  0.40623400  0.29306400  1
  C  293  1  0.13096100  0.41267100  0.27927000  1
  C  296  1  0.11771800  0.38917200  0.25428800  1
  C  297  1  0.10567900  0.44383100  0.29071300  1
  C  301  1  0.07746400  0.39294200  0.24371100  1
  C  305  1  0.13320400  0.33863400  0.21458800  1
  C  307  1  0.18188400  0.42861300  0.31741200  1
  C  309  1  0.89554600  0.67433200  0.24079300  1
  C  310  1  0.86007900  0.68037600  0.25517200  1
  C  311  1  0.84792700  0.65927200  0.28084500  1
  C  312  1  0.87014400  0.62995100  0.29341500  1
  C  313  1  0.90621600  0.62279300  0.27928400  1
  C  316  1  0.91951400  0.64596600  0.25411400  1
  C  317  1  0.93113500  0.59131300  0.29071300  1
  C  321  1  0.95924600  0.64074300  0.24265700  1
  C  325  1  0.90483400  0.69780800  0.21529500  1
  C  327  1  0.85558200  0.60786900  0.31789100  1
  C  329  1  0.36217200  0.89416000  0.79533100  1
  C  330  1  0.35691700  0.85831400  0.78137200  1
  C  331  1  0.37800700  0.84634600  0.75562400  1
  C  332  1  0.40669200  0.86906900  0.74268400  1
  C  333  1  0.41313400  0.90546700  0.75648700  1
  C  336  1  0.38961900  0.91869400  0.78145500  1
  C  337  1  0.44431700  0.93074200  0.74507200  1
  C  341  1  0.39336300  0.95895200  0.79203400  1
  C  345  1  0.33913200  0.90315600  0.82116000  1
  C  347  1  0.42907900  0.85459800  0.71834800  1
  C  349  1  0.67483000  0.14079000  0.79490400  1
  C  350  1  0.68084000  0.17626300  0.78052300  1
  C  351  1  0.65971400  0.18842900  0.75486100  1
  C  352  1  0.63039800  0.16621400  0.74228200  1
  C  353  1  0.62327400  0.13012700  0.75641100  1
  C  356  1  0.64645600  0.11682800  0.78158300  1
  C  357  1  0.59181900  0.10518000  0.74497300  1
  C  361  1  0.64123200  0.07709800  0.79304400  1
  C  365  1  0.69837700  0.13148600  0.82036300  1
  C  367  1  0.60826500  0.18079800  0.71782400  1
  C  369  1  0.16220600  0.15182100  0.03644100  1
  C  370  1  0.16222800  0.11189900  0.03990300  1
  C  371  1  0.18601000  0.08795700  0.02291700  1
  C  372  1  0.21101500  0.10203500  0.00036300  1
  C  373  1  0.21185000  0.14228100  0.99601500  1
  C  376  1  0.18841600  0.16705200  0.01446700  1
  C  377  1  0.23606100  0.15855700  0.97103300  1
  C  381  1  0.19058400  0.20923000  0.01152800  1
  C  385  1  0.13408000  0.17189100  0.05356000  1
  C  387  1  0.23494900  0.07635100  0.98449200  1
  C  389  1  0.87502000  0.88387700  0.03665600  1
  C  390  1  0.87499400  0.92380700  0.04002200  1
  C  391  1  0.85105200  0.94765100  0.02310700  1
  C  392  1  0.82580500  0.93345400  0.00078600  1
  C  393  1  0.82490900  0.89318700  0.99657300  1
  C  396  1  0.84865100  0.86852400  0.01486000  1
  C  397  1  0.80026500  0.87677000  0.97193300  1
  C  401  1  0.84670500  0.82633400  0.01189600  1
  C  405  1  0.90332100  0.86392500  0.05365800  1
  C  407  1  0.80179500  0.95912700  0.98503100  1
  C  409  1  0.15244400  0.87410900  0.99906600  1
  C  410  1  0.11252500  0.87403000  0.99560400  1
  C  411  1  0.08864100  0.85014100  0.01253400  1
  C  412  1  0.10279100  0.82502500  0.03497200  1
  C  413  1  0.14303800  0.82420200  0.03929800  1
  C  416  1  0.16774600  0.84786100  0.02098200  1
  C  417  1  0.15937500  0.79972200  0.06407800  1
  C  421  1  0.20992500  0.84593600  0.02403700  1
  C  425  1  0.17243300  0.90235300  0.98203500  1
  C  427  1  0.07711400  0.80103100  0.05076400  1
  C  429  1  0.88449100  0.16127100  0.99928200  1
  C  430  1  0.92442100  0.16123700  0.99589100  1
  C  431  1  0.94833800  0.18507800  0.01283900  1
  C  432  1  0.93423200  0.21021100  0.03528500  1
  C  433  1  0.89397100  0.21112500  0.03955000  1
  C  436  1  0.86922800  0.18761500  0.02113500  1
  C  437  1  0.87765000  0.23546000  0.06443100  1
  C  441  1  0.82704400  0.18982900  0.02399400  1
  C  445  1  0.86445100  0.13305300  0.98224000  1
  C  447  1  0.95996500  0.23413900  0.05108200  1
  C  449  1  0.66165900  0.38386100  0.53669000  1
  C  450  1  0.66165900  0.42383300  0.53977300  1
  C  451  1  0.68531400  0.44754700  0.52246900  1
  C  452  1  0.71010500  0.43316900  0.49988900  1
  C  453  1  0.71097600  0.39286800  0.49592900  1
  C  456  1  0.68782500  0.36833700  0.51481900  1
  C  457  1  0.73484800  0.37628100  0.47086900  1
  C  461  1  0.69030000  0.32612800  0.51247000  1
  C  465  1  0.63366400  0.36403000  0.55412000  1
  C  467  1  0.73383500  0.45863900  0.48361100  1
  C  469  1  0.37595300  0.65230100  0.53700400  1
  C  470  1  0.37637500  0.61228900  0.53964900  1
  C  471  1  0.35282200  0.58863800  0.52221400  1
  C  472  1  0.32757000  0.60315700  0.50004000  1
  C  473  1  0.32620200  0.64351100  0.49655800  1
  C  476  1  0.34953600  0.66794300  0.51538600  1
  C  477  1  0.30148700  0.66029900  0.47213400  1
  C  481  1  0.34706200  0.71017500  0.51321900  1
  C  485  1  0.40379000  0.67209500  0.55461800  1
  C  487  1  0.30391600  0.57763100  0.48379700  1
  C  489  1  0.65268000  0.66077400  0.49892900  1
  C  490  1  0.61268500  0.66045700  0.49614200  1
  C  491  1  0.58901700  0.68403800  0.51353100  1
  C  492  1  0.60351400  0.70920800  0.53577600  1
  C  493  1  0.64384200  0.71044700  0.53942200  1
  C  496  1  0.66830000  0.68709500  0.52063700  1
  C  497  1  0.66054800  0.73503700  0.56396500  1
  C  501  1  0.71052600  0.68945400  0.52296300  1
  C  505  1  0.67247100  0.63286400  0.48140700  1
  C  507  1  0.57796200  0.73284300  0.55198700  1
  C  509  1  0.38424000  0.37520100  0.49876600  1
  C  510  1  0.42422600  0.37534000  0.49582300  1
  C  511  1  0.44793400  0.35171700  0.51315900  1
  C  512  1  0.43353900  0.32677600  0.53562200  1
  C  513  1  0.39321300  0.32574900  0.53943100  1
  C  516  1  0.36869900  0.34893900  0.52055000  1
  C  517  1  0.37655900  0.30169300  0.56434400  1
  C  521  1  0.32648100  0.34641700  0.52280700  1
  C  525  1  0.36441500  0.40316800  0.48128800  1
  C  527  1  0.45909100  0.30310400  0.55185900  1
  N  23  1  0.99462900  0.22394200  0.05720700  1
  N  24  1  0.12707100  0.20792000  0.05435000  1
  N  25  1  0.04946200  0.41843100  0.11741600  1
  N  26  1  0.11619400  0.35075500  0.19026400  1
  N  49  1  0.04260300  0.81143800  0.05707900  1
  N  50  1  0.91018700  0.82788400  0.05466400  1
  N  51  1  0.98086100  0.61606200  0.11359300  1
  N  52  1  0.92090000  0.68586800  0.19050800  1
  N  75  1  0.22454900  0.04175100  0.97839900  1
  N  76  1  0.20846800  0.90928500  0.98115600  1
  N  77  1  0.41909300  0.98675500  0.91832700  1
  N  78  1  0.35134000  0.92015100  0.84545700  1
  N  101  1  0.81207500  0.99370700  0.97872900  1
  N  102  1  0.82841300  0.12613000  0.98133500  1
  N  103  1  0.61674400  0.05544100  0.92211500  1
  N  104  1  0.68657500  0.11539200  0.84518900  1
  N  127  1  0.49365600  0.31346700  0.55819800  1
  N  128  1  0.62619800  0.32809100  0.55482300  1
  N  129  1  0.54754800  0.11928700  0.61979900  1
  N  130  1  0.62046200  0.18647200  0.69006200  1
  N  153  1  0.54386300  0.72190600  0.55916400  1
  N  154  1  0.41133900  0.70801200  0.55524300  1
  N  155  1  0.49536400  0.91476900  0.62007900  1
  N  156  1  0.41713600  0.84912300  0.69048200  1
  N  179  1  0.72323000  0.49309000  0.47722800  1
  N  180  1  0.70842800  0.62554700  0.48064200  1
  N  181  1  0.91745000  0.54723700  0.41588700  1
  N  182  1  0.85017800  0.62013200  0.34566200  1
  N  205  1  0.31475600  0.54340500  0.47681500  1
  N  206  1  0.32850100  0.41077600  0.48070400  1
  N  207  1  0.12196100  0.49510400  0.41558600  1
  N  208  1  0.18754700  0.41672600  0.34527200  1
  O  8  1  0.08841900  0.41451500  0.16863500  1
  O  15  1  0.05541000  0.18787100  0.03707200  1
  O  17  1  0.04044200  0.35363700  0.07872700  1
  O  18  1  0.13773000  0.26991800  0.09336200  1
  O  34  1  0.94219300  0.62100800  0.16665100  1
  O  41  1  0.98187100  0.84772000  0.03708800  1
  O  43  1  0.99338400  0.68103500  0.07763700  1
  O  44  1  0.89957900  0.76614400  0.09389100  1
  O  60  1  0.41514800  0.94781800  0.86709400  1
  O  67  1  0.18843100  0.98096300  0.99852700  1
  O  69  1  0.35430200  0.99580200  0.95701900  1
  O  70  1  0.27045100  0.89862000  0.94222000  1
  O  86  1  0.62172400  0.09404700  0.86902000  1
  O  93  1  0.84826600  0.05444300  0.99881600  1
  O  95  1  0.68169900  0.04289300  0.95807800  1
  O  96  1  0.76669200  0.13675400  0.94202500  1
  O  112  1  0.59006600  0.12250200  0.66891900  1
  O  119  1  0.55479100  0.34852100  0.53746800  1
  O  121  1  0.53688900  0.18449600  0.58166600  1
  O  122  1  0.63641900  0.26666000  0.59453700  1
  O  138  1  0.44966200  0.91266200  0.67050100  1
  O  145  1  0.48263800  0.68731300  0.53800300  1
  O  147  1  0.50304000  0.85109100  0.58330100  1
  O  148  1  0.40120800  0.76965000  0.59480300  1
  O  164  1  0.91420300  0.58978000  0.36676200  1
  O  171  1  0.68810200  0.55414400  0.49801800  1
  O  173  1  0.85224800  0.53655300  0.45402900  1
  O  174  1  0.76991600  0.63595500  0.44106800  1
  O  190  1  0.12403800  0.44928900  0.36526000  1
  O  197  1  0.34925600  0.48208900  0.49797400  1
  O  199  1  0.18562200  0.50278500  0.45239600  1
  O  200  1  0.26690900  0.40078700  0.44106100  1
