# generated using pymatgen
data_La3H20C36O19
_symmetry_space_group_name_H-M   'P 1'
_cell_length_a   11.01260000
_cell_length_b   17.28769000
_cell_length_c   29.75562000
_cell_angle_alpha   86.92469000
_cell_angle_beta   79.43655000
_cell_angle_gamma   73.89814000
_symmetry_Int_Tables_number   1
_chemical_formula_structural   La3H20C36O19
_chemical_formula_sum   'La12 H80 C144 O76'
_cell_volume   5350.44781669
_cell_formula_units_Z   4
loop_
 _symmetry_equiv_pos_site_id
 _symmetry_equiv_pos_as_xyz
  1  'x, y, z'
loop_
 _atom_site_type_symbol
 _atom_site_label
 _atom_site_symmetry_multiplicity
 _atom_site_fract_x
 _atom_site_fract_y
 _atom_site_fract_z
 _atom_site_occupancy
  La  La1  1  0.24250000  0.28201000  0.62654000  1.0
  La  La2  1  0.55901000  0.38851000  0.97077000  1.0
  La  La3  1  0.11554000  0.49914000  0.68624000  1.0
  La  La4  1  0.54446000  0.10952000  0.96804000  1.0
  La  La5  1  0.10631000  0.80119000  0.70634000  1.0
  La  La6  1  0.19054000  0.01453000  0.64839000  1.0
  La  La7  1  0.75750000  0.71799000  0.37346000  1.0
  La  La8  1  0.44098000  0.61150000  0.02922000  1.0
  La  La9  1  0.88445000  0.50086000  0.31375000  1.0
  La  La10  1  0.45553000  0.89049000  0.03196000  1.0
  La  La11  1  0.89368000  0.19881000  0.29366000  1.0
  La  La12  1  0.80945000  0.98547000  0.35160000  1.0
  H  H1  1  0.99813000  0.26433000  0.93790000  1.0
  H  H2  1  0.20292000  0.21021000  0.96865000  1.0
  H  H3  1  0.04545000  0.03305000  0.04642000  1.0
  H  H4  1  0.84293000  0.08428000  0.01392000  1.0
  H  H5  1  0.47246000  0.00236000  0.69748000  1.0
  H  H6  1  0.66757000  0.93940000  0.73274000  1.0
  H  H7  1  0.88075000  0.07562000  0.64124000  1.0
  H  H8  1  0.68547000  0.14010000  0.60732000  1.0
  H  H9  1  0.67763000  0.62016000  0.71790000  1.0
  H  H10  1  0.46607000  0.68459000  0.69298000  1.0
  H  H11  1  0.60995000  0.88083000  0.63387000  1.0
  H  H12  1  0.81849000  0.81899000  0.66077000  1.0
  H  H13  1  0.21463000  0.84567000  0.83193000  1.0
  H  H14  1  0.28383000  0.86058000  0.90595000  1.0
  H  H15  1  0.44267000  0.05138000  0.84728000  1.0
  H  H16  1  0.37148000  0.03744000  0.77351000  1.0
  H  H17  1  0.06097000  0.23069000  0.41568000  1.0
  H  H18  1  0.13948000  0.24982000  0.48713000  1.0
  H  H19  1  0.95648000  0.07672000  0.55675000  1.0
  H  H20  1  0.87774000  0.05779000  0.48534000  1.0
  H  H21  1  0.61084000  0.27537000  0.63118000  1.0
  H  H22  1  0.83094000  0.25227000  0.65003000  1.0
  H  H23  1  0.74632000  0.50360000  0.68120000  1.0
  H  H24  1  0.52584000  0.52645000  0.66238000  1.0
  H  H25  1  0.58816000  0.29242000  0.13607000  1.0
  H  H26  1  0.69530000  0.51256000  0.10177000  1.0
  H  H27  1  0.66500000  0.28660000  0.21053000  1.0
  H  H28  1  0.78148000  0.50281000  0.17476000  1.0
  H  H29  1  0.45839000  0.38892000  0.82901000  1.0
  H  H30  1  0.37866000  0.39506000  0.75503000  1.0
  H  H31  1  0.24843000  0.18398000  0.79451000  1.0
  H  H32  1  0.31902000  0.18274000  0.86987000  1.0
  H  H33  1  0.03160000  0.61931000  0.53449000  1.0
  H  H34  1  0.95896000  0.63163000  0.45903000  1.0
  H  H35  1  0.06383000  0.61660000  0.02385000  1.0
  H  H36  1  0.84441000  0.63584000  0.00517000  1.0
  H  H37  1  0.03608000  0.19297000  0.68970000  1.0
  H  H38  1  0.14393000  0.15436000  0.71700000  1.0
  H  H39  1  0.39384000  0.28157000  0.01723000  1.0
  H  H40  1  0.51594000  0.25799000  0.03978000  1.0
  H  H41  1  0.00186000  0.73567000  0.06210000  1.0
  H  H42  1  0.79707000  0.78980000  0.03134000  1.0
  H  H43  1  0.95454000  0.96695000  0.95358000  1.0
  H  H44  1  0.15706000  0.91572000  0.98607000  1.0
  H  H45  1  0.52753000  0.99765000  0.30252000  1.0
  H  H46  1  0.33242000  0.06061000  0.26726000  1.0
  H  H47  1  0.11924000  0.92438000  0.35876000  1.0
  H  H48  1  0.31452000  0.85991000  0.39268000  1.0
  H  H49  1  0.32236000  0.37984000  0.28209000  1.0
  H  H50  1  0.53392000  0.31541000  0.30702000  1.0
  H  H51  1  0.39004000  0.11918000  0.36613000  1.0
  H  H52  1  0.18150000  0.18101000  0.33922000  1.0
  H  H53  1  0.78536000  0.15434000  0.16806000  1.0
  H  H54  1  0.71617000  0.13943000  0.09404000  1.0
  H  H55  1  0.55733000  0.94862000  0.15271000  1.0
  H  H56  1  0.62851000  0.96257000  0.22649000  1.0
  H  H57  1  0.93902000  0.76932000  0.58432000  1.0
  H  H58  1  0.86051000  0.75018000  0.51286000  1.0
  H  H59  1  0.04351000  0.92328000  0.44324000  1.0
  H  H60  1  0.12225000  0.94221000  0.51465000  1.0
  H  H61  1  0.38915000  0.72464000  0.36882000  1.0
  H  H62  1  0.16905000  0.74773000  0.34997000  1.0
  H  H63  1  0.25367000  0.49641000  0.31879000  1.0
  H  H64  1  0.47415000  0.47356000  0.33761000  1.0
  H  H65  1  0.41183000  0.70758000  0.86393000  1.0
  H  H66  1  0.30469000  0.48744000  0.89823000  1.0
  H  H67  1  0.33499000  0.71340000  0.78946000  1.0
  H  H68  1  0.21851000  0.49720000  0.82524000  1.0
  H  H69  1  0.54160000  0.61109000  0.17099000  1.0
  H  H70  1  0.62133000  0.60494000  0.24497000  1.0
  H  H71  1  0.75156000  0.81602000  0.20549000  1.0
  H  H72  1  0.68097000  0.81727000  0.13012000  1.0
  H  H73  1  0.96839000  0.38069000  0.46550000  1.0
  H  H74  1  0.04103000  0.36837000  0.54097000  1.0
  H  H75  1  0.93616000  0.38340000  0.97614000  1.0
  H  H76  1  0.15558000  0.36416000  0.99483000  1.0
  H  H77  1  0.96391000  0.80703000  0.31030000  1.0
  H  H78  1  0.85606000  0.84564000  0.28299000  1.0
  H  H79  1  0.60615000  0.71844000  0.98277000  1.0
  H  H80  1  0.48405000  0.74202000  0.96022000  1.0
  C  C1  1  0.90899000  0.17767000  0.97422000  1.0
  C  C2  1  0.00946000  0.21412000  0.96186000  1.0
  C  C3  1  0.12253000  0.18445000  0.97920000  1.0
  C  C4  1  0.13520000  0.11913000  0.00984000  1.0
  C  C5  1  0.03368000  0.08373000  0.02280000  1.0
  C  C6  1  0.92142000  0.11218000  0.00467000  1.0
  C  C7  1  0.78884000  0.20932000  0.95508000  1.0
  C  C8  1  0.25998000  0.08421000  0.02598000  1.0
  C  C9  1  0.56765000  0.07519000  0.65048000  1.0
  C  C10  1  0.56174000  0.01874000  0.68591000  1.0
  C  C11  1  0.66973000  0.98401000  0.70562000  1.0
  C  C12  1  0.78546000  0.00386000  0.68953000  1.0
  C  C13  1  0.79112000  0.06045000  0.65406000  1.0
  C  C14  1  0.68271000  0.09626000  0.63484000  1.0
  C  C15  1  0.45132000  0.11575000  0.63037000  1.0
  C  C16  1  0.90299000  0.95848000  0.70766000  1.0
  C  C17  1  0.66176000  0.67698000  0.69934000  1.0
  C  C18  1  0.54477000  0.71253000  0.68537000  1.0
  C  C19  1  0.52637000  0.78633000  0.66175000  1.0
  C  C20  1  0.62613000  0.82380000  0.65217000  1.0
  C  C21  1  0.74178000  0.78937000  0.66717000  1.0
  C  C22  1  0.76032000  0.71566000  0.69073000  1.0
  C  C23  1  0.39803000  0.82885000  0.65016000  1.0
  C  C24  1  0.88536000  0.67872000  0.70617000  1.0
  C  C25  1  0.26460000  0.89040000  0.83568000  1.0
  C  C26  1  0.30323000  0.89858000  0.87672000  1.0
  C  C27  1  0.36690000  0.95711000  0.88098000  1.0
  C  C28  1  0.39217000  0.00689000  0.84363000  1.0
  C  C29  1  0.35287000  0.99902000  0.80264000  1.0
  C  C30  1  0.28880000  0.94068000  0.79845000  1.0
  C  C31  1  0.40582000  0.96678000  0.92544000  1.0
  C  C32  1  0.24637000  0.93165000  0.75462000  1.0
  C  C33  1  0.03807000  0.19764000  0.44675000  1.0
  C  C34  1  0.08114000  0.20861000  0.48645000  1.0
  C  C35  1  0.05206000  0.16483000  0.52618000  1.0
  C  C36  1  0.97761000  0.11083000  0.52593000  1.0
  C  C37  1  0.93433000  0.09997000  0.48623000  1.0
  C  C38  1  0.96572000  0.14243000  0.44625000  1.0
  C  C39  1  0.10345000  0.17413000  0.56796000  1.0
  C  C40  1  0.92604000  0.12695000  0.40278000  1.0
  C  C41  1  0.64180000  0.32479000  0.64210000  1.0
  C  C42  1  0.76379000  0.31202000  0.65287000  1.0
  C  C43  1  0.80133000  0.37646000  0.66748000  1.0
  C  C44  1  0.71520000  0.45397000  0.67069000  1.0
  C  C45  1  0.59314000  0.46674000  0.65999000  1.0
  C  C46  1  0.55550000  0.40213000  0.64561000  1.0
  C  C47  1  0.42298000  0.41439000  0.63543000  1.0
  C  C48  1  0.93299000  0.36452000  0.67803000  1.0
  C  C49  1  0.62890000  0.33884000  0.14506000  1.0
  C  C50  1  0.63620000  0.40318000  0.11470000  1.0
  C  C51  1  0.68979000  0.46308000  0.12553000  1.0
  C  C52  1  0.67255000  0.33527000  0.18634000  1.0
  C  C53  1  0.59310000  0.40520000  0.07004000  1.0
  C  C54  1  0.77558000  0.39035000  0.24133000  1.0
  C  C55  1  0.73724000  0.45791000  0.16624000  1.0
  C  C56  1  0.72768000  0.39465000  0.19706000  1.0
  C  C57  1  0.43771000  0.28263000  0.89883000  1.0
  C  C58  1  0.39271000  0.28585000  0.85394000  1.0
  C  C59  1  0.41062000  0.34524000  0.82137000  1.0
  C  C60  1  0.36667000  0.34832000  0.78009000  1.0
  C  C61  1  0.30838000  0.28996000  0.77030000  1.0
  C  C62  1  0.29287000  0.22931000  0.80240000  1.0
  C  C63  1  0.33294000  0.22817000  0.84423000  1.0
  C  C64  1  0.26691000  0.29152000  0.72536000  1.0
  C  C65  1  0.01712000  0.56750000  0.51923000  1.0
  C  C66  1  0.97661000  0.57426000  0.47709000  1.0
  C  C67  1  0.04085000  0.49327000  0.54246000  1.0
  C  C68  1  0.08122000  0.48772000  0.58808000  1.0
  C  C69  1  0.03444000  0.56605000  0.01365000  1.0
  C  C70  1  0.91300000  0.57666000  0.00298000  1.0
  C  C71  1  0.25331000  0.47908000  0.02137000  1.0
  C  C72  1  0.12213000  0.48928000  0.01087000  1.0
  C  C73  1  0.09101000  0.82233000  0.02577000  1.0
  C  C74  1  0.99053000  0.78588000  0.03814000  1.0
  C  C75  1  0.87746000  0.81556000  0.02079000  1.0
  C  C76  1  0.86479000  0.88088000  0.99015000  1.0
  C  C77  1  0.96631000  0.91627000  0.97720000  1.0
  C  C78  1  0.07857000  0.88783000  0.99533000  1.0
  C  C79  1  0.21115000  0.79068000  0.04492000  1.0
  C  C80  1  0.74001000  0.91580000  0.97402000  1.0
  C  C81  1  0.43234000  0.92481000  0.34952000  1.0
  C  C82  1  0.43825000  0.98126000  0.31409000  1.0
  C  C83  1  0.33026000  0.01599000  0.29438000  1.0
  C  C84  1  0.21453000  0.99614000  0.31046000  1.0
  C  C85  1  0.20887000  0.93955000  0.34594000  1.0
  C  C86  1  0.31728000  0.90375000  0.36515000  1.0
  C  C87  1  0.54867000  0.88425000  0.36963000  1.0
  C  C88  1  0.09700000  0.04152000  0.29234000  1.0
  C  C89  1  0.33823000  0.32302000  0.30066000  1.0
  C  C90  1  0.45522000  0.28748000  0.31463000  1.0
  C  C91  1  0.47362000  0.21368000  0.33824000  1.0
  C  C92  1  0.37386000  0.17620000  0.34782000  1.0
  C  C93  1  0.25821000  0.21063000  0.33282000  1.0
  C  C94  1  0.23967000  0.28435000  0.30927000  1.0
  C  C95  1  0.60196000  0.17115000  0.34983000  1.0
  C  C96  1  0.11464000  0.32129000  0.29383000  1.0
  C  C97  1  0.73539000  0.10960000  0.16432000  1.0
  C  C98  1  0.69676000  0.10142000  0.12328000  1.0
  C  C99  1  0.63309000  0.04290000  0.11902000  1.0
  C  C100  1  0.60782000  0.99312000  0.15637000  1.0
  C  C101  1  0.64712000  0.00099000  0.19736000  1.0
  C  C102  1  0.71119000  0.05932000  0.20154000  1.0
  C  C103  1  0.59417000  0.03322000  0.07456000  1.0
  C  C104  1  0.75363000  0.06836000  0.24538000  1.0
  C  C105  1  0.96192000  0.80236000  0.55325000  1.0
  C  C106  1  0.91885000  0.79139000  0.51355000  1.0
  C  C107  1  0.94793000  0.83518000  0.47382000  1.0
  C  C108  1  0.02238000  0.88918000  0.47406000  1.0
  C  C109  1  0.06566000  0.90004000  0.51376000  1.0
  C  C110  1  0.03427000  0.85758000  0.55374000  1.0
  C  C111  1  0.89654000  0.82588000  0.43204000  1.0
  C  C112  1  0.07395000  0.87305000  0.59722000  1.0
  C  C113  1  0.35819000  0.67521000  0.35789000  1.0
  C  C114  1  0.23620000  0.68798000  0.34713000  1.0
  C  C115  1  0.19866000  0.62354000  0.33251000  1.0
  C  C116  1  0.28479000  0.54604000  0.32931000  1.0
  C  C117  1  0.40685000  0.53326000  0.34001000  1.0
  C  C118  1  0.44449000  0.59787000  0.35438000  1.0
  C  C119  1  0.57701000  0.58562000  0.36456000  1.0
  C  C120  1  0.06700000  0.63549000  0.32197000  1.0
  C  C121  1  0.37109000  0.66117000  0.85494000  1.0
  C  C122  1  0.36379000  0.59682000  0.88530000  1.0
  C  C123  1  0.31020000  0.53692000  0.87446000  1.0
  C  C124  1  0.32744000  0.66473000  0.81366000  1.0
  C  C125  1  0.40689000  0.59480000  0.92995000  1.0
  C  C126  1  0.22441000  0.60965000  0.75866000  1.0
  C  C127  1  0.26275000  0.54209000  0.83376000  1.0
  C  C128  1  0.27231000  0.60536000  0.80294000  1.0
  C  C129  1  0.56228000  0.71737000  0.10117000  1.0
  C  C130  1  0.60728000  0.71415000  0.14606000  1.0
  C  C131  1  0.58937000  0.65476000  0.17862000  1.0
  C  C132  1  0.63332000  0.65168000  0.21991000  1.0
  C  C133  1  0.69161000  0.71004000  0.22970000  1.0
  C  C134  1  0.70712000  0.77069000  0.19759000  1.0
  C  C135  1  0.66705000  0.77184000  0.15576000  1.0
  C  C136  1  0.73308000  0.70849000  0.27464000  1.0
  C  C137  1  0.98287000  0.43250000  0.48077000  1.0
  C  C138  1  0.02338000  0.42575000  0.52290000  1.0
  C  C139  1  0.95914000  0.50674000  0.45754000  1.0
  C  C140  1  0.91877000  0.51229000  0.41191000  1.0
  C  C141  1  0.96555000  0.43396000  0.98635000  1.0
  C  C142  1  0.08700000  0.42335000  0.99701000  1.0
  C  C143  1  0.74668000  0.52092000  0.97862000  1.0
  C  C144  1  0.87787000  0.51072000  0.98913000  1.0
  O  O1  1  0.72801000  0.16007000  0.94745000  1.0
  O  O2  1  0.75231000  0.28502000  0.94749000  1.0
  O  O3  1  0.34329000  0.12469000  0.01806000  1.0
  O  O4  1  0.27895000  0.01557000  0.04536000  1.0
  O  O5  1  0.44965000  0.18193000  0.60884000  1.0
  O  O6  1  0.35537000  0.08606000  0.63652000  1.0
  O  O7  1  0.01156000  0.97269000  0.69104000  1.0
  O  O8  1  0.89651000  0.90195000  0.73628000  1.0
  O  O9  1  0.38208000  0.89982000  0.63375000  1.0
  O  O10  1  0.30878000  0.79316000  0.65903000  1.0
  O  O11  1  0.92051000  0.60219000  0.71112000  1.0
  O  O12  1  0.95183000  0.72492000  0.71330000  1.0
  O  O13  1  0.25548000  0.98431000  0.72348000  1.0
  O  O14  1  0.44889000  0.02688000  0.92983000  1.0
  O  O15  1  0.39212000  0.91482000  0.95667000  1.0
  O  O16  1  0.87290000  0.07038000  0.40233000  1.0
  O  O17  1  0.95116000  0.17138000  0.36835000  1.0
  O  O18  1  0.09074000  0.12563000  0.60136000  1.0
  O  O19  1  0.15877000  0.23019000  0.56825000  1.0
  O  O20  1  0.33843000  0.48034000  0.64793000  1.0
  O  O21  1  0.40072000  0.35686000  0.61587000  1.0
  O  O22  1  0.01761000  0.29682000  0.66790000  1.0
  O  O23  1  0.95706000  0.42306000  0.69563000  1.0
  O  O24  1  0.60072000  0.33921000  0.05124000  1.0
  O  O25  1  0.55293000  0.47303000  0.04998000  1.0
  O  O26  1  0.77602000  0.32789000  0.26621000  1.0
  O  O27  1  0.81191000  0.44978000  0.25221000  1.0
  O  O28  1  0.47920000  0.34038000  0.90899000  1.0
  O  O29  1  0.43070000  0.22209000  0.92463000  1.0
  O  O30  1  0.26661000  0.22656000  0.70706000  1.0
  O  O31  1  0.23623000  0.35949000  0.70425000  1.0
  O  O32  1  0.07258000  0.55166000  0.60913000  1.0
  O  O33  1  0.12139000  0.41771000  0.60650000  1.0
  O  O34  1  0.33721000  0.41117000  0.01152000  1.0
  O  O35  1  0.27584000  0.53850000  0.03852000  1.0
  O  O36  1  0.20418000  0.87083000  0.75087000  1.0
  O  O37  1  0.08024000  0.14080000  0.70217000  1.0
  O  O38  1  0.48556000  0.25367000  0.01126000  1.0
  O  O39  1  0.27198000  0.83994000  0.05254000  1.0
  O  O40  1  0.24768000  0.71498000  0.05251000  1.0
  O  O41  1  0.65670000  0.87532000  0.98194000  1.0
  O  O42  1  0.72104000  0.98443000  0.95464000  1.0
  O  O43  1  0.55034000  0.81807000  0.39116000  1.0
  O  O44  1  0.64462000  0.91394000  0.36348000  1.0
  O  O45  1  0.98843000  0.02731000  0.30896000  1.0
  O  O46  1  0.10348000  0.09805000  0.26372000  1.0
  O  O47  1  0.61791000  0.10019000  0.36625000  1.0
  O  O48  1  0.69121000  0.20685000  0.34097000  1.0
  O  O49  1  0.07948000  0.39782000  0.28887000  1.0
  O  O50  1  0.04816000  0.27509000  0.28670000  1.0
  O  O51  1  0.74451000  0.01569000  0.27652000  1.0
  O  O52  1  0.55110000  0.97312000  0.07017000  1.0
  O  O53  1  0.60788000  0.08518000  0.04333000  1.0
  O  O54  1  0.12709000  0.92963000  0.59767000  1.0
  O  O55  1  0.04884000  0.82862000  0.63164000  1.0
  O  O56  1  0.90925000  0.87437000  0.39863000  1.0
  O  O57  1  0.84122000  0.76982000  0.43175000  1.0
  O  O58  1  0.66156000  0.51966000  0.35207000  1.0
  O  O59  1  0.59927000  0.64314000  0.38413000  1.0
  O  O60  1  0.98238000  0.70318000  0.33210000  1.0
  O  O61  1  0.04293000  0.57694000  0.30437000  1.0
  O  O62  1  0.39927000  0.66079000  0.94875000  1.0
  O  O63  1  0.44706000  0.52698000  0.95002000  1.0
  O  O64  1  0.22397000  0.67212000  0.73379000  1.0
  O  O65  1  0.18808000  0.55022000  0.74778000  1.0
  O  O66  1  0.52079000  0.65963000  0.09100000  1.0
  O  O67  1  0.56929000  0.77792000  0.07536000  1.0
  O  O68  1  0.73338000  0.77345000  0.29293000  1.0
  O  O69  1  0.76376000  0.64051000  0.29575000  1.0
  O  O70  1  0.92741000  0.44835000  0.39087000  1.0
  O  O71  1  0.87860000  0.58230000  0.39350000  1.0
  O  O72  1  0.66278000  0.58883000  0.98848000  1.0
  O  O73  1  0.72415000  0.46150000  0.96147000  1.0
  O  O74  1  0.79581000  0.12918000  0.24912000  1.0
  O  O75  1  0.91975000  0.85920000  0.29783000  1.0
  O  O76  1  0.51444000  0.74634000  0.98874000  1.0
