# generated using pymatgen
data_H23C37N3
_symmetry_space_group_name_H-M   'P 1'
_cell_length_a   52.40550000
_cell_length_b   52.40570000
_cell_length_c   55.37530000
_cell_angle_alpha   90.13650000
_cell_angle_beta   89.87459947
_cell_angle_gamma   120.00037874
_symmetry_Int_Tables_number   1
_chemical_formula_structural   H23C37N3
_chemical_formula_sum   'H276 C444 N36'
_cell_volume   131703.99269748
_cell_formula_units_Z   12
loop_
 _symmetry_equiv_pos_site_id
 _symmetry_equiv_pos_as_xyz
  1  'x, y, z'
loop_
 _atom_site_type_symbol
 _atom_site_label
 _atom_site_symmetry_multiplicity
 _atom_site_fract_x
 _atom_site_fract_y
 _atom_site_fract_z
 _atom_site_occupancy
  H  19  1  0.76682700  0.03360700  0.95896800  1
  H  20  1  0.74307400  0.98296900  0.94641200  1
  H  21  1  0.81076900  0.01565800  0.01435400  1
  H  22  1  0.63942800  0.77652400  0.87207200  1
  H  23  1  0.63898800  0.85709900  0.87128700  1
  H  24  1  0.60584100  0.83983000  0.83774600  1
  H  25  1  0.60638100  0.75953900  0.83829700  1
  H  26  1  0.77003500  0.78270500  0.94602600  1
  H  27  1  0.79029800  0.78903800  0.03213000  1
  H  28  1  0.76699300  0.81454700  0.01571800  1
  H  29  1  0.79340100  0.75737400  0.96263400  1
  H  36  1  0.70070400  0.89032400  0.92648400  1
  H  37  1  0.70301000  0.81094800  0.92917800  1
  H  38  1  0.75858300  0.88208800  0.97458500  1
  H  39  1  0.78739300  0.96506600  0.00190100  1
  H  67  1  0.46474000  0.44261300  0.98090000  1
  H  68  1  0.43637200  0.46347700  0.96558800  1
  H  69  1  0.38646000  0.36650000  0.00263400  1
  H  70  1  0.32319400  0.54732000  0.87181800  1
  H  71  1  0.40486800  0.54909100  0.87131300  1
  H  72  1  0.42073000  0.58245000  0.83792700  1
  H  73  1  0.33924600  0.58058000  0.83819500  1
  H  74  1  0.19928400  0.41666600  0.94563600  1
  H  75  1  0.18487600  0.39598000  0.03167300  1
  H  76  1  0.23377700  0.41929800  0.01527500  1
  H  77  1  0.15050400  0.39329300  0.96222900  1
  H  84  1  0.37669100  0.48740400  0.92654900  1
  H  85  1  0.29418900  0.48343000  0.92860500  1
  H  86  1  0.31056000  0.42901000  0.97454400  1
  H  87  1  0.35794800  0.38710400  0.98748700  1
  H  115  1  0.15991100  0.73048700  0.98491000  1
  H  116  1  0.20950900  0.75421500  0.96978000  1
  H  117  1  0.16808900  0.81353200  0.99862500  1
  H  118  1  0.41008300  0.86368100  0.87252100  1
  H  119  1  0.33012000  0.78207900  0.87145400  1
  H  120  1  0.34784800  0.76656700  0.83787900  1
  H  121  1  0.42752500  0.84798500  0.83871000  1
  H  122  1  0.40431100  0.98831300  0.94611200  1
  H  123  1  0.39781200  0.00241000  0.03224000  1
  H  124  1  0.37244400  0.95355200  0.01574100  1
  H  125  1  0.42950700  0.03705500  0.96280700  1
  H  132  1  0.29624000  0.81094200  0.92708900  1
  H  133  1  0.37587500  0.89247000  0.92925800  1
  H  134  1  0.30520000  0.87781700  0.97491200  1
  H  135  1  0.21761500  0.83746400  0.98367200  1
  H  163  1  0.49182000  0.09754200  0.48377100  1
  H  164  1  0.51771200  0.14704900  0.46855200  1
  H  165  1  0.41808000  0.10690500  0.49959600  1
  H  166  1  0.60953900  0.34799600  0.37255900  1
  H  167  1  0.61129200  0.26808800  0.37146300  1
  H  168  1  0.64447000  0.28575800  0.33788600  1
  H  169  1  0.64261700  0.36537600  0.33874900  1
  H  170  1  0.47946100  0.34258200  0.44604300  1
  H  171  1  0.45857500  0.33607100  0.53210200  1
  H  172  1  0.48210200  0.31068900  0.51565800  1
  H  173  1  0.45587800  0.36779200  0.46268400  1
  H  180  1  0.54838400  0.23422300  0.42696100  1
  H  181  1  0.54673100  0.31398400  0.42927900  1
  H  182  1  0.49054700  0.24336400  0.47475600  1
  H  183  1  0.44370900  0.15635100  0.48457300  1
  H  211  1  0.79578500  0.70472500  0.45933800  1
  H  212  1  0.82270000  0.68099600  0.44675300  1
  H  213  1  0.85793800  0.74910200  0.51456500  1
  H  214  1  0.92606600  0.57781400  0.37220000  1
  H  215  1  0.84478400  0.57683900  0.37152600  1
  H  216  1  0.82895100  0.54357100  0.33799800  1
  H  217  1  0.91004800  0.54464900  0.33843200  1
  H  218  1  0.05013600  0.70840900  0.44618400  1
  H  219  1  0.06440500  0.72877000  0.53230400  1
  H  220  1  0.01552700  0.70547300  0.51596100  1
  H  221  1  0.09889800  0.73176400  0.46272400  1
  H  228  1  0.87323000  0.63886800  0.42665700  1
  H  229  1  0.95500700  0.64137600  0.42939500  1
  H  230  1  0.93931100  0.69692100  0.47484000  1
  H  231  1  0.88518300  0.72575200  0.50208100  1
  H  259  1  0.08589400  0.40239600  0.47868200  1
  H  260  1  0.03668900  0.37386200  0.46327300  1
  H  261  1  0.08194400  0.32476400  0.50450600  1
  H  262  1  0.83868900  0.26098300  0.37148300  1
  H  263  1  0.91891600  0.34234500  0.37091600  1
  H  264  1  0.90148100  0.35831400  0.33759200  1
  H  265  1  0.82153900  0.27713900  0.33792100  1
  H  266  1  0.84564500  0.13675300  0.44535200  1
  H  267  1  0.85201300  0.12306600  0.53147900  1
  H  268  1  0.87756300  0.17183000  0.51491700  1
  H  269  1  0.82026900  0.08811100  0.46210800  1
  H  276  1  0.95220600  0.31425000  0.42615200  1
  H  277  1  0.87369600  0.23173600  0.42813100  1
  H  278  1  0.94454300  0.24822600  0.47409600  1
  H  279  1  0.03283300  0.29608200  0.48928800  1
  H  307  1  0.79576500  0.09148000  0.04883000  1
  H  308  1  0.82282700  0.14212900  0.06132900  1
  H  309  1  0.85776700  0.10902000  0.99340700  1
  H  310  1  0.92599900  0.34852500  0.13554300  1
  H  311  1  0.84467600  0.26825700  0.13626100  1
  H  312  1  0.82880200  0.28568300  0.16980000  1
  H  313  1  0.90994000  0.36566500  0.16931900  1
  H  314  1  0.05021800  0.34202300  0.06160900  1
  H  315  1  0.06473500  0.33610000  0.97548200  1
  H  316  1  0.01580700  0.31050400  0.99182000  1
  H  317  1  0.09903000  0.36744300  0.04507200  1
  H  324  1  0.87327800  0.23467400  0.08116200  1
  H  325  1  0.95503900  0.31396700  0.07835800  1
  H  326  1  0.93948600  0.24273100  0.03299300  1
  H  327  1  0.88516300  0.15962200  0.00580400  1
  H  355  1  0.08389700  0.68239100  0.02728300  1
  H  356  1  0.03452600  0.66162700  0.04242500  1
  H  357  1  0.08177900  0.75818300  0.00464200  1
  H  358  1  0.83775600  0.57742400  0.13631400  1
  H  359  1  0.91844600  0.57719800  0.13659400  1
  H  360  1  0.90143500  0.54394800  0.17005600  1
  H  361  1  0.82103100  0.54427600  0.17001300  1
  H  362  1  0.84417100  0.70852600  0.06219000  1
  H  363  1  0.85067400  0.72889400  0.97610300  1
  H  364  1  0.87618200  0.70560400  0.99254700  1
  H  365  1  0.81883800  0.73187400  0.04554900  1
  H  372  1  0.95095900  0.63786100  0.08108500  1
  H  373  1  0.87240900  0.64179200  0.07936000  1
  H  374  1  0.94308400  0.69601300  0.03306000  1
  H  375  1  0.03252500  0.73767800  0.01961300  1
  H  403  1  0.49236600  0.39446900  0.02283800  1
  H  404  1  0.51816100  0.37084000  0.03818300  1
  H  405  1  0.41723400  0.31134600  0.01010900  1
  H  406  1  0.60911900  0.26173400  0.13583700  1
  H  407  1  0.61116400  0.34353600  0.13670400  1
  H  408  1  0.64448400  0.35912700  0.17012300  1
  H  409  1  0.64233600  0.27751400  0.16949100  1
  H  410  1  0.47876100  0.13684500  0.06251900  1
  H  411  1  0.45816100  0.12281900  0.97644400  1
  H  412  1  0.48174600  0.17167300  0.99296000  1
  H  413  1  0.45512000  0.08810900  0.04580500  1
  H  420  1  0.54803400  0.31434500  0.08141000  1
  H  421  1  0.54625500  0.23286500  0.07929300  1
  H  422  1  0.49015500  0.24728400  0.03380500  1
  H  423  1  0.44275200  0.28751100  0.02528500  1
  H  451  1  0.46443400  0.02291600  0.52852600  1
  H  452  1  0.43582900  0.97365700  0.54379300  1
  H  453  1  0.38677100  0.01957900  0.50351900  1
  H  454  1  0.32304900  0.77632700  0.63627700  1
  H  455  1  0.40441900  0.85655600  0.63652800  1
  H  456  1  0.42048500  0.83934400  0.66994000  1
  H  457  1  0.33930400  0.75940400  0.66992600  1
  H  458  1  0.19884200  0.78267000  0.56218400  1
  H  459  1  0.18471900  0.78905200  0.47613600  1
  H  460  1  0.23356400  0.81462300  0.49255200  1
  H  461  1  0.15011800  0.75727700  0.54557500  1
  H  468  1  0.37618400  0.88956500  0.58128100  1
  H  469  1  0.29374500  0.81096900  0.57931600  1
  H  470  1  0.31015100  0.88167200  0.53322100  1
  H  471  1  0.35801900  0.97042100  0.51860100  1
  H  499  1  0.15994800  0.42942700  0.52445000  1
  H  500  1  0.20939800  0.45522500  0.53981100  1
  H  501  1  0.16960500  0.35604500  0.50781500  1
  H  502  1  0.41027700  0.54733700  0.63572400  1
  H  503  1  0.33024800  0.54885600  0.63663600  1
  H  504  1  0.34783900  0.58218000  0.67012200  1
  H  505  1  0.42758300  0.58056400  0.66944700  1
  H  506  1  0.40490400  0.41692900  0.56225600  1
  H  507  1  0.39867400  0.39637800  0.47614200  1
  H  508  1  0.37329900  0.41990900  0.49259300  1
  H  509  1  0.43010500  0.39334300  0.54560800  1
  H  516  1  0.29657800  0.48595600  0.58120000  1
  H  517  1  0.37635300  0.48432200  0.57902900  1
  H  518  1  0.30583700  0.42816300  0.53342900  1
  H  519  1  0.21899800  0.38158400  0.52297500  1
  H  547  1  0.76676100  0.73384100  0.54889500  1
  H  548  1  0.74313000  0.76089700  0.56134200  1
  H  549  1  0.81177100  0.79611400  0.49390600  1
  H  550  1  0.63982100  0.86399700  0.63565900  1
  H  551  1  0.63935400  0.78297000  0.63649200  1
  H  552  1  0.60608000  0.76705700  0.67001000  1
  H  553  1  0.60664900  0.84790200  0.66941300  1
  H  554  1  0.77116700  0.98860900  0.56180800  1
  H  555  1  0.79147700  0.00245100  0.47567000  1
  H  556  1  0.76801400  0.95364000  0.49213800  1
  H  557  1  0.79469000  0.03730800  0.54514000  1
  H  564  1  0.70122700  0.81147800  0.58131300  1
  H  565  1  0.70372200  0.89325100  0.57864800  1
  H  566  1  0.75941600  0.87766800  0.53329900  1
  H  567  1  0.78852500  0.82351100  0.50625800  1
  H  581  1  0.48924000  0.74778900  0.76966500  1
  H  582  1  0.48925700  0.74253500  0.73812600  1
  H  585  1  0.52940300  0.78244700  0.71130700  1
  H  586  1  0.55650900  0.81555300  0.72450200  1
  H  587  1  0.52974800  0.73401700  0.71868400  1
  H  588  1  0.55620600  0.73310400  0.73759000  1
  H  591  1  0.59693800  0.81546300  0.75093100  1
  H  592  1  0.59690300  0.78238600  0.75677500  1
  H  594  1  0.55626200  0.82411300  0.77014000  1
  H  595  1  0.52974900  0.79674900  0.78906800  1
  H  597  1  0.55639400  0.74188300  0.78322900  1
  H  598  1  0.52929600  0.74792400  0.79644300  1
  H  601  1  0.59538300  0.82314600  0.79641400  1
  H  602  1  0.49434400  0.70057100  0.77929200  1
  H  605  1  0.49446800  0.79476000  0.72851100  1
  H  606  1  0.59539400  0.77315300  0.71129100  1
  H  611  1  0.44509700  0.69851000  0.76973400  1
  H  612  1  0.43989000  0.69845000  0.73820500  1
  H  615  1  0.43972800  0.65828000  0.71137000  1
  H  616  1  0.44571900  0.63119900  0.72453900  1
  H  617  1  0.39092200  0.65788500  0.71883000  1
  H  618  1  0.36352100  0.63147000  0.73779400  1
  H  621  1  0.40515700  0.59079100  0.75102500  1
  H  622  1  0.37209000  0.59080900  0.75693400  1
  H  624  1  0.45442800  0.63150700  0.77016700  1
  H  625  1  0.45350000  0.65801900  0.78911100  1
  H  627  1  0.37201500  0.63134600  0.78340300  1
  H  628  1  0.40511600  0.65845700  0.79657300  1
  H  631  1  0.41434000  0.59243400  0.79648800  1
  H  632  1  0.39293500  0.69342600  0.77946600  1
  H  635  1  0.48691800  0.69329200  0.72850200  1
  H  636  1  0.36444600  0.59222200  0.71152200  1
  H  641  1  0.43996300  0.74262800  0.76977200  1
  H  642  1  0.44518500  0.74772900  0.73822900  1
  H  645  1  0.40523600  0.74776900  0.71142300  1
  H  646  1  0.37213300  0.74182100  0.72462500  1
  H  647  1  0.45363900  0.79660100  0.71876700  1
  H  648  1  0.45456000  0.82407600  0.73766200  1
  H  651  1  0.37222400  0.78249500  0.75102900  1
  H  652  1  0.40530000  0.81557900  0.75685800  1
  H  654  1  0.36361600  0.73328100  0.77025900  1
  H  655  1  0.39100500  0.73426400  0.78918900  1
  H  657  1  0.44582600  0.81575200  0.78331800  1
  H  658  1  0.43982200  0.78269300  0.79654000  1
  H  661  1  0.36455100  0.77355200  0.79642800  1
  H  662  1  0.48703300  0.79486500  0.77934100  1
  H  665  1  0.39283800  0.70048900  0.72864500  1
  H  666  1  0.41450100  0.82302500  0.71134300  1
  H  671  1  0.76030600  0.37775700  0.26974700  1
  H  672  1  0.76034700  0.38300000  0.23822400  1
  H  675  1  0.72028500  0.34308100  0.21135500  1
  H  676  1  0.69315500  0.30996700  0.22448700  1
  H  677  1  0.71987600  0.39148100  0.21889400  1
  H  678  1  0.69338100  0.39239300  0.23786700  1
  H  681  1  0.65265400  0.31004000  0.25100600  1
  H  682  1  0.65265900  0.34310900  0.25696700  1
  H  684  1  0.69329900  0.30141700  0.27009900  1
  H  685  1  0.71975400  0.32878800  0.28907200  1
  H  687  1  0.69309600  0.38362500  0.28347900  1
  H  688  1  0.72018400  0.37760700  0.29661000  1
  H  691  1  0.65406400  0.30235600  0.29640900  1
  H  692  1  0.75521400  0.42496700  0.27951900  1
  H  695  1  0.75522300  0.33079600  0.22848300  1
  H  696  1  0.65423200  0.35232700  0.21156400  1
  H  701  1  0.80445300  0.42707800  0.26980000  1
  H  702  1  0.80961100  0.42702700  0.23824900  1
  H  705  1  0.80971800  0.46709600  0.21149500  1
  H  706  1  0.80374800  0.49422000  0.22475800  1
  H  707  1  0.85852800  0.46748100  0.21875900  1
  H  708  1  0.88597200  0.49399000  0.23764400  1
  H  711  1  0.84438300  0.53473300  0.25114700  1
  H  712  1  0.87745200  0.53471900  0.25691300  1
  H  714  1  0.79512800  0.49408400  0.27040500  1
  H  715  1  0.79607500  0.46762900  0.28928900  1
  H  717  1  0.87756500  0.49429100  0.28330800  1
  H  718  1  0.84448300  0.46721800  0.29655400  1
  H  721  1  0.83532300  0.53330600  0.29660800  1
  H  722  1  0.85678500  0.43219300  0.27930900  1
  H  725  1  0.76257900  0.43220800  0.22872500  1
  H  726  1  0.88496500  0.53304200  0.21134700  1
  H  731  1  0.80954900  0.38290300  0.26969100  1
  H  732  1  0.80435300  0.37770500  0.23815500  1
  H  735  1  0.84432400  0.37754900  0.21126400  1
  H  736  1  0.87741700  0.38354600  0.22441300  1
  H  737  1  0.79591600  0.32874200  0.21864700  1
  H  738  1  0.79497400  0.30134100  0.23752500  1
  H  741  1  0.87731100  0.34298200  0.25077800  1
  H  742  1  0.84423600  0.30991300  0.25663100  1
  H  744  1  0.88588900  0.39225000  0.27005300  1
  H  745  1  0.85847400  0.39131700  0.28902700  1
  H  747  1  0.80366500  0.30982400  0.28314900  1
  H  748  1  0.80966700  0.34292200  0.29640900  1
  H  751  1  0.88492100  0.35215500  0.29625700  1
  H  752  1  0.76245700  0.33064500  0.27932400  1
  H  755  1  0.85651900  0.42472100  0.22850500  1
  H  756  1  0.83509900  0.30228400  0.21118500  1
  C  1  1  0.64228300  0.81839800  0.87475000  1
  C  2  1  0.76278200  0.96929800  0.97320100  1
  C  3  1  0.76631000  0.80089600  0.97936700  1
  C  4  1  0.78246200  0.97914800  0.99293500  1
  C  5  1  0.79609200  0.00878900  0.00035200  1
  C  6  1  0.79034700  0.02905700  0.98815300  1
  C  7  1  0.77092800  0.01918700  0.96828500  1
  C  8  1  0.75699600  0.98948000  0.96096600  1
  C  9  1  0.63219500  0.83642700  0.86458700  1
  C  10  1  0.61282000  0.82634200  0.84477200  1
  C  11  1  0.60332500  0.79818000  0.83462300  1
  C  12  1  0.61292700  0.78000800  0.84527800  1
  C  13  1  0.63238700  0.79002700  0.86506500  1
  C  14  1  0.77409900  0.78415200  0.96422100  1
  C  15  1  0.78787200  0.76930800  0.97394800  1
  C  16  1  0.79407700  0.77091300  0.99894700  1
  C  17  1  0.78600300  0.78749100  0.01399000  1
  C  18  1  0.77233000  0.80246600  0.00433500  1
  C  30  1  0.73224900  0.84411000  0.95336000  1
  C  31  1  0.71033600  0.83201800  0.93529900  1
  C  32  1  0.69863400  0.84885700  0.92547600  1
  C  33  1  0.70899400  0.87793100  0.93374800  1
  C  34  1  0.73089500  0.89014300  0.95181200  1
  C  35  1  0.74248100  0.87317300  0.96156400  1
  C  40  1  0.75411600  0.81517800  0.97035500  1
  C  41  1  0.74339800  0.82875400  0.96218400  1
  C  42  1  0.75092800  0.94205800  0.96587700  1
  C  43  1  0.74092100  0.91718000  0.95913800  1
  C  44  1  0.67881700  0.83785400  0.90846000  1
  C  45  1  0.66107100  0.82821300  0.89254200  1
  C  49  1  0.36254300  0.54510500  0.87461700  1
  C  50  1  0.39455000  0.42716900  0.97507600  1
  C  51  1  0.22101000  0.42016900  0.97895100  1
  C  52  1  0.38044400  0.39904000  0.98592100  1
  C  53  1  0.39718500  0.38688000  0.99478700  1
  C  54  1  0.42830900  0.40256300  0.99302000  1
  C  55  1  0.44225800  0.43078500  0.98235300  1
  C  56  1  0.42559000  0.44299700  0.97334800  1
  C  57  1  0.39084700  0.55564900  0.86459000  1
  C  58  1  0.40013200  0.57515300  0.84487000  1
  C  59  1  0.38127400  0.58432100  0.83468000  1
  C  60  1  0.35330900  0.57428000  0.84521200  1
  C  61  1  0.34387500  0.55469000  0.86490500  1
  C  62  1  0.19656700  0.41250600  0.96381600  1
  C  63  1  0.16790100  0.39873100  0.97353500  1
  C  64  1  0.16316300  0.39240800  0.99851500  1
  C  65  1  0.18772600  0.40036100  0.01354900  1
  C  66  1  0.21642400  0.41403700  0.00390000  1
  C  78  1  0.29846400  0.45465700  0.95299000  1
  C  79  1  0.30813300  0.47644900  0.93485000  1
  C  80  1  0.33683200  0.48856800  0.92516700  1
  C  81  1  0.35586200  0.47875300  0.93366300  1
  C  82  1  0.34632400  0.45697000  0.95180600  1
  C  83  1  0.31760700  0.44496600  0.96141700  1
  C  88  1  0.24753500  0.43241600  0.96994500  1
  C  89  1  0.27187900  0.44325600  0.96178200  1
  C  90  1  0.37889300  0.43826500  0.96682200  1
  C  91  1  0.36371300  0.44761100  0.95950500  1
  C  92  1  0.34555800  0.50838800  0.90817000  1
  C  93  1  0.35359900  0.52620100  0.89231500  1
  C  97  1  0.36846900  0.82433600  0.87506000  1
  C  98  1  0.21812700  0.79801300  0.97538900  1
  C  99  1  0.38612900  0.96646000  0.97941600  1
  C  100  1  0.20575000  0.81488400  0.98387400  1
  C  101  1  0.17666400  0.80086000  0.99266100  1
  C  102  1  0.15951700  0.76985600  0.99331200  1
  C  103  1  0.17199300  0.75300400  0.98483400  1
  C  104  1  0.20106600  0.76695300  0.97591000  1
  C  105  1  0.35075600  0.79615900  0.86480800  1
  C  106  1  0.36110900  0.78708500  0.84497500  1
  C  107  1  0.38922300  0.80603100  0.83489000  1
  C  108  1  0.40709400  0.83386500  0.84564000  1
  C  109  1  0.39680400  0.84309000  0.86544700  1
  C  110  1  0.40281700  0.99096700  0.96430800  1
  C  111  1  0.41757500  0.01960900  0.97408500  1
  C  112  1  0.41592800  0.02425200  0.99909400  1
  C  113  1  0.39937400  0.99962800  0.01409400  1
  C  114  1  0.38448900  0.97095600  0.00438800  1
  C  126  1  0.34296500  0.88900000  0.95354700  1
  C  127  1  0.35483900  0.87886400  0.93549400  1
  C  128  1  0.33781800  0.85020900  0.92582600  1
  C  129  1  0.30877800  0.83169300  0.93424800  1
  C  130  1  0.29679600  0.84170400  0.95231900  1
  C  131  1  0.31395200  0.87037700  0.96190400  1
  C  136  1  0.37196800  0.93995700  0.97037100  1
  C  137  1  0.35842900  0.91560400  0.96223200  1
  C  138  1  0.24503000  0.81129900  0.96710500  1
  C  139  1  0.26978300  0.82505700  0.95982200  1
  C  140  1  0.34867300  0.84117800  0.90879500  1
  C  141  1  0.35840600  0.83311200  0.89286500  1
  C  145  1  0.60733900  0.30641700  0.37508400  1
  C  146  1  0.48311000  0.15625900  0.47522600  1
  C  147  1  0.48301000  0.32439000  0.47934500  1
  C  148  1  0.45417900  0.14425100  0.48434400  1
  C  149  1  0.43909600  0.11521100  0.49317100  1
  C  150  1  0.45263400  0.09775900  0.49325400  1
  C  151  1  0.48164100  0.10986300  0.48413600  1
  C  152  1  0.49677400  0.13888100  0.47515700  1
  C  153  1  0.61781600  0.28870100  0.36482600  1
  C  154  1  0.63720800  0.29902000  0.34499200  1
  C  155  1  0.64632000  0.32709700  0.33491700  1
  C  156  1  0.63634800  0.34497500  0.34567700  1
  C  157  1  0.61686800  0.33471800  0.36548200  1
  C  158  1  0.47525700  0.34109200  0.46422600  1
  C  159  1  0.46135100  0.35585700  0.47397100  1
  C  160  1  0.45497600  0.35420300  0.49895900  1
  C  161  1  0.46298800  0.33764200  0.51397300  1
  C  162  1  0.47679400  0.32274700  0.50429900  1
  C  174  1  0.51722000  0.28110900  0.45348300  1
  C  175  1  0.53924500  0.29293600  0.43547000  1
  C  176  1  0.55081600  0.27585600  0.42578000  1
  C  177  1  0.54021400  0.24680100  0.43413700  1
  C  178  1  0.51820300  0.23486700  0.45216700  1
  C  179  1  0.50675100  0.25208100  0.46177600  1
  C  184  1  0.49534500  0.31020000  0.47032100  1
  C  185  1  0.50613100  0.29662300  0.46218400  1
  C  186  1  0.49674200  0.18311700  0.46690500  1
  C  187  1  0.50777600  0.20785100  0.45962700  1
  C  188  1  0.57071200  0.28667200  0.40878100  1
  C  189  1  0.58851300  0.29637800  0.39287500  1
  C  193  1  0.88690800  0.58041500  0.37493000  1
  C  194  1  0.85621400  0.70092600  0.47345800  1
  C  195  1  0.02835300  0.70474200  0.47957500  1
  C  196  1  0.86610700  0.72072100  0.49315800  1
  C  197  1  0.85008000  0.73433600  0.50059300  1
  C  198  1  0.82398500  0.72846200  0.48844900  1
  C  199  1  0.81436500  0.70892000  0.46861800  1
  C  200  1  0.83016100  0.69500400  0.46128100  1
  C  201  1  0.85872900  0.57013700  0.36480500  1
  C  202  1  0.84946500  0.55068900  0.34499800  1
  C  203  1  0.86822300  0.54131600  0.33481600  1
  C  204  1  0.89606200  0.55110400  0.34543500  1
  C  205  1  0.90547500  0.57063700  0.36521600  1
  C  206  1  0.05282400  0.71249100  0.46438200  1
  C  207  1  0.08148000  0.72625900  0.47406800  1
  C  208  1  0.08617400  0.73249000  0.49907200  1
  C  209  1  0.06158400  0.72445200  0.51416100  1
  C  210  1  0.03290100  0.71078700  0.50454600  1
  C  222  1  0.95102100  0.67061400  0.45359500  1
  C  223  1  0.94123200  0.64867200  0.43551300  1
  C  224  1  0.91268200  0.63690200  0.42566600  1
  C  225  1  0.89392300  0.64721500  0.43393700  1
  C  226  1  0.90357900  0.66914300  0.45202400  1
  C  227  1  0.93214700  0.68080000  0.46179900  1
  C  232  1  0.00184700  0.69254900  0.47059800  1
  C  233  1  0.97753300  0.68181400  0.46243900  1
  C  234  1  0.87162200  0.68909400  0.46611200  1
  C  235  1  0.88652500  0.67912300  0.45935600  1
  C  236  1  0.90390400  0.61705000  0.40864000  1
  C  237  1  0.89584600  0.59926100  0.39271800  1
  C  241  1  0.88040800  0.30016400  0.37424600  1
  C  242  1  0.03028200  0.33234300  0.47480700  1
  C  243  1  0.86389600  0.15876000  0.47861400  1
  C  244  1  0.04377300  0.31847000  0.48686500  1
  C  245  1  0.07266700  0.33530000  0.49576400  1
  C  246  1  0.08861900  0.36627600  0.49282100  1
  C  247  1  0.07486000  0.38002000  0.48099000  1
  C  248  1  0.04599800  0.36325100  0.47192700  1
  C  249  1  0.89828100  0.32841100  0.36421800  1
  C  250  1  0.88809600  0.33775900  0.34453200  1
  C  251  1  0.85998900  0.31902400  0.33437700  1
  C  252  1  0.84196100  0.29111700  0.34491100  1
  C  253  1  0.85208100  0.28161900  0.36457000  1
  C  254  1  0.84711500  0.13418800  0.46354900  1
  C  255  1  0.83224200  0.10560200  0.47336400  1
  C  256  1  0.83384700  0.10107200  0.49837400  1
  C  257  1  0.85047000  0.12576300  0.51333300  1
  C  258  1  0.86547300  0.15438000  0.50358900  1
  C  270  1  0.90678000  0.23606500  0.45251700  1
  C  271  1  0.89463100  0.24569300  0.43438300  1
  C  272  1  0.91119400  0.27437300  0.42472300  1
  C  273  1  0.94004400  0.29342700  0.43324000  1
  C  274  1  0.95231400  0.28393300  0.45137600  1
  C  275  1  0.93562000  0.25523500  0.46096300  1
  C  280  1  0.87813400  0.18521500  0.46952700  1
  C  281  1  0.89160600  0.20951000  0.46131700  1
  C  282  1  0.00355700  0.31660000  0.46648200  1
  C  283  1  0.97905000  0.30136100  0.45911600  1
  C  284  1  0.90007900  0.28308400  0.40774600  1
  C  285  1  0.89032700  0.29115700  0.39191400  1
  C  289  1  0.88682300  0.30679100  0.13283200  1
  C  290  1  0.85628400  0.15559700  0.03451900  1
  C  291  1  0.02853000  0.32398200  0.02821300  1
  C  292  1  0.86609400  0.14562500  0.01479100  1
  C  293  1  0.84998000  0.11598100  0.00740900  1
  C  294  1  0.82388000  0.09583000  0.01963300  1
  C  295  1  0.81435000  0.10581500  0.03949600  1
  C  296  1  0.83023100  0.13553000  0.04678200  1
  C  297  1  0.85862000  0.28889700  0.14297400  1
  C  298  1  0.84933100  0.29907500  0.16278600  1
  C  299  1  0.86808700  0.32719000  0.17295600  1
  C  300  1  0.89595200  0.34523400  0.16232200  1
  C  301  1  0.90539000  0.33512100  0.14253500  1
  C  302  1  0.05295800  0.34066300  0.04340900  1
  C  303  1  0.08164200  0.35556000  0.03372400  1
  C  304  1  0.08641000  0.35407400  0.00872000  1
  C  305  1  0.06186000  0.33756300  0.99362600  1
  C  306  1  0.03314800  0.32253300  0.00323800  1
  C  318  1  0.95112700  0.28074900  0.05419400  1
  C  319  1  0.94128700  0.29289300  0.07225800  1
  C  320  1  0.91271300  0.27610400  0.08211600  1
  C  321  1  0.89398500  0.24702900  0.07387400  1
  C  322  1  0.90369400  0.23476500  0.05580300  1
  C  323  1  0.93228400  0.25168300  0.04601700  1
  C  328  1  0.00199800  0.30965700  0.03718600  1
  C  329  1  0.97766300  0.29607000  0.04534500  1
  C  330  1  0.87174800  0.18284400  0.04180000  1
  C  331  1  0.88666400  0.20772500  0.04850500  1
  C  332  1  0.90388700  0.28716500  0.09913100  1
  C  333  1  0.89578700  0.29688500  0.11504600  1
  C  337  1  0.87966600  0.58040000  0.13339500  1
  C  338  1  0.02902400  0.69778100  0.03245600  1
  C  339  1  0.86246100  0.70487800  0.02887900  1
  C  340  1  0.04309900  0.72578600  0.02139900  1
  C  341  1  0.07208000  0.73788900  0.01264100  1
  C  342  1  0.08754800  0.72227200  0.01473400  1
  C  343  1  0.07322000  0.69416400  0.02559100  1
  C  344  1  0.04425800  0.68201100  0.03449500  1
  C  345  1  0.89780100  0.57034000  0.14338500  1
  C  346  1  0.88786700  0.55090000  0.16315400  1
  C  347  1  0.85975000  0.54130700  0.17342200  1
  C  348  1  0.84146800  0.55088600  0.16293900  1
  C  349  1  0.85133700  0.57041100  0.14319900  1
  C  350  1  0.84566300  0.71262100  0.04400000  1
  C  351  1  0.83081700  0.72638400  0.03425300  1
  C  352  1  0.83246500  0.73261400  0.00925800  1
  C  353  1  0.84909600  0.72458300  0.99423900  1
  C  354  1  0.86407500  0.71092400  0.00391500  1
  C  366  1  0.90539100  0.67045800  0.05479900  1
  C  367  1  0.89331800  0.64874800  0.07301400  1
  C  368  1  0.90993200  0.63668800  0.08264000  1
  C  369  1  0.93875400  0.64646900  0.07401100  1
  C  370  1  0.95094700  0.66816100  0.05579200  1
  C  371  1  0.93420700  0.68011600  0.04623900  1
  C  376  1  0.87669800  0.69263900  0.03790300  1
  C  377  1  0.89018700  0.68181800  0.04605500  1
  C  378  1  0.00222800  0.68677000  0.04066800  1
  C  379  1  0.97768500  0.67749000  0.04800100  1
  C  380  1  0.89892200  0.61695700  0.09971100  1
  C  381  1  0.88934200  0.59922000  0.11563500  1
  C  385  1  0.60704600  0.30117400  0.13320900  1
  C  386  1  0.48283800  0.32700900  0.03310300  1
  C  387  1  0.48249000  0.15873300  0.02925100  1
  C  388  1  0.45353400  0.31008600  0.02483900  1
  C  389  1  0.43851500  0.32405500  0.01592000  1
  C  390  1  0.45247000  0.35505200  0.01491600  1
  C  391  1  0.48184900  0.37195300  0.02318200  1
  C  392  1  0.49693200  0.35806000  0.03223300  1
  C  393  1  0.61765500  0.32943100  0.14335700  1
  C  394  1  0.63713400  0.33855600  0.16309800  1
  C  395  1  0.64621200  0.31958200  0.17319500  1
  C  396  1  0.63610300  0.29166200  0.16254600  1
  C  397  1  0.61653800  0.28238700  0.14283300  1
  C  398  1  0.47461900  0.13420700  0.04433200  1
  C  399  1  0.46067700  0.10556700  0.03454600  1
  C  400  1  0.45438300  0.10094500  0.00955300  1
  C  401  1  0.46251300  0.12558800  0.99457800  1
  C  402  1  0.47635300  0.15425600  0.00429400  1
  C  414  1  0.51677200  0.23621000  0.05510000  1
  C  415  1  0.53879100  0.24642800  0.07307900  1
  C  416  1  0.55039900  0.27511000  0.08269700  1
  C  417  1  0.53983500  0.29357100  0.07429500  1
  C  418  1  0.51783000  0.28347700  0.05629900  1
  C  419  1  0.50634700  0.25478100  0.04676600  1
  C  424  1  0.49485700  0.18523300  0.03831100  1
  C  425  1  0.50566600  0.20959000  0.04644500  1
  C  426  1  0.49644200  0.31378100  0.04146200  1
  C  427  1  0.50744500  0.30007900  0.04878900  1
  C  428  1  0.57031500  0.28422200  0.09964700  1
  C  429  1  0.58815300  0.29234800  0.11549600  1
  C  433  1  0.36222600  0.81802600  0.63335000  1
  C  434  1  0.39429100  0.96755300  0.53265300  1
  C  435  1  0.22067800  0.80093500  0.52887500  1
  C  436  1  0.38042900  0.98123800  0.52087500  1
  C  437  1  0.39730400  0.01016100  0.51205300  1
  C  438  1  0.42831000  0.02594800  0.51480000  1
  C  439  1  0.44203600  0.01199900  0.52635900  1
  C  440  1  0.42522600  0.98310600  0.53534000  1
  C  441  1  0.39050300  0.83596600  0.64331200  1
  C  442  1  0.39990700  0.82591400  0.66305100  1
  C  443  1  0.38120000  0.79787800  0.67331500  1
  C  444  1  0.35326200  0.77977900  0.66285200  1
  C  445  1  0.34370600  0.78976600  0.64314300  1
  C  446  1  0.19618600  0.78413300  0.54400200  1
  C  447  1  0.16755300  0.76925100  0.53427200  1
  C  448  1  0.16289600  0.77086600  0.50929000  1
  C  449  1  0.18750900  0.78749600  0.49426300  1
  C  450  1  0.21617300  0.80251000  0.50392100  1
  C  462  1  0.29803900  0.84396700  0.55485600  1
  C  463  1  0.30768300  0.83189100  0.57303900  1
  C  464  1  0.33635000  0.84851700  0.58271700  1
  C  465  1  0.35537400  0.87735600  0.57417300  1
  C  466  1  0.34586300  0.88955400  0.55599000  1
  C  467  1  0.31717700  0.87279700  0.54638300  1
  C  472  1  0.24717100  0.81522200  0.53789100  1
  C  473  1  0.27148500  0.82874500  0.54606300  1
  C  474  1  0.37851200  0.94080600  0.54091100  1
  C  475  1  0.36326200  0.91628800  0.54824600  1
  C  476  1  0.34507300  0.83748200  0.59974600  1
  C  477  1  0.35317300  0.82782300  0.61562900  1
  C  481  1  0.36864200  0.54500200  0.63311500  1
  C  482  1  0.21875400  0.42079700  0.53274100  1
  C  483  1  0.38685700  0.42065000  0.52892900  1
  C  484  1  0.20684900  0.39200000  0.52334700  1
  C  485  1  0.17784100  0.37696900  0.51443900  1
  C  486  1  0.16032400  0.39043800  0.51454200  1
  C  487  1  0.17232400  0.41931100  0.52393700  1
  C  488  1  0.20130900  0.43438700  0.53300100  1
  C  489  1  0.35086900  0.55545500  0.64329600  1
  C  490  1  0.36114400  0.57493700  0.66307800  1
  C  491  1  0.38923900  0.58417100  0.67317800  1
  C  492  1  0.40716700  0.57421100  0.66250200  1
  C  493  1  0.39695600  0.55464300  0.64274500  1
  C  494  1  0.40347400  0.41279800  0.54406000  1
  C  495  1  0.41823400  0.39889100  0.53431000  1
  C  496  1  0.41666100  0.39261000  0.50930800  1
  C  497  1  0.40018800  0.40072300  0.49428300  1
  C  498  1  0.38529600  0.41453000  0.50396100  1
  C  510  1  0.34353100  0.45481900  0.55477300  1
  C  511  1  0.35531400  0.47682900  0.57280600  1
  C  512  1  0.33820900  0.48838900  0.58246400  1
  C  513  1  0.30917300  0.47778900  0.57405400  1
  C  514  1  0.29728200  0.45579400  0.55600200  1
  C  515  1  0.31452100  0.44435200  0.54642800  1
  C  520  1  0.37266000  0.43297600  0.53795600  1
  C  521  1  0.35907000  0.44374900  0.54609000  1
  C  522  1  0.24558000  0.43437800  0.54114200  1
  C  523  1  0.27028700  0.44538100  0.54848500  1
  C  524  1  0.34899000  0.50829200  0.59946200  1
  C  525  1  0.35865400  0.52611900  0.61535600  1
  C  529  1  0.64267300  0.82497400  0.63300500  1
  C  530  1  0.76338900  0.79449100  0.53474400  1
  C  531  1  0.76737300  0.96665000  0.52848300  1
  C  532  1  0.78334400  0.80438400  0.51515900  1
  C  533  1  0.79690000  0.78827200  0.50780200  1
  C  534  1  0.79080300  0.76209500  0.51991200  1
  C  535  1  0.77111900  0.75248500  0.53964100  1
  C  536  1  0.75726000  0.76836200  0.54689500  1
  C  537  1  0.63253900  0.79684500  0.64317500  1
  C  538  1  0.61308600  0.78753200  0.66297700  1
  C  539  1  0.60355700  0.80619000  0.67310700  1
  C  540  1  0.61321000  0.83398000  0.66244400  1
  C  541  1  0.63274600  0.84344100  0.64267000  1
  C  542  1  0.77524200  0.99120800  0.54360700  1
  C  543  1  0.78910900  0.01982500  0.53384400  1
  C  544  1  0.79532500  0.02439600  0.50883500  1
  C  545  1  0.78717600  0.99972200  0.49381600  1
  C  546  1  0.77341100  0.97107600  0.50350600  1
  C  558  1  0.73303600  0.88932600  0.55449800  1
  C  559  1  0.71103700  0.87949100  0.57253000  1
  C  560  1  0.69923800  0.85091700  0.58233000  1
  C  561  1  0.70958600  0.83218500  0.57406300  1
  C  562  1  0.73157100  0.84188500  0.55602800  1
  C  563  1  0.74325300  0.87047300  0.54629800  1
  C  568  1  0.75508100  0.94017000  0.53752100  1
  C  569  1  0.74427500  0.91586000  0.54569300  1
  C  570  1  0.75157700  0.80994700  0.54201100  1
  C  571  1  0.74158800  0.82485400  0.54871600  1
  C  572  1  0.67934600  0.84209000  0.59932500  1
  C  573  1  0.66153400  0.83396900  0.61522800  1
  C  577  1  0.52229400  0.73693800  0.75763500  1
  C  578  1  0.54282000  0.74358800  0.73501400  1
  C  579  1  0.50351200  0.75228400  0.75388900  1
  C  580  1  0.52234300  0.78641200  0.75012200  1
  C  583  1  0.54284400  0.79180000  0.72755300  1
  C  584  1  0.56307600  0.77768700  0.73086400  1
  C  589  1  0.58253000  0.79173800  0.75385700  1
  C  590  1  0.56304400  0.78634800  0.77686200  1
  C  593  1  0.54284000  0.80024200  0.77272600  1
  C  596  1  0.54276200  0.75200700  0.78018800  1
  C  599  1  0.58274100  0.80131600  0.79731700  1
  C  600  1  0.50115900  0.70528000  0.76231900  1
  C  603  1  0.50122700  0.79698100  0.74551000  1
  C  604  1  0.58281300  0.78240900  0.71040400  1
  C  607  1  0.40121800  0.66543500  0.75777200  1
  C  608  1  0.38739700  0.64486100  0.73517500  1
  C  609  1  0.43535600  0.68421700  0.75397100  1
  C  610  1  0.45067300  0.66539100  0.75016700  1
  C  613  1  0.43561500  0.64486100  0.72761600  1
  C  614  1  0.40126500  0.62461800  0.73098900  1
  C  619  1  0.39582000  0.60518900  0.75397800  1
  C  620  1  0.40985400  0.62470700  0.77696300  1
  C  623  1  0.44396000  0.64491900  0.77277500  1
  C  626  1  0.39577700  0.64498200  0.78032400  1
  C  629  1  0.40508500  0.60502100  0.79740500  1
  C  630  1  0.39063100  0.68656400  0.76249400  1
  C  633  1  0.48236500  0.68652500  0.74550100  1
  C  634  1  0.38627800  0.60486300  0.71055200  1
  C  637  1  0.45077900  0.78646300  0.75772900  1
  C  638  1  0.44408800  0.80019300  0.73510100  1
  C  639  1  0.43544700  0.75231300  0.75399400  1
  C  640  1  0.40131500  0.73697900  0.75024300  1
  C  643  1  0.39589200  0.75194400  0.72766600  1
  C  644  1  0.40998300  0.78630400  0.73096200  1
  C  649  1  0.39595200  0.79183800  0.75395200  1
  C  650  1  0.40137000  0.77787600  0.77696100  1
  C  653  1  0.38749000  0.74376000  0.77284200  1
  C  656  1  0.43571800  0.79197900  0.78028400  1
  C  659  1  0.38637300  0.78267000  0.79740500  1
  C  660  1  0.48246700  0.79702400  0.76234300  1
  C  663  1  0.39075100  0.70529000  0.74560600  1
  C  664  1  0.40522200  0.80118200  0.71049400  1
  C  667  1  0.72725900  0.38858300  0.25782500  1
  C  668  1  0.70677900  0.38191600  0.23522500  1
  C  669  1  0.74606600  0.37325100  0.25398800  1
  C  670  1  0.72725800  0.33912400  0.25014300  1
  C  673  1  0.70680500  0.33372300  0.22759300  1
  C  674  1  0.68655000  0.34781800  0.23099900  1
  C  679  1  0.66704700  0.33371367  0.25398400  1
  C  680  1  0.68648500  0.33917200  0.27696700  1
  C  683  1  0.70670600  0.32528800  0.27274000  1
  C  686  1  0.70674800  0.37351400  0.28037100  1
  C  689  1  0.66675400  0.32418000  0.29741000  1
  C  690  1  0.74837800  0.42024700  0.26255600  1
  C  693  1  0.74840600  0.32857500  0.24548200  1
  C  694  1  0.66685800  0.34311800  0.21056700  1
  C  697  1  0.84831400  0.46011900  0.25772600  1
  C  698  1  0.86209200  0.48059000  0.23510400  1
  C  699  1  0.81416900  0.44131500  0.25402500  1
  C  700  1  0.79884800  0.46012600  0.25032300  1
  C  703  1  0.81386300  0.48052967  0.22775700  1
  C  704  1  0.84821800  0.50082300  0.23102100  1
  C  709  1  0.85371400  0.52038067  0.25402900  1
  C  710  1  0.83971300  0.50090500  0.27703400  1
  C  713  1  0.80559700  0.48067900  0.27294500  1
  C  716  1  0.85379700  0.48064200  0.28029900  1
  C  719  1  0.84450300  0.52065600  0.29750000  1
  C  720  1  0.85885400  0.43899300  0.26234900  1
  C  723  1  0.76715200  0.43898900  0.24573100  1
  C  724  1  0.86311500  0.52051200  0.21055500  1
  C  727  1  0.79873200  0.33903000  0.25761000  1
  C  728  1  0.80545100  0.32521500  0.23496500  1
  C  729  1  0.81407800  0.37317000  0.25389400  1
  C  730  1  0.84821500  0.38849100  0.25008900  1
  C  733  1  0.85365500  0.37343700  0.22749000  1
  C  734  1  0.83955700  0.33908700  0.23077900  1
  C  739  1  0.85357900  0.33364300  0.25373500  1
  C  740  1  0.84813100  0.34767300  0.27676700  1
  C  743  1  0.86201200  0.38177800  0.27266000  1
  C  746  1  0.81378100  0.33358700  0.28012700  1
  C  749  1  0.86308200  0.34289800  0.29717500  1
  C  750  1  0.76701800  0.32841100  0.26233400  1
  C  753  1  0.85876900  0.42018000  0.24548900  1
  C  754  1  0.84431300  0.32411800  0.21029100  1
  N  46  1  0.80419800  0.05742400  0.99361100  1
  N  47  1  0.80723600  0.75773400  0.00920800  1
  N  48  1  0.58583500  0.78773800  0.81540600  1
  N  94  1  0.44520400  0.39224500  0.00114500  1
  N  95  1  0.13676700  0.37923300  0.00876000  1
  N  96  1  0.38831700  0.60186000  0.81550500  1
  N  142  1  0.13221300  0.75831200  0.00148200  1
  N  143  1  0.42913200  0.05060300  0.00941400  1
  N  144  1  0.39986600  0.79915000  0.81565700  1
  N  190  1  0.43687500  0.07051300  0.50148300  1
  N  191  1  0.44178200  0.36739400  0.50924300  1
  N  192  1  0.66379200  0.33769800  0.31568100  1
  N  238  1  0.80945400  0.74230400  0.49391300  1
  N  239  1  0.11255100  0.74565700  0.50929700  1
  N  240  1  0.86118300  0.52377000  0.31559800  1
  N  286  1  0.11584600  0.38320900  0.50092200  1
  N  287  1  0.82060800  0.07476200  0.50871400  1
  N  288  1  0.84950100  0.32610800  0.31523500  1
  N  334  1  0.80925200  0.06746100  0.01419400  1
  N  335  1  0.11281700  0.36729500  0.99849800  1
  N  336  1  0.86103900  0.33769000  0.19218500  1
  N  382  1  0.11485200  0.73257300  0.00675200  1
  N  383  1  0.81927400  0.74575200  0.99898000  1
  N  384  1  0.84944600  0.52377800  0.19261700  1
  N  430  1  0.43676300  0.36655200  0.00660700  1
  N  431  1  0.44117100  0.07459700  0.99922800  1
  N  432  1  0.66374400  0.32649000  0.19237100  1
  N  478  1  0.44529200  0.05319900  0.50677300  1
  N  479  1  0.13653200  0.75766300  0.49903800  1
  N  480  1  0.38834400  0.78750700  0.69249700  1
  N  526  1  0.13310500  0.37473000  0.50623500  1
  N  527  1  0.42984800  0.37941600  0.49902000  1
  N  528  1  0.39981200  0.60173200  0.69237400  1
  N  574  1  0.80456200  0.74747300  0.51449600  1
  N  575  1  0.80854600  0.05072500  0.49853400  1
  N  576  1  0.58601300  0.79913900  0.69232400  1
