# generated using pymatgen
data_CuH5C13O4
_symmetry_space_group_name_H-M   'P 1'
_cell_length_a   18.94156254
_cell_length_b   18.96654000
_cell_length_c   21.17258000
_cell_angle_alpha   116.60103000
_cell_angle_beta   89.99578287
_cell_angle_gamma   119.96604693
_symmetry_Int_Tables_number   1
_chemical_formula_structural   CuH5C13O4
_chemical_formula_sum   'Cu6 H30 C78 O24'
_cell_volume   5641.26049254
_cell_formula_units_Z   6
loop_
 _symmetry_equiv_pos_site_id
 _symmetry_equiv_pos_as_xyz
  1  'x, y, z'
loop_
 _atom_site_type_symbol
 _atom_site_label
 _atom_site_symmetry_multiplicity
 _atom_site_fract_x
 _atom_site_fract_y
 _atom_site_fract_z
 _atom_site_occupancy
  Cu  Cu1  1  0.49800000  0.55821000  0.05616000  1.0
  Cu  Cu2  1  0.49796000  0.99592000  0.05606000  1.0
  Cu  Cu3  1  0.06021000  0.55820000  0.05613000  1.0
  Cu  Cu4  1  0.50200000  0.44179000  0.94384000  1.0
  Cu  Cu5  1  0.93978000  0.44179000  0.94387000  1.0
  Cu  Cu6  1  0.50204000  0.00408000  0.94394000  1.0
  H  H1  1  0.53117000  0.55437000  0.80599000  1.0
  H  H2  1  0.50933000  0.42473000  0.56753000  1.0
  H  H3  1  0.25117000  0.78241000  0.80578000  1.0
  H  H4  1  0.14265000  0.65195000  0.56722000  1.0
  H  H5  1  0.02298000  0.27428000  0.80545000  1.0
  H  H6  1  0.91526000  0.05812000  0.56743000  1.0
  H  H7  1  0.74862000  0.72569000  0.19452000  1.0
  H  H8  1  0.85710000  0.94192000  0.43261000  1.0
  H  H9  1  0.97681000  0.44565000  0.19410000  1.0
  H  H10  1  0.08457000  0.57523000  0.43243000  1.0
  H  H11  1  0.46873000  0.21757000  0.19414000  1.0
  H  H12  1  0.49071000  0.34809000  0.43277000  1.0
  H  H13  1  0.46882000  0.44562000  0.19400000  1.0
  H  H14  1  0.49067000  0.57528000  0.43247000  1.0
  H  H15  1  0.74882000  0.21758000  0.19421000  1.0
  H  H16  1  0.85734000  0.34804000  0.43278000  1.0
  H  H17  1  0.97702000  0.72573000  0.19455000  1.0
  H  H18  1  0.08474000  0.94188000  0.43257000  1.0
  H  H19  1  0.25138000  0.27432000  0.80548000  1.0
  H  H20  1  0.14290000  0.05809000  0.56739000  1.0
  H  H21  1  0.02319000  0.55435000  0.80589000  1.0
  H  H22  1  0.91542000  0.42476000  0.56756000  1.0
  H  H23  1  0.53126000  0.78242000  0.80586000  1.0
  H  H24  1  0.50929000  0.65191000  0.56722000  1.0
  H  H25  1  0.52963000  0.76547000  0.00194000  1.0
  H  H26  1  0.23590000  0.76554000  0.00187000  1.0
  H  H27  1  0.23606000  0.47193000  0.00148000  1.0
  H  H28  1  0.76393000  0.52806000  0.99852000  1.0
  H  H29  1  0.76410000  0.23446000  0.99813000  1.0
  H  H30  1  0.47036000  0.23452000  0.99806000  1.0
  C  C1  1  0.52628000  0.60317000  0.94503000  1.0
  C  C2  1  0.53190000  0.65596000  0.90786000  1.0
  C  C3  1  0.53218000  0.61902000  0.83402000  1.0
  C  C4  1  0.50528000  0.45738000  0.53778000  1.0
  C  C5  1  0.34159000  0.86799000  0.94503000  1.0
  C  C6  1  0.25162000  0.78362000  0.90785000  1.0
  C  C7  1  0.21472000  0.74698000  0.83399000  1.0
  C  C8  1  0.08030000  0.58555000  0.53762000  1.0
  C  C9  1  0.07657000  0.41818000  0.94442000  1.0
  C  C10  1  0.12394000  0.37554000  0.90742000  1.0
  C  C11  1  0.08668000  0.30140000  0.83362000  1.0
  C  C12  1  0.95201000  0.03245000  0.53770000  1.0
  C  C13  1  0.65836000  0.58186000  0.05560000  1.0
  C  C14  1  0.74837000  0.62450000  0.09259000  1.0
  C  C15  1  0.78523000  0.69860000  0.16638000  1.0
  C  C16  1  0.91954000  0.96757000  0.46232000  1.0
  C  C17  1  0.92312000  0.39687000  0.05503000  1.0
  C  C18  1  0.87594000  0.34406000  0.09220000  1.0
  C  C19  1  0.91316000  0.38099000  0.16604000  1.0
  C  C20  1  0.04790000  0.54262000  0.46221000  1.0
  C  C21  1  0.47359000  0.13201000  0.05486000  1.0
  C  C22  1  0.46799000  0.21638000  0.09207000  1.0
  C  C23  1  0.46773000  0.25301000  0.16594000  1.0
  C  C24  1  0.49475000  0.41448000  0.46236000  1.0
  C  C25  1  0.47372000  0.39684000  0.05496000  1.0
  C  C26  1  0.46810000  0.34404000  0.09213000  1.0
  C  C27  1  0.46782000  0.38098000  0.16598000  1.0
  C  C28  1  0.49472000  0.54262000  0.46222000  1.0
  C  C29  1  0.65841000  0.13201000  0.05497000  1.0
  C  C30  1  0.74837000  0.21637000  0.09215000  1.0
  C  C31  1  0.78527000  0.25301000  0.16601000  1.0
  C  C32  1  0.91970000  0.41446000  0.46237000  1.0
  C  C33  1  0.92342000  0.58182000  0.05557000  1.0
  C  C34  1  0.87606000  0.62447000  0.09257000  1.0
  C  C35  1  0.91332000  0.69860000  0.16637000  1.0
  C  C36  1  0.04799000  0.96756000  0.46230000  1.0
  C  C37  1  0.34163000  0.41813000  0.94440000  1.0
  C  C38  1  0.25163000  0.37550000  0.90741000  1.0
  C  C39  1  0.21477000  0.30140000  0.83362000  1.0
  C  C40  1  0.08046000  0.03243000  0.53768000  1.0
  C  C41  1  0.07688000  0.60313000  0.94497000  1.0
  C  C42  1  0.12406000  0.65594000  0.90780000  1.0
  C  C43  1  0.08684000  0.61901000  0.83396000  1.0
  C  C44  1  0.95210000  0.45738000  0.53779000  1.0
  C  C45  1  0.52641000  0.86799000  0.94514000  1.0
  C  C46  1  0.53201000  0.78363000  0.90793000  1.0
  C  C47  1  0.53227000  0.74699000  0.83406000  1.0
  C  C48  1  0.50525000  0.58552000  0.53764000  1.0
  C  C49  1  0.53165000  0.73823000  0.94511000  1.0
  C  C50  1  0.53161000  0.66362000  0.79584000  1.0
  C  C51  1  0.52709000  0.62345000  0.71991000  1.0
  C  C52  1  0.52020000  0.58690000  0.65380000  1.0
  C  C53  1  0.51050000  0.54373000  0.57703000  1.0
  C  C54  1  0.20659000  0.73822000  0.94504000  1.0
  C  C55  1  0.13201000  0.66362000  0.79579000  1.0
  C  C56  1  0.09636000  0.62346000  0.71987000  1.0
  C  C57  1  0.06672000  0.58692000  0.65377000  1.0
  C  C58  1  0.03325000  0.54375000  0.57701000  1.0
  C  C59  1  0.20658000  0.41309000  0.94466000  1.0
  C  C60  1  0.13195000  0.26386000  0.79552000  1.0
  C  C61  1  0.09628000  0.19251000  0.71969000  1.0
  C  C62  1  0.06674000  0.13341000  0.65363000  1.0
  C  C63  1  0.03325000  0.06645000  0.57693000  1.0
  C  C64  1  0.79342000  0.58692000  0.05533000  1.0
  C  C65  1  0.86805000  0.73614000  0.20447000  1.0
  C  C66  1  0.90372000  0.80750000  0.28031000  1.0
  C  C67  1  0.93326000  0.86659000  0.34637000  1.0
  C  C68  1  0.96675000  0.93355000  0.42306000  1.0
  C  C69  1  0.79341000  0.26178000  0.05496000  1.0
  C  C70  1  0.86799000  0.33638000  0.20420000  1.0
  C  C71  1  0.90364000  0.37654000  0.28013000  1.0
  C  C72  1  0.93327000  0.41307000  0.34623000  1.0
  C  C73  1  0.96675000  0.45625000  0.42299000  1.0
  C  C74  1  0.46835000  0.26177000  0.05488000  1.0
  C  C75  1  0.46839000  0.33638000  0.20415000  1.0
  C  C76  1  0.47290000  0.37655000  0.28009000  1.0
  C  C77  1  0.47980000  0.41310000  0.34619000  1.0
  C  C78  1  0.48950000  0.45627000  0.42296000  1.0
  O  O1  1  0.52508000  0.52750000  0.90685000  1.0
  O  O2  1  0.52111000  0.63605000  0.01116000  1.0
  O  O3  1  0.37912000  0.90434000  0.90687000  1.0
  O  O4  1  0.37487000  0.89601000  0.01114000  1.0
  O  O5  1  0.00193000  0.38089000  0.90622000  1.0
  O  O6  1  0.11469000  0.48970000  0.01041000  1.0
  O  O7  1  0.62102000  0.61914000  0.09383000  1.0
  O  O8  1  0.62497000  0.51036000  0.98961000  1.0
  O  O9  1  0.99759000  0.47257000  0.09322000  1.0
  O  O10  1  0.88507000  0.36397000  0.98890000  1.0
  O  O11  1  0.47471000  0.09561000  0.09298000  1.0
  O  O12  1  0.47889000  0.10403000  0.98876000  1.0
  O  O13  1  0.47492000  0.47251000  0.09315000  1.0
  O  O14  1  0.47889000  0.36395000  0.98883000  1.0
  O  O15  1  0.62088000  0.09566000  0.09313000  1.0
  O  O16  1  0.62513000  0.10399000  0.98886000  1.0
  O  O17  1  0.99807000  0.61911000  0.09378000  1.0
  O  O18  1  0.88530000  0.51030000  0.98959000  1.0
  O  O19  1  0.37898000  0.38086000  0.90617000  1.0
  O  O20  1  0.37503000  0.48964000  0.01038000  1.0
  O  O21  1  0.00240000  0.52742000  0.90677000  1.0
  O  O22  1  0.11493000  0.63603000  0.01110000  1.0
  O  O23  1  0.52529000  0.90439000  0.90702000  1.0
  O  O24  1  0.52111000  0.89597000  0.01124000  1.0
