# generated using pymatgen
data_H8C11N3O
_symmetry_space_group_name_H-M   'P 1'
_cell_length_a   21.26470000
_cell_length_b   28.16010000
_cell_length_c   28.16000000
_cell_angle_alpha   90.00000000
_cell_angle_beta   90.06720000
_cell_angle_gamma   89.99990000
_symmetry_Int_Tables_number   1
_chemical_formula_structural   H8C11N3O
_chemical_formula_sum   'H256 C352 N96 O32'
_cell_volume   16862.64917152
_cell_formula_units_Z   32
loop_
 _symmetry_equiv_pos_site_id
 _symmetry_equiv_pos_as_xyz
  1  'x, y, z'
loop_
 _atom_site_type_symbol
 _atom_site_label
 _atom_site_symmetry_multiplicity
 _atom_site_fract_x
 _atom_site_fract_y
 _atom_site_fract_z
 _atom_site_occupancy
  C  1  1  0.71879500  0.96068050  0.97725350  1
  C  2  1  0.66839800  0.99248300  0.98420350  1
  C  3  1  0.63262600  0.00947400  0.94549650  1
  C  4  1  0.64139000  0.99047250  0.89932650  1
  C  5  1  0.68219900  0.95092550  0.89432950  1
  C  6  1  0.72301000  0.93850350  0.93211550  1
  C  9  1  0.76716200  0.95886400  0.01200200  1
  C  10  1  0.75695800  0.95928600  0.06188450  1
  C  11  1  0.80475100  0.97407300  0.09394900  1
  C  12  1  0.85402700  0.00065850  0.07306750  1
  C  13  1  0.87545400  0.98582750  0.02762550  1
  C  14  1  0.82981400  0.96575850  0.99684250  1
  C  23  1  0.27085200  0.50054600  0.04564650  1
  C  24  1  0.21999100  0.46812600  0.04223750  1
  C  25  1  0.17088200  0.46615500  0.07612650  1
  C  26  1  0.17642100  0.49423400  0.11783350  1
  C  27  1  0.22137200  0.53152400  0.11886400  1
  C  28  1  0.26931400  0.53331000  0.08390550  1
  C  31  1  0.31823200  0.50032550  0.00981400  1
  C  32  1  0.30214800  0.49280050  0.96131700  1
  C  33  1  0.34882200  0.48698400  0.92605600  1
  C  34  1  0.40790600  0.47265150  0.94357850  1
  C  35  1  0.42997600  0.49668900  0.98482100  1
  C  36  1  0.38313200  0.50845750  0.01917800  1
  C  45  1  0.46514600  0.71448650  0.79012300  1
  C  46  1  0.40929800  0.72674250  0.76579950  1
  C  47  1  0.36199400  0.69281250  0.75642000  1
  C  48  1  0.36401200  0.64708650  0.77771600  1
  C  49  1  0.41711400  0.63606400  0.80650600  1
  C  50  1  0.46766200  0.66854550  0.81076050  1
  C  53  1  0.51767400  0.74561900  0.78635000  1
  C  54  1  0.51161800  0.79592050  0.78399350  1
  C  55  1  0.56234400  0.82509700  0.76907600  1
  C  56  1  0.60941900  0.80102600  0.74328300  1
  C  57  1  0.62828000  0.75666100  0.76256300  1
  C  58  1  0.57975300  0.72794900  0.78187550  1
  C  67  1  0.98840300  0.77973750  0.21811300  1
  C  68  1  0.94600000  0.75669350  0.24880500  1
  C  69  1  0.89353300  0.77980300  0.26901650  1
  C  70  1  0.88709100  0.82976600  0.26195100  1
  C  71  1  0.92082700  0.85060600  0.22379200  1
  C  72  1  0.97330700  0.82667500  0.20428300  1
  C  75  1  0.04606400  0.75677450  0.20790900  1
  C  76  1  0.05217000  0.70668850  0.20317200  1
  C  77  1  0.10750600  0.68288950  0.21803150  1
  C  78  1  0.14886200  0.71030700  0.24623050  1
  C  79  1  0.15539100  0.75911750  0.23364200  1
  C  80  1  0.10254000  0.78239950  0.21393100  1
  C  89  1  0.28420800  0.06950800  0.00171300  1
  C  90  1  0.33863200  0.06697950  0.97306600  1
  C  91  1  0.39914400  0.06811200  0.99299900  1
  C  92  1  0.40781200  0.07182300  0.04291850  1
  C  93  1  0.35358600  0.07971000  0.07139650  1
  C  94  1  0.29270800  0.07641500  0.05124250  1
  C  97  1  0.22542500  0.05976700  0.97986550  1
  C  98  1  0.21132600  0.07557700  0.93323750  1
  C  99  1  0.16168600  0.05550950  0.90641450  1
  C  100  1  0.13458900  0.01373050  0.92557000  1
  C  101  1  0.12964400  0.01052000  0.97605400  1
  C  102  1  0.17905200  0.03173100  0.00229800  1
  C  111  1  0.83696500  0.44290150  0.96774550  1
  C  112  1  0.89037700  0.43455100  0.99670950  1
  C  113  1  0.95181800  0.42957200  0.97820050  1
  C  114  1  0.96080900  0.43458650  0.92835650  1
  C  115  1  0.90709600  0.43548850  0.89825150  1
  C  116  1  0.84637600  0.44231750  0.91790650  1
  C  119  1  0.77901400  0.45396300  0.99053550  1
  C  120  1  0.76046300  0.42980350  0.03258650  1
  C  121  1  0.71371800  0.44890850  0.06265950  1
  C  122  1  0.69762600  0.49678850  0.05386650  1
  C  123  1  0.69014800  0.50913400  0.00513100  1
  C  124  1  0.73639800  0.48938050  0.97424950  1
  C  133  1  0.51833300  0.28221150  0.22875650  1
  C  134  1  0.56598100  0.28716550  0.26351800  1
  C  135  1  0.60670400  0.32711900  0.26428650  1
  C  136  1  0.59462700  0.36451950  0.23177000  1
  C  137  1  0.55865200  0.35441500  0.19053500  1
  C  138  1  0.51782500  0.31479500  0.19048950  1
  C  141  1  0.47600000  0.24355050  0.23137650  1
  C  142  1  0.49680400  0.19577200  0.23323050  1
  C  143  1  0.45191000  0.15859850  0.23664750  1
  C  144  1  0.39713600  0.17073800  0.26241400  1
  C  145  1  0.36898200  0.21514000  0.24985550  1
  C  146  1  0.41043100  0.25159200  0.23395850  1
  C  155  1  0.01496600  0.22226400  0.71802700  1
  C  156  1  0.06814800  0.22052550  0.68786100  1
  C  157  1  0.10802200  0.18002450  0.68568900  1
  C  158  1  0.08996100  0.13887050  0.71150750  1
  C  159  1  0.04614200  0.14375500  0.74904300  1
  C  160  1  0.00708200  0.18421000  0.75044500  1
  C  163  1  0.97412900  0.26226400  0.71885850  1
  C  164  1  0.99608200  0.30979400  0.71836450  1
  C  165  1  0.95344300  0.34835050  0.72319050  1
  C  166  1  0.89015700  0.33933300  0.70968950  1
  C  167  1  0.86507000  0.29392450  0.72186000  1
  C  168  1  0.90873100  0.25581000  0.72478950  1
  C  177  1  0.16945600  0.51001900  0.52305550  1
  C  178  1  0.10448500  0.51591900  0.53049450  1
  C  179  1  0.06262200  0.51615000  0.49168450  1
  C  180  1  0.08385200  0.50698750  0.44483350  1
  C  181  1  0.14696100  0.49139150  0.43879700  1
  C  182  1  0.18979300  0.49621550  0.47709500  1
  C  185  1  0.21187200  0.51749200  0.56110050  1
  C  186  1  0.20723800  0.49316350  0.60496750  1
  C  187  1  0.25412800  0.49801750  0.64064800  1
  C  188  1  0.29848800  0.53527250  0.63592550  1
  C  189  1  0.30938100  0.55476450  0.59016100  1
  C  190  1  0.26467000  0.54667850  0.55380750  1
  C  199  1  0.75787600  0.01082850  0.52916400  1
  C  200  1  0.70810100  0.97734850  0.53131800  1
  C  201  1  0.66901000  0.97310500  0.57201900  1
  C  202  1  0.68388400  0.00074800  0.61267800  1
  C  203  1  0.72279400  0.04116750  0.60694900  1
  C  204  1  0.76185700  0.04448450  0.56652600  1
  C  207  1  0.80013200  0.01185650  0.49002600  1
  C  208  1  0.77998700  0.00807450  0.44216300  1
  C  209  1  0.82440300  0.00950750  0.40462500  1
  C  210  1  0.88596500  0.99364650  0.41591850  1
  C  211  1  0.91024500  0.00761650  0.46115850  1
  C  212  1  0.86556000  0.01743850  0.49753400  1
  C  221  1  0.95343800  0.25245950  0.30945300  1
  C  222  1  0.89813300  0.28064650  0.31038150  1
  C  223  1  0.83726500  0.26039650  0.31198850  1
  C  224  1  0.83076600  0.21036100  0.30698800  1
  C  225  1  0.88443000  0.18146750  0.31421250  1
  C  226  1  0.94480200  0.20254850  0.31447150  1
  C  229  1  0.01471200  0.27321700  0.30663150  1
  C  230  1  0.02916300  0.31906600  0.32469250  1
  C  231  1  0.09121900  0.33756350  0.32495750  1
  C  232  1  0.14145200  0.31038850  0.30575400  1
  C  233  1  0.12614000  0.26716200  0.28191550  1
  C  234  1  0.06467500  0.24840500  0.28460050  1
  C  243  1  0.45055800  0.26788650  0.69861500  1
  C  244  1  0.40060500  0.23747450  0.68452400  1
  C  245  1  0.33841500  0.25384150  0.67867500  1
  C  246  1  0.32294800  0.30056400  0.69374300  1
  C  247  1  0.37274000  0.33341150  0.70096400  1
  C  248  1  0.43544200  0.31686000  0.70352000  1
  C  251  1  0.51142700  0.24867450  0.70839900  1
  C  252  1  0.53248300  0.20511100  0.68830400  1
  C  253  1  0.58565100  0.18045750  0.70610700  1
  C  254  1  0.61023600  0.19826250  0.74935100  1
  C  255  1  0.61098800  0.24862850  0.75435700  1
  C  256  1  0.55648600  0.27202650  0.73745150  1
  C  265  1  0.70581200  0.54247550  0.52029200  1
  C  266  1  0.75782500  0.52102100  0.49764600  1
  C  267  1  0.81068800  0.50490800  0.52314050  1
  C  268  1  0.81285400  0.50907700  0.57355750  1
  C  269  1  0.76641500  0.53742900  0.59620850  1
  C  270  1  0.71407900  0.55315500  0.56939550  1
  C  273  1  0.64957000  0.55325500  0.49449850  1
  C  274  1  0.64580300  0.55812000  0.44423550  1
  C  275  1  0.58754200  0.56075700  0.41987850  1
  C  276  1  0.53074800  0.55905400  0.44607300  1
  C  277  1  0.53384400  0.56493100  0.49609150  1
  C  278  1  0.59222600  0.55869700  0.51918650  1
  C  287  1  0.31970800  0.95012000  0.49894850  1
  C  288  1  0.37477600  0.94269000  0.52658400  1
  C  289  1  0.43453200  0.93450600  0.50586150  1
  C  290  1  0.44020800  0.93813100  0.45561050  1
  C  291  1  0.38481600  0.93570550  0.42759500  1
  C  292  1  0.32569900  0.94358750  0.44908900  1
  C  295  1  0.26214300  0.96408950  0.52102450  1
  C  296  1  0.24438600  0.94723350  0.56657350  1
  C  297  1  0.19019800  0.96441050  0.58997350  1
  C  298  1  0.15730000  0.00335050  0.57026750  1
  C  299  1  0.16211800  0.01024000  0.52011000  1
  C  300  1  0.21696500  0.99276150  0.49745500  1
  C  309  1  0.02931600  0.73642750  0.69579350  1
  C  310  1  0.08522600  0.71126050  0.68539400  1
  C  311  1  0.13798900  0.73375950  0.66531250  1
  C  312  1  0.13403800  0.78144150  0.65006750  1
  C  313  1  0.08033000  0.80848400  0.66335650  1
  C  314  1  0.02939100  0.78613950  0.68675400  1
  C  317  1  0.97923200  0.71140100  0.71817750  1
  C  318  1  0.96535400  0.66391400  0.70484850  1
  C  319  1  0.91469200  0.63836450  0.72508250  1
  C  320  1  0.88740900  0.65771700  0.76648550  1
  C  321  1  0.88475800  0.70826500  0.76967450  1
  C  322  1  0.93540900  0.73334650  0.74887050  1
  C  331  1  0.54912900  0.73864300  0.23641600  1
  C  332  1  0.61313300  0.74544800  0.24728150  1
  C  333  1  0.65586600  0.70736100  0.25337300  1
  C  334  1  0.63490200  0.66037500  0.24296450  1
  C  335  1  0.56892000  0.65233000  0.24621950  1
  C  336  1  0.52788600  0.69083300  0.23693150  1
  C  339  1  0.50832400  0.77849400  0.23065400  1
  C  340  1  0.51558200  0.82093100  0.25764500  1
  C  341  1  0.47067200  0.85836050  0.25632050  1
  C  342  1  0.42432200  0.85661700  0.22012550  1
  C  343  1  0.40654600  0.81094800  0.20378100  1
  C  344  1  0.45188700  0.77439900  0.20447700  1
  C  353  1  0.07065400  0.99765950  0.99635150  1
  C  355  1  0.96589100  0.97275000  0.97237850  1
  C  356  1  0.93991100  0.98874500  0.01533500  1
  C  358  1  0.04573200  0.00985250  0.04185300  1
  C  360  1  0.07713600  0.03372500  0.08263200  1
  C  365  1  0.62741000  0.52138900  0.99102050  1
  C  367  1  0.52347800  0.53173700  0.02673100  1
  C  368  1  0.49452400  0.50935800  0.98793050  1
  C  370  1  0.59672000  0.50886550  0.94776550  1
  C  372  1  0.62552600  0.49650450  0.90133500  1
  C  377  1  0.82437000  0.72958500  0.77554900  1
  C  379  1  0.71657200  0.70745600  0.79409000  1
  C  380  1  0.69286000  0.74564650  0.76751200  1
  C  382  1  0.80079500  0.77150500  0.75301550  1
  C  384  1  0.83471700  0.80849150  0.72519600  1
  C  389  1  0.34369400  0.79841800  0.21389250  1
  C  391  1  0.23432000  0.81793950  0.20252900  1
  C  392  1  0.21615200  0.77912950  0.23107600  1
  C  394  1  0.32576500  0.76251700  0.24687650  1
  C  396  1  0.36313000  0.73442000  0.28165450  1
  C  401  1  0.00269100  0.42599600  0.01034000  1
  C  403  1  0.05467400  0.46932650  0.07194450  1
  C  404  1  0.11244400  0.44654950  0.06162200  1
  C  406  1  0.05768200  0.39792000  0.00428050  1
  C  408  1  0.06076000  0.35392900  0.97514100  1
  C  413  1  0.44962200  0.05628700  0.96366150  1
  C  415  1  0.52369400  0.99304050  0.96232600  1
  C  416  1  0.57261500  0.02620500  0.95614600  1
  C  418  1  0.49834400  0.08947200  0.95447750  1
  C  420  1  0.48727400  0.14137200  0.95118450  1
  C  425  1  0.19539200  0.72077850  0.68594600  1
  C  427  1  0.27238800  0.74447600  0.74291400  1
  C  428  1  0.31089600  0.70667450  0.72823700  1
  C  430  1  0.23585600  0.68533600  0.66816200  1
  C  432  1  0.22228400  0.65773150  0.62464700  1
  C  437  1  0.71670800  0.71847500  0.26993750  1
  C  439  1  0.82664500  0.70988800  0.25398850  1
  C  440  1  0.83989800  0.75196550  0.27971050  1
  C  442  1  0.73086400  0.75494300  0.30320300  1
  C  444  1  0.68706600  0.77690050  0.33798350  1
  C  449  1  0.17380400  0.24025000  0.26026150  1
  C  451  1  0.27196000  0.25620300  0.22138800  1
  C  452  1  0.30307000  0.22246750  0.25017300  1
  C  454  1  0.20268800  0.20274500  0.28591750  1
  C  456  1  0.17347200  0.17590350  0.32567450  1
  C  461  1  0.67172800  0.27034700  0.75517400  1
  C  463  1  0.78134600  0.24799950  0.76284050  1
  C  464  1  0.80115400  0.28657400  0.73472600  1
  C  466  1  0.69175500  0.31302450  0.73218800  1
  C  468  1  0.65219800  0.35102000  0.71085850  1
  C  473  1  0.78377800  0.28981050  0.31569000  1
  C  475  1  0.72211300  0.34117050  0.26724750  1
  C  476  1  0.66580800  0.32309400  0.28739100  1
  C  478  1  0.72896500  0.27766250  0.34201950  1
  C  480  1  0.72648600  0.24638750  0.38450450  1
  C  485  1  0.29197400  0.22289000  0.66081650  1
  C  487  1  0.22249600  0.16529800  0.69380700  1
  C  488  1  0.17070000  0.18584500  0.66943750  1
  C  490  1  0.24333500  0.23790800  0.62951600  1
  C  492  1  0.24902200  0.27602950  0.59328700  1
  C  497  1  0.48030200  0.57390850  0.52407300  1
  C  499  1  0.42415100  0.54730150  0.59247500  1
  C  500  1  0.36943400  0.57056350  0.57608400  1
  C  502  1  0.42921600  0.60408600  0.51176400  1
  C  504  1  0.43061000  0.64252700  0.47547450  1
  C  509  1  0.10541400  0.01743950  0.49398600  1
  C  511  1  0.99874700  0.04563800  0.50460700  1
  C  512  1  0.97536600  0.01341550  0.47067100  1
  C  514  1  0.08325500  0.98814600  0.45599400  1
  C  516  1  0.11838800  0.95095750  0.42938300  1
  C  521  1  0.48845200  0.92812800  0.53467300  1
  C  523  1  0.55406000  0.97316550  0.58668100  1
  C  524  1  0.60882100  0.95187600  0.56732400  1
  C  526  1  0.54164800  0.90003700  0.52195200  1
  C  528  1  0.54103700  0.85722200  0.49102500  1
  C  533  1  0.86858100  0.50889900  0.49954650  1
  C  535  1  0.96712400  0.46886350  0.49638650  1
  C  536  1  0.99857600  0.51266500  0.50148150  1
  C  538  1  0.90053200  0.55341750  0.49926750  1
  C  540  1  0.86947100  0.60066400  0.49766700  1
  C  545  1  0.66246400  0.91554100  0.86206050  1
  C  547  1  0.57487200  0.86306100  0.84917400  1
  C  548  1  0.58727300  0.86118750  0.79996800  1
  C  550  1  0.67582400  0.91491400  0.81278250  1
  C  552  1  0.72708200  0.94047450  0.78772350  1
  C  557  1  0.20269400  0.57347000  0.14314050  1
  C  559  1  0.11625800  0.62862500  0.14800800  1
  C  560  1  0.13304200  0.64173200  0.19472200  1
  C  562  1  0.22011600  0.58542850  0.19016250  1
  C  564  1  0.27258000  0.56290050  0.21664300  1
  C  569  1  0.41275900  0.59746650  0.83823700  1
  C  571  1  0.34876000  0.57254850  0.90367700  1
  C  572  1  0.35795000  0.52421050  0.89206600  1
  C  574  1  0.42264800  0.54928850  0.82541900  1
  C  576  1  0.46083400  0.53113850  0.78517900  1
  C  581  1  0.88979400  0.88570700  0.19630100  1
  C  583  1  0.80134900  0.90081150  0.14502650  1
  C  584  1  0.82303100  0.94724100  0.13538300  1
  C  586  1  0.91040900  0.93290150  0.19002050  1
  C  588  1  0.96773500  0.95296400  0.21202750  1
  C  593  1  0.36323000  0.09982400  0.11678750  1
  C  595  1  0.42495000  0.16217250  0.15082800  1
  C  596  1  0.43378200  0.13591000  0.19315450  1
  C  598  1  0.37119700  0.07265400  0.15877150  1
  C  600  1  0.34558200  0.02406600  0.16479150  1
  C  605  1  0.91454000  0.41737200  0.85159650  1
  C  607  1  0.95160200  0.34853150  0.81044650  1
  C  608  1  0.95447800  0.37380350  0.76707550  1
  C  610  1  0.91991900  0.44410500  0.80912250  1
  C  612  1  0.90909400  0.49584900  0.80694350  1
  C  617  1  0.58581100  0.37046200  0.14747500  1
  C  619  1  0.68835200  0.37634450  0.11132550  1
  C  620  1  0.67290300  0.42078500  0.09163500  1
  C  622  1  0.56776600  0.41318950  0.12489100  1
  C  624  1  0.50475000  0.43494400  0.12998500  1
  C  629  1  0.06574900  0.12320100  0.79252300  1
  C  631  1  0.15574600  0.11992550  0.84429800  1
  C  632  1  0.13315000  0.07820500  0.86606950  1
  C  634  1  0.04102000  0.08190500  0.81420550  1
  C  636  1  0.98174000  0.05679400  0.80203800  1
  C  641  1  0.15297600  0.45111950  0.40910300  1
  C  643  1  0.10308600  0.37502050  0.40236100  1
  C  644  1  0.10457200  0.37836400  0.35257100  1
  C  646  1  0.15883100  0.45341550  0.35892700  1
  C  648  1  0.19137800  0.49258250  0.33377750  1
  C  653  1  0.69861100  0.08341200  0.62755600  1
  C  655  1  0.60095200  0.12582150  0.63593600  1
  C  656  1  0.62068500  0.14581950  0.67942250  1
  C  658  1  0.72041400  0.10397800  0.67029200  1
  C  660  1  0.78208400  0.09280600  0.69190600  1
  C  665  1  0.87411400  0.13556000  0.33340150  1
  C  667  1  0.82238900  0.09749550  0.39882750  1
  C  668  1  0.82818800  0.05244600  0.37714200  1
  C  670  1  0.87880000  0.09115300  0.30982450  1
  C  672  1  0.90715200  0.08213650  0.26250900  1
  C  677  1  0.35920800  0.38137200  0.68988000  1
  C  679  1  0.30902100  0.42333000  0.62649550  1
  C  680  1  0.28191600  0.45576950  0.65879750  1
  C  682  1  0.33535800  0.41502750  0.72278800  1
  C  684  1  0.34809800  0.41292700  0.77443700  1
  C  689  1  0.78665200  0.56562000  0.63515350  1
  C  691  1  0.85927200  0.62935700  0.64822950  1
  C  692  1  0.87365100  0.61240600  0.69417600  1
  C  694  1  0.79589600  0.55022000  0.68275400  1
  C  696  1  0.76551000  0.50889400  0.70614350  1
  C  701  1  0.39081600  0.91732100  0.38094700  1
  C  703  1  0.44162800  0.85254750  0.34113400  1
  C  704  1  0.45082200  0.88019900  0.29983100  1
  C  706  1  0.39774800  0.94543850  0.33955650  1
  C  708  1  0.37588800  0.99531200  0.33605550  1
  C  713  1  0.08189200  0.85805250  0.65555600  1
  C  715  1  0.10423400  0.90636200  0.58787350  1
  C  716  1  0.15159800  0.93065850  0.61342650  1
  C  718  1  0.12377200  0.88655850  0.68302200  1
  C  720  1  0.13641100  0.87782250  0.73401650  1
  C  725  1  0.55471800  0.62565700  0.28795750  1
  C  727  1  0.57933600  0.63096100  0.37105700  1
  C  728  1  0.58434900  0.58123950  0.37408700  1
  C  730  1  0.55509200  0.57525250  0.29140200  1
  C  732  1  0.53936700  0.54145300  0.25268300  1
  H  7  1  0.66124100  0.00746750  0.01696400  1
  H  16  1  0.83953500  0.96336900  0.96146800  1
  H  17  1  0.85876400  0.04879550  0.12676050  1
  H  18  1  0.90447600  0.06129350  0.08118100  1
  H  19  1  0.61541300  0.99666900  0.82946750  1
  H  20  1  0.58219300  0.03604000  0.86419800  1
  H  21  1  0.75354400  0.91071350  0.92776250  1
  H  22  1  0.71576300  0.94586900  0.07494650  1
  H  29  1  0.21741200  0.44649950  0.01307750  1
  H  38  1  0.39630600  0.51932400  0.05230100  1
  H  39  1  0.42255000  0.42467250  0.89067400  1
  H  40  1  0.47858600  0.42560800  0.93140200  1
  H  41  1  0.14554100  0.50192900  0.18633250  1
  H  42  1  0.11397500  0.45665800  0.15806000  1
  H  43  1  0.29955800  0.56158650  0.08353400  1
  H  44  1  0.25719600  0.50019450  0.95050300  1
  H  51  1  0.40683400  0.75857250  0.74820150  1
  H  60  1  0.58821000  0.69271700  0.78736750  1
  H  61  1  0.62233500  0.85354300  0.69458200  1
  H  62  1  0.66641800  0.80607850  0.68565450  1
  H  63  1  0.31409800  0.58519400  0.78874600  1
  H  64  1  0.27397400  0.62559550  0.76060500  1
  H  65  1  0.50514900  0.65967700  0.83181450  1
  H  66  1  0.47272200  0.81163350  0.79851000  1
  H  73  1  0.95452800  0.72233000  0.25891200  1
  H  82  1  0.10204200  0.81873050  0.21426050  1
  H  83  1  0.16645800  0.65828400  0.29442000  1
  H  84  1  0.19728900  0.71009000  0.30820600  1
  H  85  1  0.84848300  0.89217250  0.28410150  1
  H  86  1  0.83649600  0.84756750  0.32023550  1
  H  87  1  0.99817500  0.84210550  0.17725500  1
  H  88  1  0.01521500  0.68723050  0.19037150  1
  H  95  1  0.33465300  0.05961800  0.93749600  1
  H  104  1  0.18639300  0.02080400  0.03625250  1
  H  105  1  0.12675900  0.97888150  0.86250750  1
  H  106  1  0.10764800  0.94663350  0.90911300  1
  H  107  1  0.47219000  0.06682300  0.09748850  1
  H  108  1  0.50401400  0.06180200  0.04523650  1
  H  109  1  0.25427600  0.08198700  0.07238950  1
  H  110  1  0.23790100  0.10224950  0.91913100  1
  H  117  1  0.88521800  0.43463950  0.03290550  1
  H  126  1  0.74361300  0.50475700  0.94195100  1
  H  127  1  0.68820100  0.51607600  0.12318350  1
  H  128  1  0.67428200  0.55950650  0.08484950  1
  H  129  1  0.02423400  0.45001000  0.87548650  1
  H  130  1  0.05440200  0.45189950  0.92884100  1
  H  131  1  0.80806800  0.44312900  0.89586650  1
  H  132  1  0.77934200  0.39720900  0.03990750  1
  H  139  1  0.57195200  0.26044100  0.28779500  1
  H  148  1  0.39431600  0.28568300  0.23062850  1
  H  149  1  0.39451000  0.10604200  0.29459600  1
  H  150  1  0.33910200  0.14221550  0.31228350  1
  H  151  1  0.61046300  0.43468650  0.21699200  1
  H  152  1  0.63952500  0.41719350  0.26839250  1
  H  153  1  0.49190800  0.30724200  0.16074600  1
  H  154  1  0.54000100  0.18812450  0.21916250  1
  H  161  1  0.07898000  0.25009950  0.66837500  1
  H  170  1  0.89219600  0.22176200  0.72649700  1
  H  171  1  0.87759400  0.40613300  0.68434450  1
  H  172  1  0.81707200  0.37102650  0.67611250  1
  H  173  1  0.10231400  0.06719300  0.71945350  1
  H  174  1  0.14398000  0.09086300  0.67598350  1
  H  175  1  0.97723700  0.18830850  0.77870650  1
  H  176  1  0.04226000  0.31561400  0.72692000  1
  H  183  1  0.08786100  0.52284150  0.56398100  1
  H  192  1  0.27152200  0.56079250  0.52066350  1
  H  193  1  0.32008000  0.54056000  0.70620700  1
  H  194  1  0.35731800  0.57922100  0.67241900  1
  H  195  1  0.05651600  0.50355200  0.37496750  1
  H  196  1  0.00056900  0.52128500  0.41053200  1
  H  197  1  0.23485200  0.48397450  0.47300200  1
  H  198  1  0.17647500  0.46523900  0.60727100  1
  H  205  1  0.69956200  0.95637050  0.50231600  1
  H  214  1  0.88098100  0.02156150  0.53173400  1
  H  215  1  0.89674500  0.96284100  0.35117950  1
  H  216  1  0.95756500  0.95568900  0.38590200  1
  H  217  1  0.67146200  0.00830750  0.68429700  1
  H  218  1  0.63731700  0.96070500  0.66176500  1
  H  219  1  0.78901800  0.07419650  0.56203450  1
  H  220  1  0.73415000  0.01651550  0.43482500  1
  H  227  1  0.90164000  0.31684650  0.30916150  1
  H  236  1  0.05553800  0.21702600  0.26755550  1
  H  237  1  0.21466300  0.35041450  0.33286900  1
  H  238  1  0.23757000  0.30174300  0.30786950  1
  H  239  1  0.77304700  0.15593100  0.28574750  1
  H  240  1  0.74126100  0.20853400  0.28008550  1
  H  241  1  0.98281000  0.18122200  0.32107050  1
  H  242  1  0.99529400  0.33762600  0.34258300  1
  H  249  1  0.40857800  0.20209300  0.67903600  1
  H  258  1  0.54795000  0.30531500  0.74988700  1
  H  259  1  0.63118600  0.13471500  0.77971400  1
  H  260  1  0.64790800  0.18127750  0.81329050  1
  H  261  1  0.25159800  0.34438500  0.71579300  1
  H  262  1  0.22913300  0.28992150  0.70589900  1
  H  263  1  0.47055200  0.34141250  0.70708800  1
  H  264  1  0.51009600  0.19237850  0.65895000  1
  H  271  1  0.75794900  0.51620200  0.46165550  1
  H  280  1  0.59217200  0.55749700  0.55540400  1
  H  281  1  0.47467800  0.53869550  0.39046350  1
  H  282  1  0.43881200  0.53845750  0.44197650  1
  H  283  1  0.86271800  0.49115600  0.63324650  1
  H  284  1  0.89094300  0.46792800  0.58498500  1
  H  285  1  0.68412300  0.57651100  0.58553900  1
  H  286  1  0.68606200  0.56154650  0.42473100  1
  H  293  1  0.37219800  0.94520700  0.56279800  1
  H  302  1  0.22512400  0.00335050  0.46337100  1
  H  303  1  0.11590000  0.01979050  0.63334150  1
  H  304  1  0.10414800  0.05935550  0.59162500  1
  H  305  1  0.49977600  0.95332300  0.40016650  1
  H  306  1  0.53203500  0.95933150  0.45231150  1
  H  307  1  0.28629600  0.94223100  0.42826200  1
  H  308  1  0.26728800  0.91844600  0.58059250  1
  H  315  1  0.09100700  0.67775550  0.69911300  1
  H  324  1  0.94173000  0.76792500  0.75794550  1
  H  325  1  0.86371700  0.59421850  0.79618750  1
  H  326  1  0.84934600  0.64031050  0.83028000  1
  H  327  1  0.18592200  0.83156350  0.61381400  1
  H  328  1  0.21901300  0.77920600  0.61541300  1
  H  329  1  0.99081800  0.80618350  0.69492950  1
  H  330  1  0.98618400  0.65015400  0.67506400  1
  H  337  1  0.63033000  0.77939700  0.24756800  1
  H  346  1  0.43932200  0.74229050  0.19030450  1
  H  347  1  0.41026900  0.92733600  0.21328950  1
  H  348  1  0.36643800  0.89494800  0.17781200  1
  H  349  1  0.65546200  0.59040500  0.23213200  1
  H  350  1  0.71776500  0.62257800  0.24152950  1
  H  351  1  0.48092400  0.68450700  0.24025100  1
  H  352  1  0.54756400  0.82121700  0.28481900  1
  H  359  1  0.94035100  0.95846150  0.94531750  1
  H  362  1  0.04277000  0.04617550  0.10880600  1
  H  363  1  0.10152200  0.06543300  0.07027450  1
  H  364  1  0.09672600  0.97705400  0.12137450  1
  H  371  1  0.50005400  0.54048300  0.05704500  1
  H  374  1  0.58956600  0.48685250  0.87516350  1
  H  375  1  0.65540800  0.46533950  0.90536350  1
  H  376  1  0.63304100  0.56130150  0.87477250  1
  H  383  1  0.68891900  0.68315700  0.81090150  1
  H  386  1  0.80187900  0.83181000  0.70629300  1
  H  387  1  0.86305600  0.79159300  0.69776400  1
  H  388  1  0.84709400  0.85546250  0.77661150  1
  H  395  1  0.20272600  0.83768200  0.18369150  1
  H  398  1  0.34172100  0.73723700  0.31689900  1
  H  399  1  0.41041400  0.74808100  0.28599400  1
  H  400  1  0.32489000  0.67098100  0.27108850  1
  H  407  1  0.05199600  0.49860000  0.09321800  1
  H  410  1  0.10681800  0.33691350  0.97865400  1
  H  411  1  0.05452900  0.36193500  0.93768300  1
  H  412  1  0.02156800  0.30959300  0.02084300  1
  H  419  1  0.53200100  0.95739000  0.96543000  1
  H  422  1  0.53108900  0.16038800  0.94385250  1
  H  423  1  0.46957400  0.15424500  0.98518850  1
  H  424  1  0.45969600  0.14471000  0.88419450  1
  H  431  1  0.28307200  0.76527000  0.77158400  1
  H  434  1  0.26434000  0.63893700  0.61330100  1
  H  435  1  0.21000500  0.68213000  0.59598200  1
  H  436  1  0.18405400  0.60105000  0.65411550  1
  H  443  1  0.85797000  0.69433550  0.23139100  1
  H  446  1  0.70791400  0.77518300  0.37348300  1
  H  447  1  0.64307000  0.75711200  0.33987050  1
  H  448  1  0.71017700  0.84464950  0.33060550  1
  H  455  1  0.29505600  0.27656700  0.19702300  1
  H  458  1  0.20788400  0.15282650  0.34314850  1
  H  459  1  0.15674300  0.20086100  0.35247950  1
  H  460  1  0.13720800  0.12257250  0.28922900  1
  H  467  1  0.81129600  0.22354300  0.77707000  1
  H  470  1  0.68078100  0.37622550  0.69057150  1
  H  471  1  0.61937400  0.33546600  0.68550950  1
  H  472  1  0.64827400  0.39461550  0.76581250  1
  H  479  1  0.72228700  0.36100750  0.23694350  1
  H  482  1  0.69484300  0.26219700  0.41073350  1
  H  483  1  0.70641400  0.21225200  0.37418450  1
  H  484  1  0.80147900  0.26781150  0.42005700  1
  H  491  1  0.21694600  0.14256350  0.72168050  1
  H  494  1  0.22586200  0.26436550  0.56059100  1
  H  495  1  0.22408000  0.30742850  0.60595900  1
  H  496  1  0.33326600  0.26288300  0.56678900  1
  H  503  1  0.42341200  0.52267250  0.61908450  1
  H  506  1  0.39014200  0.66617850  0.47971750  1
  H  507  1  0.42703800  0.62768650  0.43995650  1
  H  508  1  0.48757000  0.68735400  0.50827150  1
  H  515  1  0.97050800  0.06841500  0.52304600  1
  H  518  1  0.08628800  0.92732900  0.41016400  1
  H  519  1  0.14406000  0.92838600  0.45416800  1
  H  520  1  0.13705000  0.98753250  0.37115000  1
  H  527  1  0.55611800  0.00278750  0.60751350  1
  H  530  1  0.57004700  0.82965600  0.50749750  1
  H  531  1  0.56268700  0.86612650  0.45706500  1
  H  532  1  0.46284200  0.82543100  0.51167450  1
  H  539  1  0.99104800  0.43741300  0.49460000  1
  H  542  1  0.90394000  0.62938750  0.50075150  1
  H  543  1  0.83738800  0.60424850  0.52747150  1
  H  544  1  0.86355900  0.60802150  0.42799950  1
  H  551  1  0.54002900  0.84351300  0.86461550  1
  H  554  1  0.70654600  0.96328200  0.76035050  1
  H  555  1  0.75567900  0.91389650  0.76963600  1
  H  556  1  0.74892300  0.99779700  0.82474150  1
  H  563  1  0.07978000  0.64431400  0.13038850  1
  H  566  1  0.26828700  0.52421450  0.21551600  1
  H  567  1  0.27040300  0.57335450  0.25395100  1
  H  568  1  0.34054600  0.56275800  0.16865000  1
  H  575  1  0.32431600  0.58288950  0.93311050  1
  H  578  1  0.43135800  0.50851800  0.76271350  1
  H  579  1  0.49776800  0.50873100  0.80014800  1
  H  580  1  0.46125200  0.57942700  0.73426000  1
  H  587  1  0.76407500  0.88632500  0.12734700  1
  H  590  1  0.97499200  0.98954050  0.20007250  1
  H  591  1  0.00853800  0.93199500  0.20120850  1
  H  592  1  0.00058600  0.96542250  0.27611750  1
  H  599  1  0.44194600  0.19577200  0.14648000  1
  H  602  1  0.35348200  0.01126400  0.20099550  1
  H  603  1  0.29483100  0.02523250  0.15909050  1
  H  604  1  0.41687800  0.98727000  0.13893000  1
  H  611  1  0.95976900  0.31283250  0.81237150  1
  H  614  1  0.91206500  0.50832400  0.77021850  1
  H  615  1  0.86210400  0.50386400  0.82047450  1
  H  616  1  0.94859600  0.55363600  0.83318550  1
  H  623  1  0.73237600  0.36220200  0.10846250  1
  H  626  1  0.50052800  0.46573900  0.10661500  1
  H  627  1  0.46920400  0.40896700  0.11931750  1
  H  628  1  0.45147100  0.46334900  0.17945400  1
  H  635  1  0.19738100  0.13536200  0.85338300  1
  H  638  1  0.99190800  0.01909150  0.79645750  1
  H  639  1  0.95065900  0.05937400  0.83274900  1
  H  640  1  0.96944800  0.06496000  0.73303550  1
  H  647  1  0.08441200  0.34625350  0.41943650  1
  H  650  1  0.19322600  0.48509850  0.29566000  1
  H  651  1  0.23968300  0.49469200  0.34699300  1
  H  652  1  0.18464600  0.56161150  0.32400800  1
  H  659  1  0.55743500  0.13165250  0.62193400  1
  H  662  1  0.78503800  0.05463700  0.69872300  1
  H  663  1  0.78742800  0.11145700  0.72577750  1
  H  664  1  0.87153400  0.09900300  0.67538150  1
  H  671  1  0.80495300  0.10166100  0.43234200  1
  H  674  1  0.87556800  0.05941300  0.24183000  1
  H  675  1  0.95064200  0.06235550  0.26818600  1
  H  676  1  0.88349000  0.13743350  0.22333600  1
  H  683  1  0.30195800  0.42577500  0.59065500  1
  H  686  1  0.32898600  0.44445750  0.79197300  1
  H  687  1  0.39899600  0.41250450  0.78006050  1
  H  688  1  0.33061400  0.37148850  0.82904500  1
  H  695  1  0.88010700  0.65885300  0.63415700  1
  H  698  1  0.80179300  0.48449750  0.71903050  1
  H  699  1  0.74038800  0.52229600  0.73715250  1
  H  700  1  0.74293600  0.46208300  0.65664900  1
  H  707  1  0.45541600  0.81785950  0.34318700  1
  H  710  1  0.38133800  0.00868050  0.29979800  1
  H  711  1  0.32580800  0.99639200  0.34442800  1
  H  712  1  0.45199800  0.02900900  0.35798650  1
  H  719  1  0.09755100  0.91175400  0.55231700  1
  H  722  1  0.15569000  0.84216950  0.73880650  1
  H  723  1  0.17080600  0.90337350  0.74759600  1
  H  724  1  0.08839300  0.87644250  0.79366850  1
  H  731  1  0.58685500  0.65254650  0.39972150  1
  H  734  1  0.58002200  0.51874700  0.24564600  1
  H  735  1  0.50159600  0.51859400  0.26559750  1
  H  736  1  0.55272200  0.57294050  0.19062100  1
  N  8  1  0.60738100  0.00740550  0.86158900  1
  N  15  1  0.87883500  0.03799100  0.09763800  1
  N  30  1  0.13925200  0.48540200  0.15643000  1
  N  37  1  0.44166400  0.44067750  0.91776650  1
  N  52  1  0.31381000  0.61654900  0.77461200  1
  N  59  1  0.63873300  0.82362150  0.70674850  1
  N  74  1  0.84867000  0.85793950  0.28875750  1
  N  81  1  0.17865500  0.68989850  0.28400650  1
  N  96  1  0.46631200  0.06792400  0.06337050  1
  N  103  1  0.11578100  0.97798650  0.89602000  1
  N  118  1  0.01873800  0.44352950  0.90907200  1
  N  125  1  0.68089800  0.52579600  0.09044900  1
  N  140  1  0.61992500  0.40860100  0.23836850  1
  N  147  1  0.37135400  0.13540450  0.28912450  1
  N  162  1  0.11682700  0.09566050  0.70324300  1
  N  169  1  0.85618800  0.37675100  0.69272050  1
  N  184  1  0.04276500  0.50853950  0.40729350  1
  N  191  1  0.33163400  0.55071250  0.67446800  1
  N  206  1  0.65894800  0.99062900  0.65619300  1
  N  213  1  0.91858700  0.97217300  0.38016450  1
  N  228  1  0.77554300  0.18967750  0.29280750  1
  N  235  1  0.20295800  0.32317750  0.31388800  1
  N  250  1  0.26194300  0.31358950  0.70263100  1
  N  257  1  0.63703000  0.16889150  0.78208950  1
  N  272  1  0.86198800  0.49042600  0.59900800  1
  N  279  1  0.47566600  0.54750750  0.42375650  1
  N  294  1  0.49662100  0.94759650  0.43402700  1
  N  301  1  0.11744100  0.02744150  0.59965700  1
  N  316  1  0.18448800  0.79944400  0.62565600  1
  N  323  1  0.86012500  0.62837500  0.79891900  1
  N  338  1  0.67281400  0.62117550  0.24113200  1
  N  345  1  0.39292400  0.89634500  0.20590000  1
  N  354  1  0.02770800  0.97933750  0.96545900  1
  N  357  1  0.98268100  0.00469200  0.04750300  1
  N  366  1  0.58687400  0.53385700  0.02668550  1
  N  369  1  0.53334400  0.50264450  0.94999800  1
  N  378  1  0.77924800  0.70148050  0.79531400  1
  N  381  1  0.73731500  0.77583450  0.75059100  1
  N  390  1  0.29647700  0.82490900  0.19456500  1
  N  393  1  0.26381000  0.75499900  0.25148300  1
  N  402  1  0.00400200  0.45966600  0.04479050  1
  N  405  1  0.10988800  0.41101700  0.02888750  1
  N  414  1  0.46492800  0.00969250  0.96808000  1
  N  417  1  0.55791500  0.07267700  0.95013900  1
  N  426  1  0.21603100  0.74928350  0.72172700  1
  N  429  1  0.29128800  0.67908750  0.69134300  1
  N  438  1  0.76600600  0.69770500  0.24784500  1
  N  441  1  0.79089700  0.77062650  0.30416550  1
  N  450  1  0.21026800  0.26474750  0.22898900  1
  N  453  1  0.26531800  0.19687100  0.27934400  1
  N  462  1  0.71952900  0.24186650  0.77017400  1
  N  465  1  0.75450700  0.31758600  0.72340650  1
  N  474  1  0.77768400  0.32192700  0.28019000  1
  N  477  1  0.67297100  0.29288950  0.32462800  1
  N  486  1  0.27910000  0.18673950  0.69098400  1
  N  489  1  0.18480600  0.22056750  0.63766200  1
  N  498  1  0.47552800  0.54834200  0.56475750  1
  N  501  1  0.37577000  0.59902200  0.53738600  1
  N  510  1  0.06067800  0.04503200  0.51464250  1
  N  513  1  0.02019800  0.98802300  0.44773850  1
  N  522  1  0.49749100  0.96255000  0.56763200  1
  N  525  1  0.59906100  0.91550950  0.53648650  1
  N  534  1  0.90369200  0.46861850  0.49841250  1
  N  537  1  0.96419600  0.55296500  0.49966650  1
  N  546  1  0.61170800  0.89034200  0.87732800  1
  N  549  1  0.63795900  0.88723150  0.78539100  1
  N  558  1  0.15057800  0.59518200  0.12506900  1
  N  561  1  0.18507000  0.61928700  0.21232650  1
  N  570  1  0.37499200  0.60643350  0.87611000  1
  N  573  1  0.39587600  0.51585100  0.85386800  1
  N  582  1  0.83572600  0.87228300  0.17397350  1
  N  585  1  0.87647700  0.95991350  0.15937750  1
  N  594  1  0.39157800  0.14298400  0.11493500  1
  N  597  1  0.40440400  0.09280300  0.19503600  1
  N  606  1  0.93214200  0.37104950  0.85007450  1
  N  609  1  0.93728200  0.42046350  0.76886150  1
  N  618  1  0.64557600  0.35462250  0.13952900  1
  N  621  1  0.61232000  0.43560800  0.09846300  1
  N  630  1  0.12206800  0.13968200  0.80872900  1
  N  633  1  0.07595200  0.06285000  0.84999450  1
  N  642  1  0.12509200  0.41190250  0.42799500  1
  N  645  1  0.13480100  0.41649750  0.33327450  1
  N  654  1  0.63945400  0.09520700  0.61309700  1
  N  657  1  0.68049900  0.13415050  0.69306600  1
  N  666  1  0.84508300  0.13617950  0.37637250  1
  N  669  1  0.85745500  0.05230050  0.33394350  1
  N  678  1  0.34413600  0.38723450  0.64335700  1
  N  681  1  0.29891000  0.45093300  0.70526700  1
  N  690  1  0.81893000  0.60462850  0.62080900  1
  N  693  1  0.83887400  0.57464500  0.70930350  1
  N  702  1  0.41428800  0.87241250  0.37958300  1
  N  705  1  0.42640200  0.92501000  0.30134850  1
  N  714  1  0.07433000  0.86976450  0.60910750  1
  N  717  1  0.15778500  0.92080550  0.66037300  1
  N  726  1  0.56696700  0.65057650  0.32844750  1
  N  729  1  0.56912500  0.55577450  0.33459800  1
  O  361  1  0.12057300  0.00318700  0.10667450  1
  O  373  1  0.66178000  0.53490250  0.88230350  1
  O  385  1  0.87395100  0.83799750  0.75415350  1
  O  397  1  0.36693600  0.68537350  0.26841850  1
  O  409  1  0.01289200  0.32067600  0.98830800  1
  O  421  1  0.44176200  0.15275500  0.91541450  1
  O  433  1  0.17133800  0.62508750  0.63061000  1
  O  445  1  0.67213700  0.82516550  0.32651200  1
  O  457  1  0.12130800  0.14762250  0.31046550  1
  O  469  1  0.61793300  0.37723950  0.74585650  1
  O  481  1  0.78568300  0.23754500  0.40720600  1
  O  493  1  0.31204000  0.29002450  0.58191900  1
  O  505  1  0.48697600  0.67031050  0.47772950  1
  O  517  1  0.16142200  0.97068000  0.39568700  1
  O  529  1  0.48026000  0.83734050  0.48155350  1
  O  541  1  0.83401500  0.60707900  0.45489950  1
  O  553  1  0.76954800  0.96765000  0.81641300  1
  O  565  1  0.33293000  0.57765850  0.19965450  1
  O  577  1  0.49219800  0.56566250  0.75632200  1
  O  589  1  0.96152100  0.95241700  0.26258550  1
  O  601  1  0.37177000  0.99081400  0.13180450  1
  O  613  1  0.95610100  0.51927900  0.83479050  1
  O  625  1  0.49406800  0.44975900  0.17787800  1
  O  637  1  0.94704900  0.07438100  0.76212800  1
  O  649  1  0.16040400  0.53711050  0.34088650  1
  O  661  1  0.83118400  0.10723450  0.66036350  1
  O  673  1  0.92291500  0.12287850  0.23453200  1
  O  685  1  0.32023000  0.37152950  0.79497300  1
  O  697  1  0.72023200  0.48317300  0.67857700  1
  O  709  1  0.40787800  0.02640800  0.36824550  1
  O  721  1  0.07898700  0.88268450  0.76001350  1
  O  733  1  0.51657600  0.56170100  0.20924650  1
