# generated using pymatgen
data_H23(C15N4)2
_symmetry_space_group_name_H-M   'P 1'
_cell_length_a   24.18860000
_cell_length_b   31.15820000
_cell_length_c   71.27060000
_cell_angle_alpha   89.97760000
_cell_angle_beta   90.01620000
_cell_angle_gamma   90.10340000
_symmetry_Int_Tables_number   1
_chemical_formula_structural   H23(C15N4)2
_chemical_formula_sum   'H184 C240 N64'
_cell_volume   53714.65005932
_cell_formula_units_Z   8
loop_
 _symmetry_equiv_pos_site_id
 _symmetry_equiv_pos_as_xyz
  1  'x, y, z'
loop_
 _atom_site_type_symbol
 _atom_site_label
 _atom_site_symmetry_multiplicity
 _atom_site_fract_x
 _atom_site_fract_y
 _atom_site_fract_z
 _atom_site_occupancy
  C  1  1  0.61490100  0.26794150  0.94324000  1
  C  2  1  0.58145500  0.23188000  0.94339900  1
  C  3  1  0.56982100  0.22051200  0.92484900  1
  C  5  1  0.62315200  0.28034500  0.92460800  1
  C  6  1  0.65350500  0.31720600  0.91869500  1
  C  7  1  0.65705700  0.33147050  0.89977100  1
  C  9  1  0.64733700  0.33500800  0.86851300  1
  C  10  1  0.67398400  0.37241750  0.87440900  1
  C  11  1  0.68081400  0.36990300  0.89361500  1
  C  12  1  0.63454900  0.32386000  0.84969400  1
  C  13  1  0.61104700  0.28403500  0.84402600  1
  C  15  1  0.57256100  0.21804950  0.84416250  1
  C  16  1  0.58310000  0.22962000  0.82555050  1
  C  17  1  0.60576200  0.27027500  0.82544800  1
  C  18  1  0.54764500  0.17881300  0.84996050  1
  C  19  1  0.53608800  0.16784300  0.86889000  1
  C  21  1  0.53090500  0.17069700  0.90027900  1
  C  22  1  0.50429800  0.13323950  0.89430400  1
  C  23  1  0.50820100  0.13117000  0.87499800  1
  C  24  1  0.53795900  0.18422500  0.91919200  1
  C  25  1  0.51062300  0.15934400  0.93327300  1
  C  26  1  0.53836800  0.12596000  0.94282300  1
  C  27  1  0.50925900  0.09818200  0.95493400  1
  C  28  1  0.45160300  0.10286250  0.95769300  1
  C  29  1  0.42410300  0.13628850  0.94814600  1
  C  30  1  0.45315800  0.16427700  0.93615500  1
  C  31  1  0.53550900  0.14774000  0.83583650  1
  C  32  1  0.57390500  0.11478350  0.83204050  1
  C  33  1  0.56527300  0.08632600  0.81700550  1
  C  34  1  0.51843700  0.09040200  0.80520550  1
  C  35  1  0.47926900  0.12252350  0.80943450  1
  C  36  1  0.48773300  0.15104150  0.82451200  1
  C  37  1  0.64705000  0.35422400  0.83534850  1
  C  38  1  0.60488600  0.38086250  0.82814600  1
  C  39  1  0.61540500  0.40819250  0.81283400  1
  C  40  1  0.66809000  0.40956800  0.80435150  1
  C  41  1  0.71034000  0.38296000  0.81167550  1
  C  42  1  0.69994000  0.35555000  0.82698450  1
  C  43  1  0.68274600  0.34184050  0.93245400  1
  C  44  1  0.65591800  0.37378800  0.94316600  1
  C  45  1  0.74073700  0.33767600  0.93412600  1
  C  46  1  0.77109700  0.36490400  0.94608900  1
  C  47  1  0.74452200  0.39683250  0.95683500  1
  C  48  1  0.68637500  0.40081250  0.95523700  1
  C  79  1  0.61085500  0.72598500  0.55183750  1
  C  80  1  0.57732000  0.76190800  0.55172800  1
  C  81  1  0.56736500  0.77404300  0.57029200  1
  C  83  1  0.62072100  0.71436400  0.57047300  1
  C  84  1  0.65210400  0.67809850  0.57637600  1
  C  85  1  0.65675100  0.66423100  0.59532950  1
  C  87  1  0.64754300  0.66079200  0.62661100  1
  C  88  1  0.67645000  0.62442000  0.62079900  1
  C  89  1  0.68274500  0.62681850  0.60156950  1
  C  90  1  0.63374400  0.67148600  0.64539250  1
  C  91  1  0.60816100  0.71048600  0.65105700  1
  C  93  1  0.56982900  0.77642200  0.65096850  1
  C  94  1  0.57521100  0.76304400  0.66959500  1
  C  95  1  0.59793300  0.72246400  0.66963800  1
  C  96  1  0.54699200  0.81634000  0.64518050  1
  C  97  1  0.53640900  0.82776700  0.62624150  1
  C  99  1  0.53077700  0.82479200  0.59486150  1
  C  100  1  0.50685300  0.86329700  0.60077850  1
  C  101  1  0.51116100  0.86545400  0.62007550  1
  C  102  1  0.53658400  0.81078800  0.57597050  1
  C  103  1  0.50926700  0.83579100  0.56194300  1
  C  104  1  0.53760700  0.86826400  0.55195850  1
  C  105  1  0.50870900  0.89623900  0.53990450  1
  C  106  1  0.45073300  0.89258500  0.53758550  1
  C  107  1  0.42266500  0.86003000  0.54755450  1
  C  108  1  0.45146300  0.83188300  0.55951450  1
  C  109  1  0.53592500  0.84741600  0.65937850  1
  C  110  1  0.57971800  0.87271800  0.66645350  1
  C  111  1  0.57081900  0.90113000  0.68146650  1
  C  112  1  0.51809400  0.90460600  0.68993450  1
  C  113  1  0.47400300  0.88027200  0.68246250  1
  C  114  1  0.48285000  0.85162500  0.66745600  1
  C  115  1  0.64729000  0.64139600  0.65972400  1
  C  116  1  0.60752000  0.61125950  0.66585550  1
  C  117  1  0.61857400  0.58444450  0.68129800  1
  C  118  1  0.66924500  0.58728350  0.69105250  1
  C  119  1  0.70939900  0.61699500  0.68461800  1
  C  120  1  0.69850800  0.64383450  0.66917250  1
  C  121  1  0.68137200  0.65372600  0.56257350  1
  C  122  1  0.65505200  0.62071550  0.55229400  1
  C  123  1  0.73909900  0.65915050  0.56051200  1
  C  124  1  0.76973400  0.63206100  0.54861250  1
  C  125  1  0.74367200  0.59904600  0.53831150  1
  C  126  1  0.68577700  0.59381700  0.54029100  1
  C  157  1  0.08572400  0.72801800  0.05224850  1
  C  158  1  0.11937300  0.76396800  0.05208050  1
  C  159  1  0.13080300  0.77546500  0.07062950  1
  C  161  1  0.07730700  0.71572400  0.07088550  1
  C  162  1  0.04680100  0.67894800  0.07681050  1
  C  163  1  0.04316700  0.66473900  0.09574150  1
  C  165  1  0.05296500  0.66119800  0.12699900  1
  C  166  1  0.02604300  0.62389100  0.12112050  1
  C  167  1  0.01926300  0.62637500  0.10191150  1
  C  168  1  0.06581400  0.67234150  0.14581350  1
  C  169  1  0.08959400  0.71207700  0.15147150  1
  C  171  1  0.12815300  0.77804000  0.15132050  1
  C  172  1  0.11777100  0.76643700  0.16993900  1
  C  173  1  0.09510300  0.72578300  0.17005050  1
  C  174  1  0.15294600  0.81731300  0.14550800  1
  C  175  1  0.16443100  0.82828100  0.12657300  1
  C  177  1  0.16954900  0.82540600  0.09518300  1
  C  178  1  0.19602500  0.86293100  0.10114250  1
  C  179  1  0.19229300  0.86495500  0.12045350  1
  C  180  1  0.16262000  0.81178650  0.07627700  1
  C  181  1  0.19005100  0.83660800  0.06219650  1
  C  182  1  0.16232300  0.86990400  0.05258350  1
  C  183  1  0.19148500  0.89762900  0.04046350  1
  C  184  1  0.24916900  0.89297000  0.03775350  1
  C  185  1  0.27663500  0.85961800  0.04736050  1
  C  186  1  0.24752800  0.83166400  0.05935200  1
  C  187  1  0.16508800  0.84840400  0.15962350  1
  C  188  1  0.12666500  0.88133850  0.16342150  1
  C  189  1  0.13531800  0.90983400  0.17844150  1
  C  190  1  0.18216300  0.90577650  0.19023950  1
  C  191  1  0.22135500  0.87367600  0.18600900  1
  C  192  1  0.21289600  0.84514400  0.17093550  1
  C  193  1  0.05329500  0.64199200  0.16016250  1
  C  194  1  0.09541500  0.61527800  0.16734400  1
  C  195  1  0.08487900  0.58794450  0.18265350  1
  C  196  1  0.03224100  0.58668000  0.19117100  1
  C  197  1  0.99002600  0.61335050  0.18386450  1
  C  198  1  0.00044700  0.64076250  0.16855850  1
  C  199  1  0.01750800  0.65433500  0.06305750  1
  C  200  1  0.04425900  0.62231350  0.05236550  1
  C  201  1  0.95953400  0.65860550  0.06137050  1
  C  202  1  0.92910600  0.63137900  0.04942500  1
  C  203  1  0.95560600  0.59937800  0.03869800  1
  C  204  1  0.01373100  0.59529050  0.04031300  1
  C  235  1  0.08975100  0.27019900  0.44361850  1
  C  236  1  0.12353500  0.23441750  0.44371800  1
  C  237  1  0.13323900  0.22216500  0.42515250  1
  C  239  1  0.07967200  0.28172900  0.42498600  1
  C  240  1  0.04809100  0.31789350  0.41908850  1
  C  241  1  0.04331600  0.33171800  0.40013250  1
  C  243  1  0.05259300  0.33522250  0.36885450  1
  C  244  1  0.02349300  0.37150150  0.37466550  1
  C  245  1  0.01714700  0.36905650  0.39389250  1
  C  246  1  0.06656300  0.32462200  0.35007850  1
  C  247  1  0.09233100  0.28569750  0.34441050  1
  C  249  1  0.13076600  0.21980100  0.34448600  1
  C  250  1  0.12560700  0.23327800  0.32586650  1
  C  251  1  0.10290200  0.27386450  0.32583400  1
  C  252  1  0.15346300  0.17983050  0.35026550  1
  C  253  1  0.16403400  0.16838600  0.36920350  1
  C  255  1  0.16968100  0.17135450  0.40058150  1
  C  256  1  0.19341500  0.13277700  0.39466800  1
  C  257  1  0.18910800  0.13063000  0.37537050  1
  C  258  1  0.16393100  0.18537800  0.41947150  1
  C  259  1  0.19132800  0.16040550  0.43349100  1
  C  260  1  0.16300100  0.12800000  0.44352200  1
  C  261  1  0.19191100  0.10007550  0.45559600  1
  C  262  1  0.24991300  0.10365350  0.45785750  1
  C  263  1  0.27797600  0.13611750  0.44783200  1
  C  264  1  0.24914900  0.16426200  0.43587850  1
  C  265  1  0.16448100  0.14876550  0.33605850  1
  C  266  1  0.12059600  0.12366600  0.32890850  1
  C  267  1  0.12949300  0.09523000  0.31390450  1
  C  268  1  0.18230500  0.09152950  0.30551800  1
  C  269  1  0.22647900  0.11564450  0.31307100  1
  C  270  1  0.21762900  0.14433750  0.32806000  1
  C  271  1  0.05298800  0.35472050  0.33575200  1
  C  272  1  0.09264500  0.38499750  0.32967250  1
  C  273  1  0.08156900  0.41181100  0.31423050  1
  C  274  1  0.03097900  0.40884850  0.30443550  1
  C  275  1  0.99092900  0.37899600  0.31082150  1
  C  276  1  0.00185000  0.35214700  0.32626100  1
  C  277  1  0.01878500  0.34221500  0.43289750  1
  C  278  1  0.04501100  0.37531400  0.44315350  1
  C  279  1  0.96106400  0.33673450  0.43496050  1
  C  280  1  0.93036700  0.36379500  0.44685450  1
  C  281  1  0.95635800  0.39687250  0.45713700  1
  C  282  1  0.01424400  0.40215900  0.45516600  1
  C  313  1  0.70969700  0.47450950  0.76461450  1
  C  314  1  0.71715900  0.45770250  0.74614550  1
  C  315  1  0.72154000  0.48684100  0.73071450  1
  C  316  1  0.70769600  0.53090600  0.73354700  1
  C  317  1  0.69314300  0.54665000  0.75169850  1
  C  318  1  0.69959700  0.51914800  0.76760050  1
  C  331  1  0.71601400  0.44721600  0.77989350  1
  C  333  1  0.71257000  0.55993250  0.71883350  1
  C  335  1  0.52604800  0.96691400  0.73266850  1
  C  336  1  0.50721100  0.95116100  0.75035700  1
  C  337  1  0.51255800  0.97789200  0.76656650  1
  C  338  1  0.52793700  0.02183000  0.76417850  1
  C  339  1  0.53719400  0.03937000  0.74594050  1
  C  340  1  0.54096400  0.01095100  0.73025550  1
  C  353  1  0.53943700  0.93737900  0.71877800  1
  C  355  1  0.54416400  0.04602800  0.77962850  1
  C  357  1  0.99064200  0.52174800  0.23090900  1
  C  358  1  0.98325100  0.53856150  0.24938050  1
  C  359  1  0.97880400  0.50942000  0.26480850  1
  C  360  1  0.99250000  0.46532700  0.26196800  1
  C  361  1  0.00699300  0.44956700  0.24381400  1
  C  362  1  0.00063100  0.47709800  0.22791850  1
  C  375  1  0.98431400  0.54904950  0.21563350  1
  C  377  1  0.98757600  0.43631500  0.27668450  1
  C  379  1  0.17451000  0.02920950  0.26278050  1
  C  380  1  0.19325900  0.04498250  0.24508400  1
  C  381  1  0.18785100  0.01825000  0.22887750  1
  C  382  1  0.17259100  0.97428800  0.23127650  1
  C  383  1  0.16345900  0.95674100  0.24952150  1
  C  384  1  0.15962300  0.98517700  0.26519850  1
  C  397  1  0.16108700  0.05878000  0.27665550  1
  C  399  1  0.15638500  0.95005100  0.21583500  1
  C  401  1  0.80875700  0.47250450  0.98904000  1
  C  402  1  0.81129400  0.51747050  0.98503700  1
  C  403  1  0.85416200  0.54302300  0.99331250  1
  C  404  1  0.89125800  0.52378950  0.00648250  1
  C  405  1  0.88872700  0.47882200  0.01048250  1
  C  406  1  0.84584400  0.45327400  0.00221350  1
  C  419  1  0.76670700  0.44777950  0.98101500  1
  C  421  1  0.93333000  0.54849850  0.01450350  1
  C  423  1  0.80848200  0.52337200  0.50635550  1
  C  424  1  0.81112400  0.47843550  0.51040000  1
  C  425  1  0.85419000  0.45306300  0.50221650  1
  C  426  1  0.89143000  0.47243900  0.48911150  1
  C  427  1  0.88880600  0.51738000  0.48507500  1
  C  428  1  0.84570400  0.54274150  0.49324250  1
  C  441  1  0.76627000  0.54792600  0.51430550  1
  C  443  1  0.93366600  0.44790400  0.48116600  1
  C  445  1  0.39075700  0.97125400  0.50606200  1
  C  446  1  0.38926000  0.01583500  0.51082750  1
  C  447  1  0.34717000  0.04257600  0.50290400  1
  C  448  1  0.30997500  0.02491700  0.48933400  1
  C  449  1  0.31151300  0.98034600  0.48454900  1
  C  450  1  0.35353300  0.95358100  0.49250450  1
  C  463  1  0.43160700  0.94528000  0.51391400  1
  C  465  1  0.26910500  0.05089650  0.48149850  1
  C  467  1  0.39105900  0.02440200  0.98924500  1
  C  468  1  0.38891700  0.97980000  0.98453600  1
  C  469  1  0.34660600  0.95331200  0.99255700  1
  C  470  1  0.30976800  0.97126200  0.00613400  1
  C  471  1  0.31190100  0.01586900  0.01083850  1
  C  472  1  0.35423500  0.04234400  0.00282650  1
  C  485  1  0.43212900  0.05012650  0.98130500  1
  C  487  1  0.26869900  0.94554500  0.01407850  1
  H  49  1  0.66589900  0.42442100  0.96234900  1
  H  50  1  0.61420100  0.37838500  0.94183000  1
  H  51  1  0.81319500  0.36165200  0.94666700  1
  H  52  1  0.76153600  0.31555000  0.92620300  1
  H  53  1  0.62937700  0.28299950  0.95500400  1
  H  54  1  0.56891500  0.21626800  0.95528300  1
  H  55  1  0.59427100  0.25104250  0.90076300  1
  H  56  1  0.58697400  0.25317300  0.86804300  1
  H  57  1  0.69865900  0.39327950  0.90166800  1
  H  58  1  0.68754600  0.39724050  0.86621850  1
  H  59  1  0.56589700  0.37985150  0.83373300  1
  H  60  1  0.58385700  0.42672150  0.80772650  1
  H  61  1  0.73078900  0.33582750  0.83169750  1
  H  62  1  0.74873100  0.38248900  0.80570250  1
  H  63  1  0.61763600  0.28628600  0.81358450  1
  H  64  1  0.57499300  0.21210600  0.81373600  1
  H  65  1  0.48624400  0.11021200  0.90249800  1
  H  66  1  0.49204500  0.10715550  0.86689200  1
  H  67  1  0.60909400  0.11188000  0.83993500  1
  H  68  1  0.59405400  0.06297300  0.81459900  1
  H  69  1  0.45962000  0.17497650  0.82685050  1
  H  70  1  0.44498100  0.12625000  0.80116750  1
  H  71  1  0.43166900  0.18739800  0.92901500  1
  H  72  1  0.38224100  0.13997350  0.94955100  1
  H  73  1  0.53014900  0.07341850  0.96110800  1
  H  74  1  0.57959000  0.12074300  0.94051200  1
  H  127  1  0.66574600  0.56942300  0.53350500  1
  H  128  1  0.61360600  0.61517700  0.55394750  1
  H  129  1  0.81167800  0.63620050  0.54776950  1
  H  130  1  0.75957200  0.68205000  0.56814300  1
  H  131  1  0.62456400  0.71061900  0.54005650  1
  H  132  1  0.56410900  0.77718400  0.53985100  1
  H  133  1  0.59440200  0.74480000  0.59435550  1
  H  134  1  0.59258600  0.74453600  0.62703950  1
  H  135  1  0.70222100  0.60417600  0.59358350  1
  H  136  1  0.69171000  0.60035500  0.62905800  1
  H  137  1  0.56967600  0.60946400  0.65945150  1
  H  138  1  0.58854900  0.56351550  0.68569850  1
  H  139  1  0.72759400  0.66594650  0.66518250  1
  H  140  1  0.74658700  0.62003650  0.69129150  1
  H  141  1  0.60668400  0.70538000  0.68152150  1
  H  142  1  0.56373500  0.77938800  0.68140250  1
  H  143  1  0.49020100  0.88684800  0.59255050  1
  H  144  1  0.49683600  0.89019000  0.62813450  1
  H  145  1  0.61865500  0.87011600  0.66092650  1
  H  146  1  0.60335600  0.91899700  0.68631150  1
  H  147  1  0.45060300  0.83331300  0.66268350  1
  H  148  1  0.43538500  0.88237300  0.68826200  1
  H  149  1  0.42961000  0.80943000  0.56696050  1
  H  150  1  0.38060700  0.85707300  0.54645900  1
  H  151  1  0.53011800  0.92031200  0.53338300  1
  H  152  1  0.57914700  0.87274000  0.55393350  1
  H  205  1  0.03416300  0.57167050  0.03319250  1
  H  206  1  0.08596400  0.61765400  0.05370600  1
  H  207  1  0.88702500  0.63472400  0.04882750  1
  H  208  1  0.93878900  0.68078000  0.06928350  1
  H  209  1  0.07123400  0.71295800  0.04048800  1
  H  210  1  0.13182100  0.77961500  0.04019450  1
  H  211  1  0.10602500  0.74513700  0.09472550  1
  H  212  1  0.11323700  0.74306400  0.12743550  1
  H  213  1  0.00113900  0.60309400  0.09387700  1
  H  214  1  0.01230500  0.59914800  0.12932250  1
  H  215  1  0.13436300  0.61618600  0.16172250  1
  H  216  1  0.11639600  0.56935600  0.18774250  1
  H  217  1  0.96963800  0.66055200  0.16386800  1
  H  218  1  0.95168800  0.61392750  0.18987450  1
  H  219  1  0.08302700  0.70986750  0.18191400  1
  H  220  1  0.12578100  0.78399900  0.18174700  1
  H  221  1  0.21423500  0.88587800  0.09294450  1
  H  222  1  0.20839800  0.88900700  0.12855100  1
  H  223  1  0.09146700  0.88422350  0.15553150  1
  H  224  1  0.10650700  0.93316100  0.18085800  1
  H  225  1  0.24099800  0.82119700  0.16860800  1
  H  226  1  0.25563500  0.86995700  0.19428000  1
  H  227  1  0.26898900  0.80860200  0.06653800  1
  H  228  1  0.31850300  0.85592000  0.04597500  1
  H  229  1  0.17059300  0.92231700  0.03423350  1
  H  230  1  0.12108000  0.87510300  0.05485450  1
  H  283  1  0.03421700  0.42661750  0.46192900  1
  H  284  1  0.08645200  0.38089350  0.44150200  1
  H  285  1  0.88843900  0.35958650  0.44770650  1
  H  286  1  0.94065200  0.31376300  0.42735200  1
  H  287  1  0.07626900  0.28567500  0.45540250  1
  H  288  1  0.13685600  0.21918200  0.45559000  1
  H  289  1  0.10554700  0.25108950  0.40109950  1
  H  290  1  0.10747400  0.25146300  0.36841050  1
  H  291  1  0.99772800  0.39171850  0.40188450  1
  H  292  1  0.00829100  0.39560350  0.36641550  1
  H  293  1  0.13040700  0.38692300  0.33612300  1
  H  294  1  0.11148900  0.43288600  0.30988250  1
  H  295  1  0.97287000  0.32990700  0.33020550  1
  H  296  1  0.95383600  0.37581650  0.30410150  1
  H  297  1  0.09413300  0.29095700  0.31395450  1
  H  298  1  0.13718300  0.21697900  0.31405750  1
  H  299  1  0.20978300  0.10912200  0.40290450  1
  H  300  1  0.20311100  0.10577350  0.36731850  1
  H  301  1  0.08162300  0.12639400  0.33439150  1
  H  302  1  0.09689900  0.07749250  0.30901250  1
  H  303  1  0.24995100  0.16249200  0.33288950  1
  H  304  1  0.26514300  0.11341500  0.30731750  1
  H  305  1  0.27101000  0.18661900  0.42838000  1
  H  306  1  0.32005400  0.13900250  0.44887650  1
  H  307  1  0.17050800  0.07601650  0.46212800  1
  H  308  1  0.12143500  0.12356600  0.44158800  1
  H  320  1  0.75740800  0.44518100  0.71198650  1
  H  321  1  0.74502400  0.49231050  0.70304050  1
  H  323  1  0.71425700  0.39379550  0.75346750  1
  H  324  1  0.71672500  0.40171050  0.73090450  1
  H  326  1  0.66574200  0.60598450  0.74305150  1
  H  327  1  0.65535300  0.59685200  0.76526550  1
  H  329  1  0.70411000  0.51800200  0.79645650  1
  H  330  1  0.69933300  0.56620900  0.78778450  1
  H  332  1  0.75377500  0.43688450  0.78295950  1
  H  334  1  0.74444400  0.58007150  0.71896550  1
  H  342  1  0.50194300  0.93088800  0.78658550  1
  H  343  1  0.50821700  0.97886200  0.79544250  1
  H  345  1  0.47819900  0.89344100  0.74041900  1
  H  346  1  0.46511500  0.90107600  0.76257950  1
  H  348  1  0.53688800  0.10260300  0.75415950  1
  H  349  1  0.54144300  0.09643000  0.73152950  1
  H  351  1  0.56357000  0.00680200  0.70243150  1
  H  352  1  0.57826900  0.05303350  0.71188700  1
  H  354  1  0.57490600  0.92155500  0.72023550  1
  H  356  1  0.58458000  0.04907900  0.78184550  1
  H  364  1  0.94309200  0.55113900  0.28354550  1
  H  365  1  0.95532800  0.50398100  0.29248550  1
  H  367  1  0.98651300  0.60239500  0.24206000  1
  H  368  1  0.98397100  0.59453800  0.26463450  1
  H  370  1  0.03413100  0.39015350  0.25245300  1
  H  371  1  0.04457100  0.39927150  0.23024350  1
  H  373  1  0.99641300  0.47828600  0.19903650  1
  H  374  1  0.00113900  0.43008200  0.20767300  1
  H  376  1  0.94655300  0.55939850  0.21257400  1
  H  378  1  0.95560300  0.41627400  0.27658000  1
  H  386  1  0.19793000  0.06532750  0.20888200  1
  H  387  1  0.19176600  0.01734750  0.20000150  1
  H  389  1  0.22234700  0.10269200  0.25500550  1
  H  390  1  0.23532200  0.09504450  0.23283600  1
  H  392  1  0.16426900  0.89358100  0.24132450  1
  H  393  1  0.15991200  0.89983800  0.26397750  1
  H  395  1  0.13690500  0.98932000  0.29301950  1
  H  396  1  0.12230700  0.94307900  0.28355400  1
  H  398  1  0.12571000  0.07470500  0.27515000  1
  H  400  1  0.11597000  0.94679300  0.21366950  1
  H  408  1  0.84311200  0.59768650  0.97744150  1
  H  409  1  0.89101000  0.60281000  0.99321900  1
  H  411  1  0.74240700  0.51936550  0.96792150  1
  H  412  1  0.76678600  0.56656850  0.97287050  1
  H  414  1  0.95764700  0.47690300  0.02758300  1
  H  415  1  0.93326600  0.42970600  0.02262000  1
  H  417  1  0.80895400  0.39349000  0.00233550  1
  H  418  1  0.85683400  0.39867300  0.01811800  1
  H  420  1  0.72886700  0.44998250  0.98635600  1
  H  422  1  0.97116200  0.54628900  0.00915350  1
  H  430  1  0.84292900  0.39824750  0.51802550  1
  H  431  1  0.89118300  0.39340300  0.50239400  1
  H  433  1  0.74206300  0.47628500  0.52742200  1
  H  434  1  0.76666600  0.42918250  0.52256150  1
  H  436  1  0.95794000  0.51957400  0.46808950  1
  H  437  1  0.93331900  0.56666550  0.47296900  1
  H  439  1  0.80858300  0.60232700  0.49300200  1
  H  440  1  0.85683000  0.59744600  0.47736200  1
  H  442  1  0.72840100  0.54530350  0.50900450  1
  H  444  1  0.97151500  0.45050100  0.48648650  1
  H  452  1  0.35910900  0.09563200  0.51971550  1
  H  453  1  0.31158300  0.10266800  0.50395500  1
  H  455  1  0.45794100  0.01541600  0.52803750  1
  H  456  1  0.43469100  0.06330650  0.52388150  1
  H  458  1  0.24302100  0.98084800  0.46723100  1
  H  459  1  0.26626000  0.93295900  0.47135550  1
  H  461  1  0.38891700  0.89336500  0.49155100  1
  H  462  1  0.34134100  0.90029900  0.47582050  1
  H  464  1  0.46980300  0.94725850  0.50884150  1
  H  466  1  0.23092100  0.04890100  0.48658050  1
  H  474  1  0.35771700  0.90003300  0.97583400  1
  H  475  1  0.31024300  0.89338900  0.99164400  1
  H  477  1  0.45730500  0.97978100  0.96718300  1
  H  478  1  0.43350200  0.93204800  0.97143800  1
  H  480  1  0.24342300  0.01591600  0.02813350  1
  H  481  1  0.26722700  0.06365450  0.02383750  1
  H  483  1  0.39058300  0.10231300  0.00375350  1
  H  484  1  0.34308500  0.09566400  0.01954050  1
  H  486  1  0.47043900  0.04781000  0.98625100  1
  H  488  1  0.23040400  0.94781900  0.00911550  1
  N  4  1  0.59561800  0.25066400  0.91422300  1
  N  8  1  0.63783300  0.31170050  0.88419200  1
  N  14  1  0.59035100  0.25168700  0.85463250  1
  N  20  1  0.54909200  0.19027600  0.88452100  1
  N  75  1  0.50932100  0.06564150  0.79022050  1
  N  76  1  0.67383700  0.43525300  0.78953950  1
  N  77  1  0.77661700  0.42283200  0.96703600  1
  N  78  1  0.42060500  0.07596900  0.96779000  1
  N  82  1  0.59395100  0.74431600  0.58089150  1
  N  86  1  0.63637600  0.68338500  0.61086600  1
  N  92  1  0.59007500  0.74376200  0.64047300  1
  N  98  1  0.54758700  0.80464500  0.61064850  1
  N  153  1  0.50844500  0.93075000  0.70437950  1
  N  154  1  0.67525000  0.56210100  0.70602950  1
  N  155  1  0.77604600  0.57319600  0.52819550  1
  N  156  1  0.42003100  0.91966400  0.52751550  1
  N  160  1  0.10486500  0.74540300  0.08126350  1
  N  164  1  0.06255900  0.68445400  0.11131100  1
  N  170  1  0.11032300  0.74440100  0.14085950  1
  N  176  1  0.15144900  0.80581600  0.11094950  1
  N  231  1  0.19127000  0.93057100  0.20521250  1
  N  232  1  0.02648500  0.56099650  0.20598200  1
  N  233  1  0.92346300  0.57341850  0.02849450  1
  N  234  1  0.28018600  0.91980400  0.02763450  1
  N  238  1  0.10642400  0.25177900  0.41456050  1
  N  242  1  0.06383800  0.31264900  0.38459800  1
  N  248  1  0.11039300  0.25240100  0.35498850  1
  N  254  1  0.15298300  0.19155350  0.38479300  1
  N  309  1  0.19196500  0.06535250  0.29108550  1
  N  310  1  0.02496800  0.43404400  0.28946300  1
  N  311  1  0.92393900  0.42268200  0.46725550  1
  N  312  1  0.28064500  0.07654950  0.46790750  1
  N  319  1  0.74014100  0.47295900  0.71357850  1
  N  322  1  0.71947300  0.41419100  0.74331600  1
  N  325  1  0.67274100  0.58744100  0.75373850  1
  N  328  1  0.69776600  0.53561150  0.78544350  1
  N  341  1  0.50513300  0.96138400  0.78422750  1
  N  344  1  0.48463800  0.91084900  0.75151450  1
  N  347  1  0.54241100  0.08292400  0.74376250  1
  N  350  1  0.56066300  0.02530500  0.71332750  1
  N  363  1  0.96026000  0.52332800  0.28194800  1
  N  366  1  0.98104800  0.58207500  0.25222750  1
  N  369  1  0.02722100  0.40872450  0.24176950  1
  N  372  1  0.00239300  0.46066500  0.21007250  1
  N  385  1  0.19512700  0.03479850  0.21121500  1
  N  388  1  0.21583500  0.08528950  0.24391300  1
  N  391  1  0.15831200  0.91317700  0.25171900  1
  N  394  1  0.13984100  0.97084500  0.28211700  1
  N  407  1  0.86154300  0.58513600  0.98814350  1
  N  410  1  0.77174300  0.53586300  0.97378650  1
  N  413  1  0.92829600  0.46041500  0.02172100  1
  N  416  1  0.83842800  0.41117400  0.00739750  1
  N  429  1  0.86166100  0.41100700  0.50742150  1
  N  432  1  0.77150900  0.45990350  0.52160950  1
  N  435  1  0.92845700  0.53593800  0.47389000  1
  N  438  1  0.83820600  0.58477800  0.48800650  1
  N  451  1  0.34061900  0.08426550  0.50876750  1
  N  454  1  0.42900700  0.03276900  0.52246150  1
  N  457  1  0.27184900  0.96348400  0.47286450  1
  N  460  1  0.36005700  0.91186200  0.48668450  1
  N  473  1  0.33946600  0.91160300  0.98677300  1
  N  476  1  0.42828300  0.96262200  0.97286300  1
  N  479  1  0.27254000  0.03306800  0.02251100  1
  N  482  1  0.36145300  0.08402200  0.00863550  1
