# generated using pymatgen
data_H24C45(SN6)2
_symmetry_space_group_name_H-M   'P 1'
_cell_length_a   30.10770000
_cell_length_b   54.75870000
_cell_length_c   57.51650000
_cell_angle_alpha   90.00000000
_cell_angle_beta   90.00000000
_cell_angle_gamma   90.00040000
_symmetry_Int_Tables_number   1
_chemical_formula_structural   H24C45(SN6)2
_chemical_formula_sum   'H192 C360 S16 N96'
_cell_volume   94825.06730256
_cell_formula_units_Z   8
loop_
 _symmetry_equiv_pos_site_id
 _symmetry_equiv_pos_as_xyz
  1  'x, y, z'
loop_
 _atom_site_type_symbol
 _atom_site_label
 _atom_site_symmetry_multiplicity
 _atom_site_fract_x
 _atom_site_fract_y
 _atom_site_fract_z
 _atom_site_occupancy
  H  26  1  0.20449200  0.08251000  0.09550800  1
  H  27  1  0.19674500  0.07080700  0.13477100  1
  H  28  1  0.33315600  0.10915000  0.10966000  1
  H  29  1  0.32570600  0.09677100  0.14909700  1
  H  30  1  0.32108900  0.09566800  0.19975500  1
  H  31  1  0.31102800  0.13203300  0.22137700  1
  H  32  1  0.18050500  0.13782700  0.19551400  1
  H  33  1  0.19042900  0.10124500  0.17426700  1
  H  34  1  0.19056000  0.06443900  0.20376400  1
  H  35  1  0.12948900  0.03703700  0.20346900  1
  H  36  1  0.18487700  0.00054200  0.14577500  1
  H  37  1  0.24471800  0.02830500  0.14557900  1
  H  38  1  0.32556500  0.04728300  0.14224000  1
  H  39  1  0.28982900  0.05181600  0.21291600  1
  H  40  1  0.35113000  0.02643900  0.22266000  1
  H  41  1  0.38667600  0.02263300  0.15182000  1
  H  44  1  0.20566400  0.16641900  0.22470800  1
  H  45  1  0.29679900  0.11533600  0.07070800  1
  H  47  1  0.10718100  0.99387300  0.15642100  1
  H  49  1  0.41993600  0.00554100  0.21111000  1
  H  75  1  0.31836900  0.08246600  0.92510000  1
  H  76  1  0.32537800  0.07086200  0.88576400  1
  H  77  1  0.18913600  0.10872300  0.91179400  1
  H  78  1  0.19580200  0.09640600  0.87226700  1
  H  79  1  0.19995700  0.09576000  0.82156300  1
  H  80  1  0.20975800  0.13219100  0.80000400  1
  H  81  1  0.34075200  0.13775100  0.82524700  1
  H  82  1  0.33106200  0.10112100  0.84643800  1
  H  83  1  0.33071000  0.06437800  0.81702500  1
  H  84  1  0.39196400  0.03708100  0.81732200  1
  H  85  1  0.33689400  0.00055300  0.87507800  1
  H  86  1  0.27689600  0.02819700  0.87527400  1
  H  87  1  0.19625000  0.04694400  0.87871700  1
  H  88  1  0.23128000  0.05196800  0.80798200  1
  H  89  1  0.17004800  0.02654700  0.79825000  1
  H  90  1  0.13521200  0.02221600  0.86916000  1
  H  93  1  0.31519600  0.16653100  0.79636700  1
  H  94  1  0.22892500  0.11602400  0.95041600  1
  H  96  1  0.41470700  0.99416300  0.86449100  1
  H  98  1  0.10158400  0.00539500  0.80983800  1
  H  124  1  0.70454500  0.84950300  0.92554400  1
  H  125  1  0.69669700  0.86122600  0.88632200  1
  H  126  1  0.83288100  0.82251800  0.91120300  1
  H  127  1  0.82537100  0.83496900  0.87178500  1
  H  128  1  0.82056200  0.83668700  0.82060500  1
  H  129  1  0.81051100  0.80040100  0.79887400  1
  H  130  1  0.68088600  0.79372800  0.82576500  1
  H  131  1  0.69076400  0.83023900  0.84711400  1
  H  132  1  0.68946600  0.86695800  0.81753400  1
  H  133  1  0.62741300  0.89375800  0.81845100  1
  H  134  1  0.68362100  0.93080500  0.87558600  1
  H  135  1  0.74457600  0.90372100  0.87514100  1
  H  136  1  0.82605600  0.88429600  0.87855700  1
  H  137  1  0.78857100  0.88065100  0.80809900  1
  H  138  1  0.84930300  0.90635800  0.79826300  1
  H  139  1  0.88666200  0.90924200  0.86887800  1
  H  142  1  0.70558700  0.76563200  0.79598900  1
  H  143  1  0.79654500  0.81635400  0.95021600  1
  H  145  1  0.60213100  0.93315200  0.86652000  1
  H  147  1  0.91352300  0.93070900  0.80982500  1
  H  173  1  0.81814100  0.84959100  0.09577600  1
  H  174  1  0.82533500  0.86127300  0.13505200  1
  H  175  1  0.68943600  0.82277900  0.10943700  1
  H  176  1  0.69623500  0.83523200  0.14892200  1
  H  177  1  0.70053000  0.83670500  0.20020200  1
  H  178  1  0.71033700  0.80038800  0.22192400  1
  H  179  1  0.84030100  0.79379200  0.19547300  1
  H  180  1  0.83065600  0.83032300  0.17413100  1
  H  181  1  0.83178200  0.86698700  0.20368100  1
  H  182  1  0.89401900  0.89367700  0.20281000  1
  H  183  1  0.83825300  0.93078000  0.14559000  1
  H  184  1  0.77712500  0.90382300  0.14599400  1
  H  185  1  0.69567400  0.88448600  0.14240000  1
  H  186  1  0.73258800  0.88063400  0.21293200  1
  H  187  1  0.67191300  0.90640600  0.22269300  1
  H  188  1  0.63512200  0.90951800  0.15200300  1
  H  191  1  0.81528000  0.76562600  0.22507600  1
  H  192  1  0.72880800  0.81562400  0.07071500  1
  H  194  1  0.91990300  0.93271000  0.15465100  1
  H  196  1  0.60793000  0.93088400  0.21105400  1
  H  222  1  0.70398700  0.58345600  0.59558600  1
  H  223  1  0.69638400  0.57155800  0.63482200  1
  H  224  1  0.83339600  0.60912300  0.60951400  1
  H  225  1  0.82607900  0.59657600  0.64889600  1
  H  226  1  0.82186400  0.59568800  0.69904300  1
  H  227  1  0.81227900  0.63186500  0.72102800  1
  H  228  1  0.68078500  0.63754100  0.69653600  1
  H  229  1  0.69029300  0.60116500  0.67484000  1
  H  230  1  0.69120000  0.56408200  0.70385100  1
  H  231  1  0.63009900  0.53667300  0.70356500  1
  H  232  1  0.68421700  0.50103300  0.64506400  1
  H  233  1  0.74406600  0.52877800  0.64488800  1
  H  234  1  0.82500200  0.54715500  0.64183900  1
  H  235  1  0.79014800  0.55181400  0.71262500  1
  H  236  1  0.85139700  0.52633300  0.72219500  1
  H  237  1  0.88608600  0.52238500  0.65124300  1
  H  240  1  0.70634300  0.66438200  0.72776200  1
  H  241  1  0.79674100  0.61576500  0.57069600  1
  H  243  1  0.60693100  0.49407300  0.65610800  1
  H  245  1  0.91985500  0.50527300  0.71047300  1
  H  271  1  0.81890500  0.58348200  0.42502400  1
  H  272  1  0.82577000  0.57169900  0.38571000  1
  H  273  1  0.68883500  0.60862300  0.41199700  1
  H  274  1  0.69538500  0.59614800  0.37250500  1
  H  275  1  0.69916100  0.59580500  0.32236500  1
  H  276  1  0.70847800  0.63204000  0.30042200  1
  H  277  1  0.84050800  0.63741700  0.32416800  1
  H  278  1  0.83124400  0.60100800  0.34583100  1
  H  279  1  0.83000100  0.56397100  0.31693700  1
  H  280  1  0.89128800  0.53666900  0.31721900  1
  H  281  1  0.83764600  0.50110200  0.37588000  1
  H  282  1  0.77763600  0.52872300  0.37605400  1
  H  283  1  0.69687600  0.54677900  0.37913000  1
  H  284  1  0.73095700  0.55202000  0.30827500  1
  H  285  1  0.66974300  0.52651700  0.29870600  1
  H  286  1  0.63584100  0.52195000  0.36972900  1
  H  289  1  0.81450800  0.66446100  0.29327100  1
  H  290  1  0.72895100  0.61643700  0.45046900  1
  H  292  1  0.91499500  0.49437100  0.36483800  1
  H  294  1  0.60169300  0.50515300  0.31045700  1
  H  320  1  0.20409200  0.34852700  0.42547300  1
  H  321  1  0.19634000  0.36043600  0.38627700  1
  H  322  1  0.33317800  0.32252200  0.41131900  1
  H  323  1  0.32574100  0.33515000  0.37194600  1
  H  324  1  0.32136600  0.33669000  0.32130400  1
  H  325  1  0.31181500  0.30059700  0.29919600  1
  H  326  1  0.18117500  0.29399900  0.32471600  1
  H  327  1  0.19061700  0.33029600  0.34653000  1
  H  328  1  0.19007700  0.36729700  0.31743900  1
  H  329  1  0.12796600  0.39408300  0.31833800  1
  H  330  1  0.18292600  0.43029300  0.37629000  1
  H  331  1  0.24392200  0.40323500  0.37582600  1
  H  332  1  0.32548200  0.38441200  0.37895400  1
  H  333  1  0.28883400  0.38066100  0.30837800  1
  H  334  1  0.34956000  0.40644500  0.29871300  1
  H  335  1  0.38610300  0.40944700  0.36944400  1
  H  338  1  0.20632000  0.26763600  0.29297000  1
  H  339  1  0.29648500  0.31587300  0.45022100  1
  H  341  1  0.10189200  0.43304900  0.36675800  1
  H  343  1  0.41349500  0.43090000  0.31045200  1
  H  369  1  0.31859500  0.34860200  0.59580700  1
  H  370  1  0.32571600  0.36044100  0.63506300  1
  H  371  1  0.18911400  0.32281300  0.60926900  1
  H  372  1  0.19587200  0.33541900  0.64871700  1
  H  373  1  0.19978100  0.33670300  0.69945700  1
  H  374  1  0.20909200  0.30058800  0.72156900  1
  H  375  1  0.34006600  0.29406800  0.69650700  1
  H  376  1  0.33085900  0.33037500  0.67468700  1
  H  377  1  0.33118200  0.36732100  0.70374300  1
  H  378  1  0.39347300  0.39399800  0.70289900  1
  H  379  1  0.33896200  0.43028400  0.64487600  1
  H  380  1  0.27779800  0.40334400  0.64528500  1
  H  381  1  0.19629900  0.38462700  0.64198500  1
  H  382  1  0.23234500  0.38061300  0.71263400  1
  H  383  1  0.17167100  0.40645600  0.72223500  1
  H  384  1  0.13573600  0.40974100  0.65142900  1
  H  387  1  0.31458500  0.26764100  0.72808700  1
  H  388  1  0.22891800  0.31513700  0.57066300  1
  H  390  1  0.42016400  0.43262500  0.65441400  1
  H  392  1  0.10799800  0.43106600  0.71042600  1
  H  402  1  0.24344500  0.00738300  0.98993700  1
  H  403  1  0.24240900  0.00796900  0.03263000  1
  H  419  1  0.74482500  0.92433700  0.03118500  1
  H  420  1  0.74389200  0.92383900  0.98849100  1
  H  436  1  0.74359100  0.50785400  0.48992900  1
  H  437  1  0.74230900  0.50844500  0.53262000  1
  H  453  1  0.24494200  0.42386100  0.53116100  1
  H  454  1  0.24386400  0.42335400  0.48846700  1
  H  470  1  0.91473900  0.00469700  0.13403600  1
  H  471  1  0.98206500  0.03002900  0.13442900  1
  H  487  1  0.60719700  0.00524500  0.88651500  1
  H  488  1  0.53989600  0.03059300  0.88597600  1
  H  504  1  0.10296700  0.93551500  0.89985900  1
  H  505  1  0.03796900  0.90842200  0.89960100  1
  H  521  1  0.41875900  0.93589300  0.12093800  1
  H  522  1  0.48379500  0.90882700  0.12114500  1
  H  538  1  0.41455800  0.50478600  0.63403400  1
  H  539  1  0.48187700  0.53012600  0.63441700  1
  H  555  1  0.10739900  0.50530400  0.38653300  1
  H  556  1  0.04011100  0.53066500  0.38601800  1
  H  572  1  0.60325700  0.43511100  0.40024400  1
  H  573  1  0.53814400  0.40810000  0.39999000  1
  H  589  1  0.91858800  0.43553400  0.62049200  1
  H  590  1  0.98371400  0.40853200  0.62071800  1
  H  606  1  0.17283500  0.23327300  0.19767600  1
  H  607  1  0.17345800  0.27069100  0.22121700  1
  H  623  1  0.34783400  0.23339100  0.82341300  1
  H  624  1  0.34722400  0.27079500  0.79985100  1
  H  640  1  0.67326200  0.69871600  0.82310000  1
  H  641  1  0.67392900  0.66130100  0.79955400  1
  H  657  1  0.84735100  0.69868700  0.19789500  1
  H  658  1  0.84666900  0.66127600  0.22144600  1
  C  1  1  0.37615300  0.02223100  0.18835300  1
  C  2  1  0.34679200  0.03119300  0.20559700  1
  C  3  1  0.31055100  0.04637900  0.19981100  1
  C  4  1  0.30235700  0.05432100  0.17666600  1
  C  5  1  0.33116200  0.04428800  0.15949300  1
  C  6  1  0.36722200  0.02900100  0.16509600  1
  C  7  1  0.26091700  0.06968800  0.17085600  1
  C  8  1  0.22357100  0.05065100  0.17376900  1
  C  9  1  0.22133000  0.03036000  0.15830900  1
  C  10  1  0.18555900  0.01384900  0.15828800  1
  C  11  1  0.15037800  0.01609100  0.17440600  1
  C  12  1  0.15397000  0.03476800  0.19131700  1
  C  13  1  0.18998400  0.05135000  0.19115400  1
  C  14  1  0.25578000  0.09296100  0.18574000  1
  C  15  1  0.26207000  0.08027800  0.14606000  1
  C  16  1  0.22641400  0.07823400  0.12992100  1
  C  17  1  0.23064300  0.08544500  0.10654200  1
  C  18  1  0.27038400  0.09606800  0.09828600  1
  C  19  1  0.30412200  0.10099900  0.11473100  1
  C  20  1  0.29959000  0.09368600  0.13811200  1
  C  21  1  0.29044000  0.10359000  0.19923300  1
  C  22  1  0.28486700  0.12558100  0.21182300  1
  C  23  1  0.24435100  0.13868500  0.21126300  1
  C  24  1  0.21027600  0.12892600  0.19704600  1
  C  25  1  0.21615900  0.10705500  0.18447100  1
  C  42  1  0.27640700  0.10176500  0.07490400  1
  C  43  1  0.41206700  0.00724800  0.19439800  1
  C  46  1  0.11309600  0.00107900  0.17204100  1
  C  48  1  0.23678100  0.16037900  0.22375000  1
  C  50  1  0.14537100  0.02207300  0.83259800  1
  C  51  1  0.17450900  0.03120500  0.81533000  1
  C  52  1  0.21071000  0.04641900  0.82111100  1
  C  53  1  0.21906700  0.05424900  0.84427500  1
  C  54  1  0.19048900  0.04404800  0.86146300  1
  C  55  1  0.15448200  0.02871700  0.85586800  1
  C  56  1  0.26053400  0.06959400  0.85006100  1
  C  57  1  0.29784000  0.05054800  0.84704300  1
  C  58  1  0.30021200  0.03026700  0.86251100  1
  C  59  1  0.33609000  0.01383200  0.86254100  1
  C  60  1  0.37124800  0.01613600  0.84641700  1
  C  61  1  0.36749500  0.03477100  0.82947400  1
  C  62  1  0.33137300  0.05128500  0.82963200  1
  C  63  1  0.26551700  0.09291300  0.83522700  1
  C  64  1  0.25966700  0.08009200  0.87489500  1
  C  65  1  0.29571400  0.07815100  0.89081100  1
  C  66  1  0.29193500  0.08529500  0.91422500  1
  C  67  1  0.25226400  0.09576500  0.92271700  1
  C  68  1  0.21806900  0.10060800  0.90651900  1
  C  69  1  0.22216000  0.09334400  0.88309700  1
  C  70  1  0.23064200  0.10365000  0.82196300  1
  C  71  1  0.23606800  0.12567800  0.80940600  1
  C  72  1  0.27664800  0.13873000  0.80979200  1
  C  73  1  0.31092000  0.12889100  0.82383000  1
  C  74  1  0.30517700  0.10698400  0.83637100  1
  C  91  1  0.24701200  0.10151700  0.94610300  1
  C  92  1  0.10949300  0.00706400  0.82654800  1
  C  95  1  0.40865600  0.00123100  0.84882800  1
  C  97  1  0.28410500  0.16045100  0.79732100  1
  C  99  1  0.87544600  0.91000100  0.83240700  1
  C  100  1  0.84557000  0.90128700  0.81528500  1
  C  101  1  0.80963200  0.88591000  0.82112500  1
  C  102  1  0.80201900  0.87764300  0.84422100  1
  C  103  1  0.83126800  0.88746600  0.86130100  1
  C  104  1  0.86715900  0.90285400  0.85563100  1
  C  105  1  0.76067400  0.86221200  0.85009000  1
  C  106  1  0.72307900  0.88111100  0.84720900  1
  C  107  1  0.72085700  0.90145700  0.86260900  1
  C  108  1  0.68445800  0.91753800  0.86303400  1
  C  109  1  0.64879600  0.91482400  0.84729800  1
  C  110  1  0.65239000  0.89629600  0.83027500  1
  C  111  1  0.68897800  0.88009600  0.83010000  1
  C  112  1  0.75564200  0.83894600  0.83518700  1
  C  113  1  0.76192300  0.85166000  0.87491300  1
  C  114  1  0.72637400  0.85376900  0.89111700  1
  C  115  1  0.73063500  0.84651900  0.91448100  1
  C  116  1  0.77030900  0.83578000  0.92268000  1
  C  117  1  0.80392800  0.83078900  0.90618400  1
  C  118  1  0.79935800  0.83814800  0.88281300  1
  C  119  1  0.79009500  0.82858100  0.82136600  1
  C  120  1  0.78454100  0.80664100  0.80869400  1
  C  121  1  0.74427900  0.79331900  0.80950500  1
  C  122  1  0.71045700  0.80279300  0.82405300  1
  C  123  1  0.71632600  0.82461800  0.83669900  1
  C  140  1  0.77630400  0.83000300  0.94605200  1
  C  141  1  0.91045100  0.92564700  0.82633900  1
  C  144  1  0.61095900  0.92914700  0.85027500  1
  C  146  1  0.73669900  0.77168700  0.79693700  1
  C  148  1  0.64606900  0.91018000  0.18849900  1
  C  149  1  0.67574900  0.90136900  0.20566800  1
  C  150  1  0.71165000  0.88595100  0.19987300  1
  C  151  1  0.71941200  0.87773600  0.17677200  1
  C  152  1  0.69034000  0.88763100  0.15965000  1
  C  153  1  0.65449600  0.90307100  0.16527600  1
  C  154  1  0.76079000  0.86230500  0.17097700  1
  C  155  1  0.79836200  0.88120200  0.17397500  1
  C  156  1  0.80070700  0.90156400  0.15859600  1
  C  157  1  0.83725600  0.91754000  0.15816700  1
  C  158  1  0.87285900  0.91475300  0.17392600  1
  C  159  1  0.86908900  0.89625000  0.19096100  1
  C  160  1  0.83238000  0.88013200  0.19112600  1
  C  161  1  0.76563300  0.83900800  0.18585600  1
  C  162  1  0.75983700  0.85181300  0.14612600  1
  C  163  1  0.79569800  0.85388600  0.13010200  1
  C  164  1  0.79182500  0.84668000  0.10671100  1
  C  165  1  0.75226400  0.83599100  0.09833100  1
  C  166  1  0.71830600  0.83101500  0.11463100  1
  C  167  1  0.72248400  0.83835100  0.13803500  1
  C  168  1  0.73101300  0.82860800  0.19953900  1
  C  169  1  0.73642400  0.80664600  0.21220000  1
  C  170  1  0.77671200  0.79334100  0.21152000  1
  C  171  1  0.81069700  0.80284400  0.19709300  1
  C  172  1  0.80497100  0.82468400  0.18445200  1
  C  189  1  0.74696300  0.83012200  0.07496400  1
  C  190  1  0.61110200  0.92586600  0.19453400  1
  C  193  1  0.91085200  0.92893400  0.17091400  1
  C  195  1  0.78418500  0.77170200  0.22410400  1
  C  197  1  0.87600600  0.52205000  0.68781200  1
  C  198  1  0.84687700  0.53106600  0.70513700  1
  C  199  1  0.81066100  0.54631000  0.69945500  1
  C  200  1  0.80228100  0.55426600  0.67633300  1
  C  201  1  0.83076500  0.54412900  0.65907400  1
  C  202  1  0.86681900  0.52879300  0.66457500  1
  C  203  1  0.76091900  0.56974300  0.67065800  1
  C  204  1  0.72353000  0.55072200  0.67348500  1
  C  205  1  0.72097900  0.53064100  0.65779400  1
  C  206  1  0.68518700  0.51414100  0.65776100  1
  C  207  1  0.65035200  0.51614400  0.67411300  1
  C  208  1  0.65429200  0.53459800  0.69122500  1
  C  209  1  0.69030600  0.55118400  0.69106500  1
  C  210  1  0.75606000  0.59292500  0.68568400  1
  C  211  1  0.76203600  0.58053200  0.64595200  1
  C  212  1  0.72614400  0.57884100  0.62992200  1
  C  213  1  0.73029600  0.58616100  0.60656900  1
  C  214  1  0.77021600  0.59653200  0.59826000  1
  C  215  1  0.80423800  0.60113900  0.61462700  1
  C  216  1  0.79974700  0.59376500  0.63798900  1
  C  217  1  0.79117800  0.60358800  0.69882200  1
  C  218  1  0.78592700  0.62549500  0.71157000  1
  C  219  1  0.74528300  0.63847900  0.71149700  1
  C  220  1  0.71072700  0.62874200  0.69760400  1
  C  221  1  0.71634600  0.60697900  0.68481300  1
  C  238  1  0.77617500  0.60227500  0.57489100  1
  C  239  1  0.91195600  0.50705500  0.69377000  1
  C  242  1  0.61302600  0.50115300  0.67176100  1
  C  244  1  0.73775000  0.65962100  0.72477300  1
  C  246  1  0.64554000  0.52191300  0.33313100  1
  C  247  1  0.67442600  0.53112100  0.31578300  1
  C  248  1  0.71060600  0.54638600  0.32146600  1
  C  249  1  0.71919900  0.55416400  0.34461800  1
  C  250  1  0.69091700  0.54388300  0.36189300  1
  C  251  1  0.65492300  0.52850400  0.35638700  1
  C  252  1  0.76054100  0.56965200  0.35028700  1
  C  253  1  0.79790000  0.55062500  0.34737000  1
  C  254  1  0.80062600  0.53058100  0.36309900  1
  C  255  1  0.83653400  0.51416300  0.36314300  1
  C  256  1  0.87129300  0.51619400  0.34675300  1
  C  257  1  0.86714400  0.53457400  0.32958000  1
  C  258  1  0.83102400  0.55109400  0.32974000  1
  C  259  1  0.76523400  0.59288700  0.33532100  1
  C  260  1  0.75969700  0.58036100  0.37502800  1
  C  261  1  0.79601400  0.57883200  0.39081500  1
  C  262  1  0.79230400  0.58606600  0.41420700  1
  C  263  1  0.75243300  0.59623900  0.42276800  1
  C  264  1  0.71793700  0.60074100  0.40666100  1
  C  265  1  0.72195600  0.59338500  0.38326400  1
  C  266  1  0.72988800  0.60366300  0.32243600  1
  C  267  1  0.73499300  0.62559700  0.30970800  1
  C  268  1  0.77572000  0.63850500  0.30956200  1
  C  269  1  0.81049200  0.62867300  0.32324700  1
  C  270  1  0.80502200  0.60688600  0.33601700  1
  C  287  1  0.74724600  0.60201200  0.44614500  1
  C  288  1  0.60963200  0.50689100  0.32716000  1
  C  291  1  0.90874800  0.50131000  0.34914300  1
  C  293  1  0.78312400  0.65967200  0.29628900  1
  C  295  1  0.37529500  0.41015400  0.33293800  1
  C  296  1  0.34563500  0.40140100  0.31572900  1
  C  297  1  0.30970500  0.38597700  0.32146400  1
  C  298  1  0.30188600  0.37772400  0.34454500  1
  C  299  1  0.33089500  0.38758200  0.36171400  1
  C  300  1  0.36676900  0.40302500  0.35614300  1
  C  301  1  0.26066600  0.36214700  0.35028400  1
  C  302  1  0.22299900  0.38101700  0.34749900  1
  C  303  1  0.22043600  0.40113800  0.36315000  1
  C  304  1  0.18402000  0.41720900  0.36357200  1
  C  305  1  0.14867000  0.41470700  0.34761200  1
  C  306  1  0.15263600  0.39641600  0.33037700  1
  C  307  1  0.18926300  0.38023900  0.33018400  1
  C  308  1  0.25593100  0.33896900  0.33524100  1
  C  309  1  0.26189000  0.35138200  0.37501300  1
  C  310  1  0.22610500  0.35311600  0.39111200  1
  C  311  1  0.23033200  0.34577900  0.41445300  1
  C  312  1  0.27019600  0.33528900  0.42269500  1
  C  313  1  0.30408300  0.33062000  0.40626600  1
  C  314  1  0.29954300  0.33806100  0.38292000  1
  C  315  1  0.29085500  0.32860300  0.32175100  1
  C  316  1  0.28563700  0.30674900  0.30891700  1
  C  317  1  0.24524800  0.29353300  0.30924400  1
  C  318  1  0.21092100  0.30297300  0.32346900  1
  C  319  1  0.21650900  0.32468100  0.33634000  1
  C  336  1  0.27617300  0.32949100  0.44605100  1
  C  337  1  0.41034300  0.42580100  0.32695300  1
  C  340  1  0.11082600  0.42905500  0.35052200  1
  C  342  1  0.23772300  0.27244400  0.29590500  1
  C  344  1  0.14625700  0.41032600  0.68796100  1
  C  345  1  0.17572000  0.40146700  0.70521200  1
  C  346  1  0.21161000  0.38600100  0.69951400  1
  C  347  1  0.21958800  0.37781600  0.67642700  1
  C  348  1  0.19078300  0.38777600  0.65922000  1
  C  349  1  0.15493700  0.40325500  0.66475400  1
  C  350  1  0.26082400  0.36223100  0.67074300  1
  C  351  1  0.29847400  0.38109600  0.67364400  1
  C  352  1  0.30119800  0.40122000  0.65800100  1
  C  353  1  0.33773300  0.41720500  0.65759600  1
  C  354  1  0.37300300  0.41463900  0.67359500  1
  C  355  1  0.36884800  0.39637900  0.69084600  1
  C  356  1  0.33211600  0.38027000  0.69100700  1
  C  357  1  0.26538300  0.33900500  0.68573700  1
  C  358  1  0.25987700  0.35153300  0.64598400  1
  C  359  1  0.29596800  0.35322200  0.63006300  1
  C  360  1  0.29213500  0.34591900  0.60669700  1
  C  361  1  0.25237100  0.33550300  0.59827400  1
  C  362  1  0.21814700  0.33084800  0.61450200  1
  C  363  1  0.22227400  0.33830200  0.63786900  1
  C  364  1  0.23030400  0.32862200  0.69910600  1
  C  365  1  0.23538100  0.30675500  0.71194000  1
  C  366  1  0.27579100  0.29355300  0.71174900  1
  C  367  1  0.31028300  0.30302200  0.69764900  1
  C  368  1  0.30483200  0.32473600  0.68476700  1
  C  385  1  0.24705600  0.32964100  0.57491700  1
  C  386  1  0.11123600  0.42600200  0.69391800  1
  C  389  1  0.41099400  0.42885400  0.67066200  1
  C  391  1  0.28320200  0.27246300  0.72511400  1
  C  393  1  0.26063200  0.08927200  0.03548100  1
  C  394  1  0.25556000  0.06710500  0.02304800  1
  C  395  1  0.25616300  0.06674900  0.99823100  1
  C  396  1  0.26073500  0.08863300  0.98533000  1
  C  397  1  0.26574400  0.11058400  0.99799800  1
  C  399  1  0.24671100  0.02337800  0.99890500  1
  C  400  1  0.24607200  0.02371500  0.02331200  1
  C  404  1  0.26547500  0.11092400  0.02230000  1
  C  410  1  0.76057400  0.84244500  0.98550900  1
  C  411  1  0.75588100  0.86461300  0.99797800  1
  C  412  1  0.75641900  0.86491600  0.02279700  1
  C  413  1  0.76053100  0.84298400  0.03566900  1
  C  414  1  0.76511400  0.82102800  0.02296100  1
  C  416  1  0.74780700  0.90834100  0.02219100  1
  C  417  1  0.74722900  0.90805500  0.99778400  1
  C  421  1  0.76492800  0.82074100  0.99865500  1
  C  427  1  0.76051800  0.58975100  0.53548700  1
  C  428  1  0.75551900  0.56757900  0.52305200  1
  C  429  1  0.75626900  0.56721900  0.49823600  1
  C  430  1  0.76092000  0.58910300  0.48534400  1
  C  431  1  0.76585900  0.61105500  0.49801400  1
  C  433  1  0.74680600  0.52384900  0.49890100  1
  C  434  1  0.74602900  0.52418900  0.52330600  1
  C  438  1  0.76544000  0.61140100  0.52231300  1
  C  444  1  0.26050700  0.34195500  0.48549000  1
  C  445  1  0.25587000  0.36412800  0.49795600  1
  C  446  1  0.25649600  0.36443700  0.52277400  1
  C  447  1  0.26064700  0.34250400  0.53564100  1
  C  448  1  0.26519200  0.32054400  0.52293700  1
  C  450  1  0.24788700  0.40786400  0.52216700  1
  C  451  1  0.24722800  0.40757200  0.49776000  1
  C  455  1  0.26490600  0.32025200  0.49863500  1
  C  461  1  0.04897500  0.98236400  0.18733900  1
  C  462  1  0.01262200  0.98815500  0.17264500  1
  C  463  1  0.97357800  0.97331000  0.17235700  1
  C  464  1  0.97016700  0.95222500  0.18667500  1
  C  465  1  0.00630300  0.94720500  0.20156000  1
  C  467  1  0.94117100  0.00031000  0.14434800  1
  C  468  1  0.97965100  0.01477900  0.14456700  1
  C  472  1  0.04443200  0.96178700  0.20189500  1
  C  478  1  0.47271200  0.98243700  0.83356500  1
  C  479  1  0.50913800  0.98836200  0.84816400  1
  C  480  1  0.54816500  0.97350400  0.84854100  1
  C  481  1  0.55148300  0.95227200  0.83441300  1
  C  482  1  0.51527600  0.94712300  0.81961400  1
  C  484  1  0.58071800  0.00076700  0.87627400  1
  C  485  1  0.54224400  0.01524000  0.87597500  1
  C  489  1  0.47716600  0.96171600  0.81919300  1
  C  495  1  0.97514900  0.94797200  0.83972100  1
  C  496  1  0.01003300  0.94465500  0.85596200  1
  C  497  1  0.04785800  0.96041000  0.85611600  1
  C  498  1  0.05180800  0.97985300  0.83999800  1
  C  499  1  0.01609500  0.98335600  0.82436400  1
  C  501  1  0.07793000  0.93789800  0.88810000  1
  C  502  1  0.04077600  0.92240900  0.88795100  1
  C  506  1  0.97899200  0.96794800  0.82423500  1
  C  512  1  0.54652700  0.94826000  0.18112000  1
  C  513  1  0.51165900  0.94496800  0.16486800  1
  C  514  1  0.47381200  0.96070600  0.16474400  1
  C  515  1  0.46980900  0.98010000  0.18091200  1
  C  516  1  0.50556100  0.98361500  0.19652100  1
  C  518  1  0.44378900  0.93825800  0.13270500  1
  C  519  1  0.48096500  0.92278500  0.13282500  1
  C  523  1  0.54266100  0.96820800  0.19664100  1
  C  529  1  0.54905900  0.48230100  0.68710200  1
  C  530  1  0.51262600  0.48813800  0.67247500  1
  C  531  1  0.47358000  0.47329300  0.67219700  1
  C  532  1  0.47023800  0.45215600  0.68645200  1
  C  533  1  0.50642100  0.44711300  0.70129800  1
  C  535  1  0.44104000  0.50037000  0.64429900  1
  C  536  1  0.47951500  0.51484200  0.64451100  1
  C  540  1  0.54454800  0.46170000  0.70163000  1
  C  546  1  0.97263500  0.48237100  0.33382400  1
  C  547  1  0.00914400  0.48833300  0.34835200  1
  C  548  1  0.04817100  0.47347500  0.34871200  1
  C  549  1  0.05141700  0.45220000  0.33464000  1
  C  550  1  0.01515700  0.44703000  0.31988400  1
  C  552  1  0.08087000  0.50080400  0.37633600  1
  C  553  1  0.04241200  0.51528800  0.37604700  1
  C  557  1  0.97704600  0.46162700  0.31947400  1
  C  563  1  0.47510700  0.44799500  0.34037900  1
  C  564  1  0.51007500  0.44456900  0.35655200  1
  C  565  1  0.54796600  0.46027600  0.35670500  1
  C  566  1  0.55190200  0.47978100  0.34065500  1
  C  567  1  0.51604700  0.48343600  0.32514200  1
  C  569  1  0.57815000  0.43758000  0.38854100  1
  C  570  1  0.54093000  0.42213700  0.38839300  1
  C  574  1  0.47890700  0.46806100  0.32499400  1
  C  580  1  0.04661400  0.44828300  0.68045400  1
  C  581  1  0.01168200  0.44489600  0.66425300  1
  C  582  1  0.97378400  0.46059500  0.66411800  1
  C  583  1  0.96979800  0.48005000  0.68022100  1
  C  584  1  0.00563000  0.48368400  0.69575200  1
  C  586  1  0.94367200  0.43797800  0.63221400  1
  C  587  1  0.98089800  0.42254100  0.63234400  1
  C  591  1  0.04279600  0.46832400  0.69587000  1
  C  597  1  0.26522400  0.23829100  0.27435100  1
  C  598  1  0.23949500  0.23657400  0.25371000  1
  C  599  1  0.23908300  0.21471300  0.24002700  1
  C  600  1  0.26433700  0.19388500  0.24662800  1
  C  601  1  0.29080100  0.19633200  0.26677400  1
  C  603  1  0.19061000  0.23422900  0.21276700  1
  C  604  1  0.19096100  0.25561100  0.22622000  1
  C  608  1  0.29126600  0.21772400  0.28011800  1
  C  614  1  0.25561300  0.23833700  0.74667700  1
  C  615  1  0.28128900  0.23663600  0.76733800  1
  C  616  1  0.28169900  0.21478000  0.78103200  1
  C  617  1  0.25649300  0.19393600  0.77442900  1
  C  618  1  0.23005500  0.19637100  0.75427100  1
  C  620  1  0.33009400  0.23433200  0.80830900  1
  C  621  1  0.32976000  0.25570200  0.79484000  1
  C  625  1  0.22959600  0.21775500  0.74091300  1
  C  631  1  0.76516600  0.69385500  0.74625200  1
  C  632  1  0.73956400  0.69552800  0.76694000  1
  C  633  1  0.73912900  0.71738400  0.78062900  1
  C  634  1  0.76423300  0.73825000  0.77398900  1
  C  635  1  0.79058800  0.73585200  0.75380000  1
  C  637  1  0.69092900  0.69779200  0.80797200  1
  C  638  1  0.69130100  0.67641500  0.79451300  1
  C  642  1  0.79107600  0.71446500  0.74044700  1
  C  648  1  0.75563300  0.69388600  0.27480800  1
  C  649  1  0.78118800  0.69554800  0.25410300  1
  C  650  1  0.78162700  0.71740000  0.24040900  1
  C  651  1  0.75660700  0.73829200  0.24706700  1
  C  652  1  0.73025200  0.73589400  0.26725700  1
  C  654  1  0.82972100  0.69777600  0.21303500  1
  C  655  1  0.82933500  0.67639800  0.22649500  1
  C  659  1  0.72975000  0.71450700  0.28061400  1
  S  407  1  0.27576300  0.15498400  0.00954600  1
  S  424  1  0.77426400  0.77659400  0.01132800  1
  S  441  1  0.77581400  0.65545900  0.50956900  1
  S  458  1  0.27427900  0.27610800  0.51130600  1
  S  475  1  0.05782500  0.92817900  0.23136000  1
  S  492  1  0.46358800  0.92781100  0.79005900  1
  S  509  1  0.96405200  0.00038700  0.79364000  1
  S  526  1  0.55759100  0.00062300  0.22725800  1
  S  543  1  0.55803900  0.42802500  0.73101500  1
  S  560  1  0.96335100  0.42766200  0.29042100  1
  S  577  1  0.46383800  0.50071500  0.29462300  1
  S  594  1  0.05776700  0.50088800  0.72633800  1
  S  611  1  0.34438600  0.18845400  0.29997700  1
  S  628  1  0.17653900  0.18846000  0.72104400  1
  S  645  1  0.84395000  0.74382300  0.72052100  1
  S  662  1  0.67693000  0.74388700  0.30054700  1
  N  398  1  0.25165100  0.04479200  0.98734500  1
  N  401  1  0.25055600  0.04543500  0.03439800  1
  N  405  1  0.27142500  0.13301500  0.98919300  1
  N  406  1  0.27016700  0.13369100  0.03046200  1
  N  408  1  0.25920400  0.08858800  0.05869000  1
  N  409  1  0.26231400  0.08745000  0.96216100  1
  N  415  1  0.75230100  0.88687800  0.03371700  1
  N  418  1  0.75132800  0.88633200  0.98666300  1
  N  422  1  0.77030900  0.79854200  0.03172300  1
  N  423  1  0.76918300  0.79796600  0.99044700  1
  N  425  1  0.75920900  0.84318100  0.96229800  1
  N  426  1  0.76214200  0.84414900  0.05884200  1
  N  432  1  0.75181500  0.54526100  0.48734400  1
  N  435  1  0.75044700  0.54591100  0.53439600  1
  N  439  1  0.77159900  0.63348500  0.48921500  1
  N  440  1  0.77008400  0.63417000  0.53047800  1
  N  442  1  0.75897300  0.58907900  0.55869200  1
  N  443  1  0.76259700  0.58793400  0.46217900  1
  N  449  1  0.25241900  0.38640300  0.53369400  1
  N  452  1  0.25128200  0.38584600  0.48664100  1
  N  456  1  0.27040800  0.29806000  0.53170000  1
  N  457  1  0.26912200  0.29747400  0.49042600  1
  N  459  1  0.25907800  0.34268300  0.46228500  1
  N  460  1  0.26227200  0.34367300  0.55881000  1
  N  466  1  0.93960700  0.98031500  0.15822400  1
  N  469  1  0.01366300  0.00824700  0.15870800  1
  N  473  1  0.00949800  0.92859800  0.21659400  1
  N  474  1  0.07446700  0.95347600  0.21714600  1
  N  476  1  0.08575700  0.99606300  0.18861200  1
  N  477  1  0.93421200  0.93776900  0.18769900  1
  N  483  1  0.58219900  0.98063500  0.86257400  1
  N  486  1  0.50817200  0.00858500  0.86192700  1
  N  490  1  0.51198400  0.92836400  0.80475700  1
  N  491  1  0.44704800  0.95325900  0.80406000  1
  N  493  1  0.43588800  0.99609900  0.83224200  1
  N  494  1  0.58738000  0.93776700  0.83347300  1
  N  500  1  0.08005700  0.95621300  0.87227000  1
  N  503  1  0.00841600  0.92635500  0.87198800  1
  N  507  1  0.01184200  0.00141900  0.80881500  1
  N  508  1  0.94889600  0.97527700  0.80856100  1
  N  510  1  0.93957900  0.93332700  0.84105600  1
  N  511  1  0.08677000  0.99488500  0.84160100  1
  N  517  1  0.44162700  0.95653300  0.14857700  1
  N  520  1  0.51330900  0.92670600  0.14880200  1
  N  524  1  0.50978600  0.00165500  0.21209700  1
  N  525  1  0.57276700  0.97553400  0.21231000  1
  N  527  1  0.58207300  0.93359800  0.17978800  1
  N  528  1  0.43483900  0.99512000  0.17932800  1
  N  534  1  0.43954500  0.48033300  0.65812300  1
  N  537  1  0.51359300  0.50827000  0.65859200  1
  N  541  1  0.50966600  0.42847400  0.71629400  1
  N  542  1  0.57463300  0.45335300  0.71683500  1
  N  544  1  0.58585700  0.49599600  0.68837100  1
  N  545  1  0.43428000  0.43769800  0.68747100  1
  N  551  1  0.08227800  0.48063600  0.36268600  1
  N  554  1  0.00826100  0.50859700  0.36206500  1
  N  558  1  0.01180300  0.42824100  0.30506600  1
  N  559  1  0.94686400  0.45313700  0.30439300  1
  N  561  1  0.93579100  0.49602700  0.33251300  1
  N  562  1  0.08731800  0.43769100  0.33369900  1
  N  568  1  0.58025300  0.45596400  0.37278200  1
  N  571  1  0.50848700  0.42619500  0.37250400  1
  N  575  1  0.51175600  0.50159500  0.30969600  1
  N  576  1  0.44870500  0.47552800  0.30943700  1
  N  578  1  0.43948100  0.43339200  0.34170700  1
  N  579  1  0.58689300  0.49479100  0.34226400  1
  N  585  1  0.94152600  0.45632000  0.64801400  1
  N  588  1  0.01330900  0.42656200  0.64826100  1
  N  592  1  0.00987500  0.50180000  0.71124700  1
  N  593  1  0.07295100  0.47574700  0.71147100  1
  N  595  1  0.08220800  0.43365500  0.67913400  1
  N  596  1  0.93476800  0.49503000  0.67864400  1
  N  602  1  0.21468600  0.21478000  0.22010400  1
  N  605  1  0.21542000  0.25599400  0.24600300  1
  N  609  1  0.31792500  0.17932900  0.27567400  1
  N  610  1  0.31869700  0.21573200  0.29836300  1
  N  612  1  0.26847800  0.25860200  0.28745200  1
  N  613  1  0.26690900  0.17293800  0.23437100  1
  N  619  1  0.30605400  0.21487000  0.80096900  1
  N  622  1  0.30533500  0.25606500  0.77504600  1
  N  626  1  0.20296500  0.17935600  0.74536400  1
  N  627  1  0.20220200  0.21574700  0.72265400  1
  N  629  1  0.25240300  0.25863700  0.73355200  1
  N  630  1  0.25395100  0.17298100  0.78668400  1
  N  636  1  0.71486700  0.71727800  0.80059500  1
  N  639  1  0.71564000  0.67607200  0.77468900  1
  N  643  1  0.81758200  0.75290000  0.74486800  1
  N  644  1  0.81839800  0.71650500  0.72216200  1
  N  646  1  0.76847000  0.67353100  0.73316600  1
  N  647  1  0.76683400  0.75917100  0.78628100  1
  N  653  1  0.80584300  0.71727600  0.22042600  1
  N  656  1  0.80505200  0.67607500  0.24633600  1
  N  660  1  0.70328900  0.75295100  0.27619400  1
  N  661  1  0.70244800  0.71656000  0.29890600  1
  N  663  1  0.75235800  0.67356200  0.28790500  1
  N  664  1  0.75401000  0.75920700  0.23475900  1
