# generated using pymatgen
data_H24C41(NO2)4
_symmetry_space_group_name_H-M   'P 1'
_cell_length_a   30.83530000
_cell_length_b   43.48010000
_cell_length_c   43.48010000
_cell_angle_alpha   90.00000000
_cell_angle_beta   89.99740000
_cell_angle_gamma   90.00000000
_symmetry_Int_Tables_number   1
_chemical_formula_structural   H24C41(NO2)4
_chemical_formula_sum   'H192 C328 N32 O64'
_cell_volume   58294.72342118
_cell_formula_units_Z   8
loop_
 _symmetry_equiv_pos_site_id
 _symmetry_equiv_pos_as_xyz
  1  'x, y, z'
loop_
 _atom_site_type_symbol
 _atom_site_label
 _atom_site_symmetry_multiplicity
 _atom_site_fract_x
 _atom_site_fract_y
 _atom_site_fract_z
 _atom_site_occupancy
  H  25  1  0.11165700  0.26791300  0.15740800  1
  H  26  1  0.03499800  0.27449100  0.15964700  1
  H  27  1  0.95681100  0.27029100  0.16269400  1
  H  28  1  0.88191400  0.25626600  0.16491200  1
  H  29  1  0.90905500  0.17260900  0.11884600  1
  H  30  1  0.09550000  0.18128600  0.11445600  1
  H  31  1  0.99397700  0.22380100  0.06166800  1
  H  32  1  0.00959500  0.15164300  0.99744800  1
  H  33  1  0.01449800  0.11515800  0.03858700  1
  H  34  1  0.00592300  0.15606000  0.17415800  1
  H  35  1  0.02389500  0.08608500  0.08782600  1
  H  36  1  0.03208300  0.06730700  0.13886700  1
  H  39  1  0.82918500  0.20779400  0.12574400  1
  H  41  1  0.02634900  0.11522700  0.20732400  1
  H  43  1  0.01152900  0.23208100  0.00582800  1
  H  45  1  0.16223000  0.20123700  0.14986300  1
  H  70  1  0.11149400  0.73262900  0.70715900  1
  H  71  1  0.03481900  0.72608600  0.70496200  1
  H  72  1  0.95658100  0.73030800  0.70201200  1
  H  73  1  0.88165400  0.74428000  0.70005500  1
  H  74  1  0.90898300  0.82792300  0.74608900  1
  H  75  1  0.09545200  0.81925200  0.75015600  1
  H  76  1  0.99403800  0.77676900  0.80302900  1
  H  77  1  0.00982100  0.84894400  0.86722100  1
  H  78  1  0.01462500  0.88542100  0.82606900  1
  H  79  1  0.00585200  0.84448200  0.69051300  1
  H  80  1  0.02416800  0.91444300  0.77681400  1
  H  81  1  0.03233000  0.93319600  0.72576000  1
  H  84  1  0.82897100  0.79244200  0.73932500  1
  H  86  1  0.02652200  0.88528700  0.65734500  1
  H  88  1  0.01159400  0.76847300  0.85886300  1
  H  90  1  0.16220200  0.79929600  0.71474700  1
  H  115  1  0.11040200  0.77498600  0.20057200  1
  H  116  1  0.03364800  0.77314900  0.20684000  1
  H  117  1  0.95541100  0.77054500  0.20235500  1
  H  118  1  0.88060300  0.76874000  0.18805600  1
  H  119  1  0.90895700  0.81423200  0.10429200  1
  H  120  1  0.09537400  0.81768200  0.11370600  1
  H  121  1  0.99398300  0.87098200  0.15584200  1
  H  122  1  0.01033300  0.93516700  0.08373000  1
  H  123  1  0.01518700  0.89401300  0.04725000  1
  H  124  1  0.00549400  0.75845900  0.08810700  1
  H  125  1  0.02447200  0.84474200  0.01820400  1
  H  126  1  0.03236400  0.79366800  0.99942800  1
  H  129  1  0.82853700  0.80780800  0.13994900  1
  H  131  1  0.02601600  0.72524400  0.04730300  1
  H  133  1  0.01178200  0.92679100  0.16417600  1
  H  135  1  0.16175600  0.78245900  0.13389200  1
  H  160  1  0.11166600  0.22513400  0.66468400  1
  H  161  1  0.03501600  0.22739300  0.65812000  1
  H  162  1  0.95683100  0.23059500  0.66239600  1
  H  163  1  0.88192700  0.23278700  0.67641400  1
  H  164  1  0.90906400  0.18665000  0.76003300  1
  H  165  1  0.09550500  0.18226300  0.75135900  1
  H  166  1  0.99405800  0.12949700  0.70884600  1
  H  167  1  0.00953900  0.06528000  0.78102100  1
  H  168  1  0.01436700  0.10641900  0.81750900  1
  H  169  1  0.00593100  0.24198900  0.77657100  1
  H  170  1  0.02374900  0.15567100  0.84658400  1
  H  171  1  0.03192500  0.20671700  0.86535700  1
  H  174  1  0.82918800  0.19353500  0.72484500  1
  H  176  1  0.02638900  0.27515100  0.81739800  1
  H  178  1  0.01161800  0.07368200  0.70056800  1
  H  180  1  0.16224600  0.21763800  0.73140700  1
  H  205  1  0.60557800  0.76695700  0.66291600  1
  H  206  1  0.52860100  0.77420700  0.66180500  1
  H  207  1  0.45012600  0.77095200  0.66038800  1
  H  208  1  0.37511500  0.75789300  0.65860400  1
  H  209  1  0.40525600  0.67319500  0.61544300  1
  H  210  1  0.59187900  0.68093600  0.61835500  1
  H  211  1  0.49290200  0.72391200  0.56191200  1
  H  212  1  0.51189700  0.65184000  0.49803400  1
  H  213  1  0.51548300  0.61535200  0.53929900  1
  H  214  1  0.49852600  0.65594600  0.67457700  1
  H  215  1  0.52272200  0.58632500  0.58873700  1
  H  216  1  0.52792400  0.56745700  0.63991000  1
  H  219  1  0.33481700  0.68827500  0.65069800  1
  H  221  1  0.51767900  0.61527400  0.70822600  1
  H  223  1  0.51143300  0.73226600  0.50600100  1
  H  225  1  0.66599600  0.72242700  0.62508500  1
  H  250  1  0.60586000  0.23357100  0.20206400  1
  H  251  1  0.52892900  0.22614000  0.20333400  1
  H  252  1  0.45049000  0.22920900  0.20485100  1
  H  253  1  0.37545600  0.24221200  0.20642100  1
  H  254  1  0.40527500  0.32715600  0.24923000  1
  H  255  1  0.59190200  0.31967900  0.24641300  1
  H  256  1  0.49287900  0.27653300  0.30300100  1
  H  257  1  0.51153000  0.34864700  0.36687500  1
  H  258  1  0.51514300  0.38512500  0.32560100  1
  H  259  1  0.49848000  0.34446100  0.19032300  1
  H  260  1  0.52224800  0.41417300  0.27615100  1
  H  261  1  0.52740100  0.43303700  0.22498400  1
  H  264  1  0.33481100  0.31192900  0.21401600  1
  H  266  1  0.51738100  0.38514400  0.15665700  1
  H  268  1  0.51124800  0.26819400  0.35889900  1
  H  270  1  0.66598900  0.27841900  0.23979600  1
  H  295  1  0.60576600  0.26991900  0.69917800  1
  H  296  1  0.52881900  0.27111700  0.70653800  1
  H  297  1  0.45035700  0.27258700  0.70339900  1
  H  298  1  0.37531600  0.27426300  0.69040000  1
  H  299  1  0.40525900  0.31703700  0.60546100  1
  H  300  1  0.59188900  0.31419400  0.61302400  1
  H  301  1  0.49289900  0.37074400  0.65608800  1
  H  302  1  0.51162700  0.43459200  0.58395600  1
  H  303  1  0.51521100  0.39330600  0.54749300  1
  H  304  1  0.49850900  0.25804200  0.58819700  1
  H  305  1  0.52243000  0.34384700  0.51848200  1
  H  306  1  0.52764100  0.29267400  0.49964600  1
  H  309  1  0.33460600  0.28222300  0.62054600  1
  H  311  1  0.51754300  0.22437100  0.54752100  1
  H  313  1  0.51131000  0.42665000  0.66440700  1
  H  315  1  0.66612900  0.30754500  0.65439000  1
  H  340  1  0.60560700  0.73058000  0.16537000  1
  H  341  1  0.52860500  0.72952600  0.15826300  1
  H  342  1  0.45015600  0.72821500  0.16166500  1
  H  343  1  0.37517000  0.72642800  0.17480800  1
  H  344  1  0.40549600  0.68326800  0.25947300  1
  H  345  1  0.59212900  0.68617800  0.25149600  1
  H  346  1  0.49299600  0.62977300  0.20866000  1
  H  347  1  0.51192600  0.56586800  0.28071400  1
  H  348  1  0.51563300  0.60712600  0.31720600  1
  H  349  1  0.49874600  0.74241700  0.27666000  1
  H  350  1  0.52289700  0.65655300  0.34625400  1
  H  351  1  0.52808600  0.70771400  0.36514300  1
  H  354  1  0.33496300  0.71843600  0.24447600  1
  H  356  1  0.51786700  0.77605300  0.31734400  1
  H  358  1  0.51142600  0.57383000  0.20029900  1
  H  360  1  0.66616800  0.69288900  0.20964100  1
  H  367  1  0.92794200  0.00653400  0.15180600  1
  H  369  1  0.06977400  0.02181600  0.19715400  1
  H  371  1  0.07721200  0.97456700  0.14874000  1
  H  372  1  0.93071800  0.06745500  0.15797600  1
  H  383  1  0.92779600  0.99386800  0.71273000  1
  H  385  1  0.06980700  0.97874600  0.66760200  1
  H  387  1  0.07699200  0.02596700  0.71606700  1
  H  388  1  0.93073100  0.93294600  0.70655000  1
  H  399  1  0.92777000  0.78094300  0.93866300  1
  H  401  1  0.06948900  0.73538700  0.95385000  1
  H  403  1  0.07699500  0.78379000  0.90657900  1
  H  404  1  0.93066000  0.77481400  0.99960400  1
  H  415  1  0.92763400  0.21983200  0.92606400  1
  H  417  1  0.06962400  0.26494900  0.91081400  1
  H  419  1  0.07686500  0.21653400  0.95808800  1
  H  420  1  0.93054900  0.22595600  0.86510800  1
  H  431  1  0.42522600  0.50505100  0.65082200  1
  H  433  1  0.56483300  0.52265300  0.69871000  1
  H  435  1  0.57564200  0.47565400  0.65038400  1
  H  436  1  0.42592700  0.56611100  0.65713000  1
  H  447  1  0.42512600  0.49555100  0.21392600  1
  H  449  1  0.56472200  0.47769600  0.16610800  1
  H  451  1  0.57563200  0.52473200  0.21437400  1
  H  452  1  0.42569300  0.43446300  0.20768000  1
  H  463  1  0.42508400  0.28171700  0.43726400  1
  H  465  1  0.56470300  0.23386300  0.45492100  1
  H  467  1  0.57553500  0.28219800  0.40794700  1
  H  468  1  0.42574500  0.27539200  0.49832900  1
  H  479  1  0.42540800  0.71863200  0.42756600  1
  H  481  1  0.56500800  0.76654300  0.40998700  1
  H  483  1  0.57580400  0.71825200  0.45701800  1
  H  484  1  0.42614400  0.72490800  0.36650500  1
  H  495  1  0.76384100  0.19863700  0.21378800  1
  H  497  1  0.72936800  0.28723500  0.15088000  1
  H  499  1  0.81410800  0.27992600  0.14109500  1
  H  500  1  0.67626600  0.20755800  0.22217500  1
  H  511  1  0.76358800  0.80215300  0.65141600  1
  H  513  1  0.72938400  0.71312600  0.71378500  1
  H  515  1  0.81398800  0.72034700  0.72359900  1
  H  516  1  0.67598400  0.79320600  0.64310000  1
  H  527  1  0.76352700  0.71964600  0.12996700  1
  H  529  1  0.72917000  0.78176900  0.21912500  1
  H  531  1  0.81323600  0.79218000  0.21199800  1
  H  532  1  0.67604300  0.71104000  0.13903800  1
  H  543  1  0.76378000  0.28151900  0.73415000  1
  H  545  1  0.72931300  0.21873900  0.64546000  1
  H  547  1  0.81408900  0.20900200  0.65273200  1
  H  548  1  0.67618500  0.28986100  0.72528400  1
  H  559  1  0.26100800  0.80362000  0.20039800  1
  H  561  1  0.23031000  0.69626700  0.18026600  1
  H  563  1  0.15046600  0.72447100  0.17945300  1
  H  564  1  0.34071300  0.77624000  0.20090900  1
  H  575  1  0.26155000  0.19656500  0.66478300  1
  H  577  1  0.23010900  0.30381900  0.68485700  1
  H  579  1  0.15065500  0.27570800  0.68593100  1
  H  580  1  0.34106000  0.22433300  0.66405800  1
  H  591  1  0.26157000  0.26775200  0.12865700  1
  H  593  1  0.23031700  0.24775500  0.23595300  1
  H  595  1  0.15079400  0.24675900  0.20794900  1
  H  596  1  0.34115700  0.26828100  0.15640900  1
  H  607  1  0.26140700  0.73268400  0.73598500  1
  H  609  1  0.23023500  0.75261000  0.62867100  1
  H  611  1  0.15073600  0.75376300  0.65665600  1
  H  612  1  0.34090400  0.73187700  0.70847600  1
  C  1  1  0.00629500  0.15232300  0.12595100  1
  C  2  1  0.01033200  0.13193400  0.10125100  1
  C  3  1  0.00655600  0.14824400  0.07396700  1
  C  4  1  0.00086100  0.17941600  0.08081100  1
  C  5  1  0.99737500  0.20097200  0.05656900  1
  C  6  1  0.99872400  0.19111200  0.02541400  1
  C  7  1  0.00558400  0.15935600  0.01946000  1
  C  8  1  0.00911800  0.13783600  0.04344800  1
  C  9  1  0.01900000  0.10060200  0.10598700  1
  C  10  1  0.02298600  0.08963700  0.13626200  1
  C  11  1  0.01648500  0.10907200  0.16213300  1
  C  12  1  0.00895500  0.14090500  0.15630300  1
  C  13  1  0.03750900  0.20534200  0.12430500  1
  C  14  1  0.02077000  0.23208100  0.13764700  1
  C  15  1  0.97628300  0.22960200  0.13943700  1
  C  16  1  0.96324600  0.20150900  0.12668000  1
  C  17  1  0.94686500  0.24999200  0.15318000  1
  C  18  1  0.90316200  0.24149900  0.15453600  1
  C  19  1  0.88874700  0.21291700  0.14254700  1
  C  20  1  0.91889700  0.19324600  0.12768100  1
  C  21  1  0.08299600  0.20134600  0.12293400  1
  C  22  1  0.11107300  0.22456700  0.13438700  1
  C  23  1  0.09254600  0.25152400  0.14738200  1
  C  24  1  0.04757100  0.25551000  0.14903900  1
  C  37  1  0.00160400  0.18449000  0.11465700  1
  C  46  1  0.00615500  0.84824700  0.73871900  1
  C  47  1  0.01028300  0.86863800  0.76341300  1
  C  48  1  0.00670800  0.85231300  0.79070100  1
  C  49  1  0.00094800  0.82114500  0.78386800  1
  C  50  1  0.99750500  0.79959500  0.80811900  1
  C  51  1  0.99894200  0.80946200  0.83926800  1
  C  52  1  0.00581700  0.84121900  0.84521300  1
  C  53  1  0.00933300  0.86273000  0.82121600  1
  C  54  1  0.01909700  0.89994900  0.75866100  1
  C  55  1  0.02307500  0.91090100  0.72838000  1
  C  56  1  0.01655200  0.89145500  0.70252000  1
  C  57  1  0.00889600  0.85964300  0.70836200  1
  C  58  1  0.03742800  0.79524800  0.74027700  1
  C  59  1  0.02065200  0.76855600  0.72686500  1
  C  60  1  0.97614600  0.77098400  0.72524900  1
  C  61  1  0.96314500  0.79905200  0.73808100  1
  C  62  1  0.94666100  0.75057300  0.71161400  1
  C  63  1  0.90293500  0.75903600  0.71040800  1
  C  64  1  0.88856200  0.78761700  0.72243000  1
  C  65  1  0.91877700  0.80728100  0.73723600  1
  C  66  1  0.08292100  0.79922300  0.74163000  1
  C  67  1  0.11096800  0.77599100  0.73015500  1
  C  68  1  0.09240600  0.74905500  0.71714800  1
  C  69  1  0.04742400  0.74511500  0.71546600  1
  C  82  1  0.00154800  0.81607900  0.75002100  1
  C  91  1  0.00622000  0.80666700  0.08438100  1
  C  92  1  0.01050200  0.83135700  0.06400300  1
  C  93  1  0.00692600  0.85865200  0.08031900  1
  C  94  1  0.00103100  0.85182100  0.11147500  1
  C  95  1  0.99757600  0.87607100  0.13302500  1
  C  96  1  0.99915900  0.90722100  0.12316900  1
  C  97  1  0.00621700  0.91316200  0.09143500  1
  C  98  1  0.00974300  0.88916500  0.06992400  1
  C  99  1  0.01939200  0.82659600  0.03270500  1
  C  100  1  0.02317200  0.79630900  0.02173500  1
  C  101  1  0.01637300  0.77046000  0.04115000  1
  C  102  1  0.00872400  0.77630900  0.07296400  1
  C  103  1  0.03707700  0.80813200  0.13752400  1
  C  104  1  0.01998400  0.79498200  0.16425000  1
  C  105  1  0.97549500  0.79345200  0.16161800  1
  C  106  1  0.96282400  0.80615700  0.13341800  1
  C  107  1  0.94574300  0.78001400  0.18196700  1
  C  108  1  0.90207600  0.77893500  0.17333600  1
  C  109  1  0.88802400  0.79085300  0.14462800  1
  C  110  1  0.91852400  0.80541400  0.12500100  1
  C  111  1  0.08261200  0.80928900  0.13372000  1
  C  112  1  0.11036200  0.79779200  0.15711800  1
  C  113  1  0.09151100  0.78500500  0.18404800  1
  C  114  1  0.04648600  0.78352600  0.18781900  1
  C  127  1  0.00143100  0.81796900  0.11653800  1
  C  136  1  0.00625600  0.19378200  0.78032600  1
  C  137  1  0.01024300  0.16908700  0.80072400  1
  C  138  1  0.00655300  0.14179900  0.78440600  1
  C  139  1  0.00087500  0.14864100  0.75323400  1
  C  140  1  0.99742100  0.12439800  0.73167700  1
  C  141  1  0.99875000  0.09324300  0.74153900  1
  C  142  1  0.00551300  0.08728900  0.77330500  1
  C  143  1  0.00903600  0.11128000  0.79482500  1
  C  144  1  0.01887600  0.17382900  0.83206000  1
  C  145  1  0.02285900  0.20410700  0.84302100  1
  C  146  1  0.01644200  0.22997200  0.82356600  1
  C  147  1  0.00892200  0.22413700  0.79173400  1
  C  148  1  0.03751400  0.19214800  0.72731700  1
  C  149  1  0.02078300  0.20553800  0.70060200  1
  C  150  1  0.97627900  0.20722200  0.70302100  1
  C  151  1  0.96324600  0.19448600  0.73112600  1
  C  152  1  0.94687500  0.22103200  0.68267000  1
  C  153  1  0.90316800  0.22237900  0.69116300  1
  C  154  1  0.88874700  0.21035300  0.71972800  1
  C  155  1  0.91889100  0.19546000  0.73937900  1
  C  156  1  0.08300100  0.19077800  0.73131500  1
  C  157  1  0.11108500  0.20217900  0.70806900  1
  C  158  1  0.09256400  0.21511100  0.68108100  1
  C  159  1  0.04758700  0.21682400  0.67712400  1
  C  172  1  0.00160300  0.18248500  0.74815800  1
  C  181  1  0.50160000  0.65230700  0.62641300  1
  C  182  1  0.50762500  0.63202400  0.60182600  1
  C  183  1  0.50591600  0.64842700  0.57449700  1
  C  184  1  0.49977400  0.67958200  0.58122200  1
  C  185  1  0.49716700  0.70113400  0.55691400  1
  C  186  1  0.49967400  0.69123500  0.52581300  1
  C  187  1  0.50724900  0.65954300  0.51999600  1
  C  188  1  0.51006100  0.63804800  0.54405300  1
  C  189  1  0.51637200  0.60073600  0.60675700  1
  C  190  1  0.51854800  0.58970400  0.63709700  1
  C  191  1  0.51037900  0.60904800  0.66279900  1
  C  192  1  0.50261200  0.64082600  0.65679600  1
  C  193  1  0.53327100  0.70506900  0.62641800  1
  C  194  1  0.51573300  0.73178700  0.63933500  1
  C  195  1  0.47113200  0.72995600  0.63843300  1
  C  196  1  0.45889900  0.70185900  0.62533100  1
  C  197  1  0.44074400  0.75087600  0.65013300  1
  C  198  1  0.39677900  0.74310300  0.64870700  1
  C  199  1  0.38277200  0.71482500  0.63564800  1
  C  200  1  0.41441400  0.69403700  0.62417300  1
  C  201  1  0.57874800  0.70074500  0.62693900  1
  C  202  1  0.60558800  0.72302000  0.64126900  1
  C  203  1  0.58671300  0.75038200  0.65295100  1
  C  204  1  0.54177800  0.75487100  0.65226400  1
  C  217  1  0.49800000  0.68453600  0.61507200  1
  C  226  1  0.50164900  0.34810600  0.23847900  1
  C  227  1  0.50753800  0.36840700  0.26306500  1
  C  228  1  0.50573200  0.35202700  0.29040400  1
  C  229  1  0.49974200  0.32085900  0.28368400  1
  C  230  1  0.49709500  0.29931600  0.30799600  1
  C  231  1  0.49947200  0.30922600  0.33909700  1
  C  232  1  0.50697700  0.34092800  0.34490900  1
  C  233  1  0.50978200  0.36242100  0.32085000  1
  C  234  1  0.51600200  0.39973400  0.25813300  1
  C  235  1  0.51821700  0.41075100  0.22778900  1
  C  236  1  0.51011300  0.39139300  0.20208600  1
  C  237  1  0.50252400  0.35959200  0.20809800  1
  C  238  1  0.53339100  0.29536000  0.23857200  1
  C  239  1  0.51594100  0.26854100  0.22580300  1
  C  240  1  0.47133600  0.27034200  0.22662600  1
  C  241  1  0.45900900  0.29850200  0.23955400  1
  C  242  1  0.44103600  0.24933500  0.21497400  1
  C  243  1  0.39705800  0.25709000  0.21625300  1
  C  244  1  0.38295400  0.28541300  0.22915300  1
  C  245  1  0.41450800  0.30629200  0.24059500  1
  C  246  1  0.57885200  0.29976700  0.23801400  1
  C  247  1  0.60574000  0.27753400  0.22366300  1
  C  248  1  0.58695700  0.25010000  0.21207200  1
  C  249  1  0.54205000  0.24550100  0.21286300  1
  C  262  1  0.49805200  0.31588000  0.24983600  1
  C  271  1  0.50163600  0.30620000  0.58453100  1
  C  272  1  0.50751500  0.33078100  0.56422100  1
  C  273  1  0.50580000  0.35812000  0.58060300  1
  C  274  1  0.49975500  0.35141100  0.61176900  1
  C  275  1  0.49711200  0.37573300  0.63330300  1
  C  276  1  0.49951800  0.40683200  0.62338400  1
  C  277  1  0.50704800  0.41263000  0.59168200  1
  C  278  1  0.50986000  0.38856100  0.57019800  1
  C  279  1  0.51615500  0.32583400  0.53292100  1
  C  280  1  0.51833400  0.29548900  0.52190700  1
  C  281  1  0.51022600  0.26979500  0.54127500  1
  C  282  1  0.50253700  0.27581300  0.57305900  1
  C  283  1  0.53334600  0.30628700  0.63728500  1
  C  284  1  0.51586600  0.29347700  0.66407300  1
  C  285  1  0.47126100  0.29435500  0.66227800  1
  C  286  1  0.45896700  0.30731700  0.63412800  1
  C  287  1  0.44092600  0.28275700  0.68329300  1
  C  288  1  0.39694700  0.28411400  0.67554900  1
  C  289  1  0.38289500  0.29700500  0.64721400  1
  C  290  1  0.41446900  0.30840300  0.62633000  1
  C  291  1  0.57881300  0.30576700  0.63291900  1
  C  292  1  0.60568500  0.29144100  0.65517600  1
  C  293  1  0.58687200  0.27987300  0.68261000  1
  C  294  1  0.54195900  0.28064800  0.68718400  1
  C  307  1  0.49803300  0.31756600  0.61675300  1
  C  316  1  0.50194000  0.69425700  0.28026400  1
  C  317  1  0.50787200  0.66966200  0.30054600  1
  C  318  1  0.50609200  0.64233500  0.28414100  1
  C  319  1  0.49995900  0.64907100  0.25298700  1
  C  320  1  0.49729000  0.62477000  0.23143200  1
  C  321  1  0.49973200  0.59366400  0.24132900  1
  C  322  1  0.50733700  0.58783600  0.27301400  1
  C  323  1  0.51020700  0.61188900  0.29451100  1
  C  324  1  0.51655000  0.67457500  0.33184500  1
  C  325  1  0.51878800  0.70491300  0.34287800  1
  C  326  1  0.51056000  0.73062300  0.32355700  1
  C  327  1  0.50285500  0.72463200  0.29177000  1
  C  328  1  0.53345300  0.69424400  0.22744900  1
  C  329  1  0.51584700  0.70714100  0.20074600  1
  C  330  1  0.47125200  0.70628100  0.20264800  1
  C  331  1  0.45908400  0.69320900  0.23077300  1
  C  332  1  0.44082200  0.71798100  0.18176200  1
  C  333  1  0.39687600  0.71658300  0.18960200  1
  C  334  1  0.38291800  0.70348200  0.21787000  1
  C  335  1  0.41461200  0.69202200  0.23863100  1
  C  336  1  0.57894600  0.69473800  0.23169400  1
  C  337  1  0.60573700  0.70900200  0.20934600  1
  C  338  1  0.58678500  0.72065100  0.18199500  1
  C  339  1  0.54183300  0.72000500  0.17759100  1
  C  352  1  0.49822400  0.68292300  0.24803800  1
  C  361  1  0.03944600  0.01847400  0.18812400  1
  C  362  1  0.03088300  0.99096100  0.17205800  1
  C  363  1  0.98958900  0.98573300  0.15850700  1
  C  364  1  0.95808600  0.00934500  0.16125600  1
  C  365  1  0.96712400  0.03738700  0.17633200  1
  C  366  1  0.00827000  0.04220000  0.18983900  1
  C  373  1  0.98077100  0.95937200  0.13978600  1
  C  374  1  0.01934800  0.07017200  0.20463300  1
  C  377  1  0.03944200  0.98205600  0.67658600  1
  C  378  1  0.03077700  0.00955000  0.69265600  1
  C  379  1  0.98942300  0.01473400  0.70614100  1
  C  380  1  0.95797900  0.99109200  0.70333200  1
  C  381  1  0.96712400  0.96306300  0.68826300  1
  C  382  1  0.00831700  0.95830000  0.67480900  1
  C  389  1  0.98047900  0.04108500  0.72485100  1
  C  390  1  0.01949700  0.93034500  0.66002500  1
  C  393  1  0.03918600  0.74446900  0.95052900  1
  C  394  1  0.03063100  0.76054100  0.92301600  1
  C  395  1  0.98936500  0.77414200  0.91781000  1
  C  396  1  0.95789800  0.77145600  0.94145400  1
  C  397  1  0.96693600  0.75639200  0.96949900  1
  C  398  1  0.00804100  0.74281100  0.97428200  1
  C  405  1  0.98053800  0.79285000  0.89143300  1
  C  406  1  0.01909700  0.72798100  0.00223900  1
  C  409  1  0.03926700  0.25596300  0.91414700  1
  C  410  1  0.03063100  0.23992300  0.94166800  1
  C  411  1  0.98928400  0.22644700  0.94689000  1
  C  412  1  0.95781400  0.22923000  0.92326200  1
  C  413  1  0.96692700  0.24427000  0.89521200  1
  C  414  1  0.00811400  0.25771800  0.89041100  1
  C  421  1  0.98037200  0.20776400  0.97326600  1
  C  422  1  0.01923600  0.27249700  0.86244200  1
  C  425  1  0.53497100  0.51881200  0.68912300  1
  C  426  1  0.52792400  0.49119200  0.67286000  1
  C  427  1  0.48732100  0.48529800  0.65855400  1
  C  428  1  0.45492600  0.50835200  0.66079500  1
  C  429  1  0.46246600  0.53650700  0.67606600  1
  C  430  1  0.50293900  0.54199200  0.69030800  1
  C  437  1  0.48001100  0.45883700  0.63964000  1
  C  438  1  0.51246700  0.57012300  0.70533600  1
  C  441  1  0.53486400  0.48159000  0.17567900  1
  C  442  1  0.52788100  0.50924200  0.19190600  1
  C  443  1  0.48728200  0.51520800  0.20619100  1
  C  444  1  0.45482600  0.49219700  0.20396300  1
  C  445  1  0.46229400  0.46401700  0.18872500  1
  C  446  1  0.50276700  0.45845300  0.17451000  1
  C  453  1  0.48004300  0.54169100  0.22508700  1
  C  454  1  0.51222400  0.43029500  0.15951400  1
  C  457  1  0.53483800  0.24343800  0.45106500  1
  C  458  1  0.52780700  0.25970700  0.42344500  1
  C  459  1  0.48720400  0.27400800  0.41753800  1
  C  460  1  0.45478700  0.27174700  0.44057500  1
  C  461  1  0.46230400  0.25646900  0.46872800  1
  C  462  1  0.50278400  0.24223900  0.47423300  1
  C  469  1  0.47991700  0.29293800  0.39108700  1
  C  470  1  0.51229900  0.22723000  0.50237200  1
  C  473  1  0.53514600  0.75695000  0.41382000  1
  C  474  1  0.52808600  0.74070200  0.44144900  1
  C  475  1  0.48748300  0.72639200  0.44733800  1
  C  476  1  0.45510800  0.72861100  0.42426900  1
  C  477  1  0.46266400  0.74386600  0.39610900  1
  C  478  1  0.50313400  0.75811400  0.39062700  1
  C  485  1  0.48016300  0.70748600  0.47380300  1
  C  486  1  0.51266800  0.77314400  0.36249900  1
  C  489  1  0.73622000  0.26847900  0.16428400  1
  C  490  1  0.77383600  0.25129400  0.15760700  1
  C  491  1  0.78443100  0.22496900  0.17542600  1
  C  492  1  0.75698200  0.21735900  0.20033800  1
  C  493  1  0.71941800  0.23457400  0.20702400  1
  C  494  1  0.70895000  0.26096100  0.18930200  1
  C  501  1  0.82415500  0.20857300  0.17193700  1
  C  502  1  0.66970300  0.27772000  0.19335500  1
  C  505  1  0.73618800  0.73196900  0.70049200  1
  C  506  1  0.77380400  0.74913300  0.70723100  1
  C  507  1  0.78432400  0.77558200  0.68957000  1
  C  508  1  0.75680100  0.78333000  0.66474400  1
  C  509  1  0.71924000  0.76613400  0.65799200  1
  C  510  1  0.70884600  0.73963000  0.67555900  1
  C  517  1  0.82399600  0.79203500  0.69316100  1
  C  518  1  0.66959900  0.72287700  0.67144400  1
  C  521  1  0.73603600  0.76849800  0.20027700  1
  C  522  1  0.77355100  0.77540700  0.18306100  1
  C  523  1  0.78412300  0.75782200  0.15657100  1
  C  524  1  0.75674600  0.73290300  0.14884200  1
  C  525  1  0.71929200  0.72598700  0.16609000  1
  C  526  1  0.70884300  0.74347800  0.19263300  1
  C  533  1  0.82361400  0.76164900  0.13992400  1
  C  534  1  0.66958300  0.73925700  0.20935600  1
  C  537  1  0.73615900  0.23211300  0.66423800  1
  C  538  1  0.77379700  0.22542900  0.68139700  1
  C  539  1  0.78439200  0.24321500  0.70774400  1
  C  540  1  0.75692100  0.26809500  0.71540800  1
  C  541  1  0.71933400  0.27478500  0.69822200  1
  C  542  1  0.70887200  0.25710400  0.67180800  1
  C  549  1  0.82414200  0.23972800  0.72410700  1
  C  550  1  0.66962100  0.26118600  0.65505700  1
  C  553  1  0.23737600  0.71888700  0.18454200  1
  C  554  1  0.20685100  0.74130200  0.17562600  1
  C  555  1  0.21526400  0.77298100  0.18083900  1
  C  556  1  0.25415600  0.78098200  0.19603500  1
  C  557  1  0.28481100  0.75856300  0.20479200  1
  C  558  1  0.27646300  0.72683500  0.19958700  1
  C  565  1  0.18394500  0.79635900  0.17501200  1
  C  566  1  0.30749800  0.70315800  0.20544800  1
  C  569  1  0.23730700  0.28122000  0.68056500  1
  C  570  1  0.20698400  0.25870000  0.68956800  1
  C  571  1  0.21563100  0.22704500  0.68439500  1
  C  572  1  0.25451700  0.21918200  0.66911400  1
  C  573  1  0.28496300  0.24170600  0.66026500  1
  C  574  1  0.27641200  0.27340500  0.66547400  1
  C  581  1  0.18459600  0.20351400  0.69042700  1
  C  582  1  0.30731100  0.29717900  0.65964500  1
  C  585  1  0.23746800  0.25204600  0.21335000  1
  C  586  1  0.20707200  0.24307700  0.19086600  1
  C  587  1  0.21566000  0.24822800  0.15920100  1
  C  588  1  0.25456300  0.26345800  0.15128500  1
  C  589  1  0.28508000  0.27227600  0.17377200  1
  C  590  1  0.27657100  0.26711100  0.20548500  1
  C  597  1  0.18457300  0.24221200  0.13570500  1
  C  598  1  0.30760400  0.27283700  0.22919300  1
  C  601  1  0.23738800  0.74836000  0.65128100  1
  C  602  1  0.20701200  0.75739900  0.67375400  1
  C  603  1  0.21556600  0.75225600  0.70542600  1
  C  604  1  0.25443500  0.73699000  0.71335400  1
  C  605  1  0.28493200  0.72809800  0.69087900  1
  C  606  1  0.27645400  0.73325200  0.65915900  1
  C  613  1  0.18446600  0.75830500  0.72891800  1
  C  614  1  0.30735800  0.72730000  0.63541600  1
  N  38  1  0.84572500  0.20564800  0.14470300  1
  N  40  1  0.02050300  0.09908300  0.19227600  1
  N  42  1  0.99811200  0.21221600  0.00172700  1
  N  44  1  0.15470500  0.21915500  0.13751800  1
  N  83  1  0.84552700  0.79491300  0.72042800  1
  N  85  1  0.02060300  0.90143200  0.67237800  1
  N  87  1  0.99825700  0.78836500  0.86296700  1
  N  89  1  0.15461400  0.78136400  0.72705100  1
  N  128  1  0.84503700  0.78896500  0.13707800  1
  N  130  1  0.02025600  0.74031100  0.03116000  1
  N  132  1  0.99846800  0.93090100  0.14427800  1
  N  134  1  0.15401200  0.79446600  0.15202100  1
  N  173  1  0.84572500  0.21249600  0.72699900  1
  N  175  1  0.02047100  0.26011900  0.83354300  1
  N  177  1  0.99819300  0.06956100  0.72042600  1
  N  179  1  0.15472100  0.20530600  0.71348000  1
  N  218  1  0.33999300  0.70629300  0.63793300  1
  N  220  1  0.51312600  0.59906400  0.69302600  1
  N  222  1  0.49856400  0.71220100  0.50202000  1
  N  224  1  0.64938800  0.71900000  0.64379500  1
  N  263  1  0.34019400  0.29390200  0.22672900  1
  N  265  1  0.51285000  0.40136300  0.17185000  1
  N  267  1  0.49837600  0.28825600  0.36288500  1
  N  269  1  0.64951100  0.28166200  0.22098400  1
  N  308  1  0.34013300  0.29461500  0.63879100  1
  N  310  1  0.51294100  0.23955800  0.53130700  1
  N  312  1  0.49844400  0.43063100  0.64434000  1
  N  314  1  0.64946300  0.28884000  0.65108100  1
  N  353  1  0.34014900  0.70570200  0.22643700  1
  N  355  1  0.51331700  0.76084600  0.33355000  1
  N  357  1  0.49854200  0.56987400  0.22036500  1
  N  359  1  0.64955000  0.71154600  0.21329800  1
  O  368  1  0.06443000  0.97081100  0.16912000  1
  O  370  1  0.93549200  0.05914900  0.17873800  1
  O  375  1  0.02910600  0.06744600  0.23488100  1
  O  376  1  0.95305300  0.96332100  0.11590700  1
  O  384  1  0.06428600  0.02972100  0.69566500  1
  O  386  1  0.93554000  0.94127100  0.68580000  1
  O  391  1  0.02933400  0.93307900  0.62979000  1
  O  392  1  0.95259900  0.03712800  0.74863300  1
  O  400  1  0.06416600  0.76342000  0.90284700  1
  O  402  1  0.93532600  0.75404300  0.99128500  1
  O  407  1  0.02872100  0.69771200  0.99949700  1
  O  408  1  0.95274500  0.81668800  0.89535100  1
  O  416  1  0.06415900  0.23694000  0.96182600  1
  O  418  1  0.93531700  0.24670800  0.87343800  1
  O  423  1  0.02912100  0.30272400  0.86517100  1
  O  424  1  0.95250800  0.18396700  0.96934300  1
  O  432  1  0.56221900  0.47160600  0.67050000  1
  O  434  1  0.43001600  0.55770800  0.67792600  1
  O  439  1  0.52076900  0.56752800  0.73581400  1
  O  440  1  0.45281800  0.46238400  0.61539500  1
  O  448  1  0.56222500  0.52878200  0.19425600  1
  O  450  1  0.42978600  0.44285700  0.18688200  1
  O  455  1  0.52050700  0.43285100  0.12903000  1
  O  456  1  0.45287000  0.53819100  0.24935000  1
  O  464  1  0.56212100  0.26208500  0.40387900  1
  O  466  1  0.42983800  0.25460100  0.48991600  1
  O  471  1  0.52063700  0.19675600  0.49979800  1
  O  472  1  0.45272100  0.31718200  0.39463700  1
  O  480  1  0.56236100  0.73836300  0.46105000  1
  O  482  1  0.43022400  0.74570800  0.37489800  1
  O  487  1  0.52098000  0.80362000  0.36509700  1
  O  488  1  0.45299300  0.68322900  0.47025500  1
  O  496  1  0.79927800  0.26120900  0.13397500  1
  O  498  1  0.69381100  0.22451800  0.23047800  1
  O  503  1  0.64699500  0.28409500  0.16740400  1
  O  504  1  0.84659100  0.20288000  0.19815800  1
  O  512  1  0.79929700  0.73909900  0.73078200  1
  O  514  1  0.69355200  0.77633200  0.63464700  1
  O  519  1  0.64699500  0.71628100  0.69738500  1
  O  520  1  0.84634700  0.79789800  0.66693900  1
  O  528  1  0.79883000  0.79910100  0.19303800  1
  O  530  1  0.69370700  0.70259500  0.15586400  1
  O  535  1  0.64710200  0.76509700  0.21653600  1
  O  536  1  0.84604600  0.73549700  0.13388600  1
  O  544  1  0.79926200  0.20183200  0.67143000  1
  O  546  1  0.69370100  0.29820300  0.70832700  1
  O  551  1  0.64694300  0.23523800  0.64860900  1
  O  552  1  0.84656800  0.26595100  0.72980500  1
  O  560  1  0.16935500  0.73118700  0.16251500  1
  O  562  1  0.32227600  0.76883200  0.21781300  1
  O  567  1  0.31277200  0.68212500  0.18270900  1
  O  568  1  0.17629500  0.81638200  0.19828700  1
  O  576  1  0.16948500  0.26868600  0.70278000  1
  O  578  1  0.32245300  0.23156600  0.64717500  1
  O  583  1  0.31261600  0.31803300  0.68254500  1
  O  584  1  0.17722000  0.18319900  0.66735700  1
  O  592  1  0.16957300  0.22989600  0.20089500  1
  O  594  1  0.32262600  0.28523600  0.16357200  1
  O  599  1  0.31254900  0.25037000  0.25054300  1
  O  600  1  0.17717200  0.26528400  0.11539900  1
  O  608  1  0.16954500  0.77060900  0.66370700  1
  O  610  1  0.32239000  0.71501200  0.70108000  1
  O  615  1  0.31260400  0.75000000  0.61433700  1
  O  616  1  0.17694900  0.73512900  0.74908400  1
