# generated using pymatgen
data_H25(C20N3)2
_symmetry_space_group_name_H-M   'P 1'
_cell_length_a   12.05126667
_cell_length_b   65.49395000
_cell_length_c   65.49390000
_cell_angle_alpha   60.00007576
_cell_angle_beta   89.99610000
_cell_angle_gamma   89.99220000
_symmetry_Int_Tables_number   1
_chemical_formula_structural   H25(C20N3)2
_chemical_formula_sum   'H150 C240 N36'
_cell_volume   44767.79375187
_cell_formula_units_Z   6
loop_
 _symmetry_equiv_pos_site_id
 _symmetry_equiv_pos_as_xyz
  1  'x, y, z'
loop_
 _atom_site_type_symbol
 _atom_site_label
 _atom_site_symmetry_multiplicity
 _atom_site_fract_x
 _atom_site_fract_y
 _atom_site_fract_z
 _atom_site_occupancy
  C  1  1  0.04465900  0.01861100  0.47348100  1
  C  2  1  0.04079500  0.04292633  0.46097000  1
  C  3  1  0.04363800  0.05104067  0.47705333  1
  C  5  1  0.04846200  0.01132433  0.49749800  1
  C  6  1  0.05090700  0.98747100  0.51608767  1
  C  7  1  0.04949900  0.98004300  0.54049367  1
  C  9  1  0.04475100  0.98073933  0.57429833  1
  C  10  1  0.04534800  0.95717200  0.57988567  1
  C  11  1  0.04891900  0.95674200  0.55904733  1
  C  12  1  0.04233000  0.98899000  0.59063000  1
  C  13  1  0.04555800  0.01308633  0.58453633  1
  C  15  1  0.05132800  0.05281200  0.56410400  1
  C  16  1  0.05166500  0.04547133  0.58814767  1
  C  17  1  0.04694400  0.02116500  0.60065167  1
  C  18  1  0.05351800  0.07668267  0.54551833  1
  C  19  1  0.05080800  0.08407733  0.52111400  1
  C  21  1  0.04480600  0.08337367  0.48730533  1
  C  22  1  0.04422000  0.10693833  0.48172533  1
  C  23  1  0.04815300  0.10737267  0.50255533  1
  C  24  1  0.04135900  0.07513867  0.47096133  1
  C  25  1  0.02941900  0.09239933  0.44672567  1
  C  26  1  0.92281800  0.10094033  0.43749633  1
  C  27  1  0.91016700  0.11896233  0.41396567  1
  C  28  1  0.00341800  0.12884900  0.39904000  1
  C  29  1  0.10982800  0.11976700  0.40825867  1
  C  30  1  0.12288100  0.10184333  0.43189800  1
  C  31  1  0.98961300  0.14791167  0.37558533  1
  C  32  1  0.03907700  0.14765167  0.35610433  1
  C  33  1  0.01974600  0.16607833  0.33290900  1
  C  34  1  0.94998900  0.18507800  0.32869400  1
  C  35  1  0.90452100  0.18595367  0.34811767  1
  C  36  1  0.92358000  0.16755800  0.37122200  1
  C  37  1  0.06001300  0.09461200  0.55172000  1
  C  38  1  0.96436900  0.10195700  0.55876500  1
  C  39  1  0.97140900  0.11995533  0.56449167  1
  C  40  1  0.07369000  0.13125433  0.56292067  1
  C  41  1  0.16911300  0.12381900  0.55583000  1
  C  42  1  0.16259400  0.10560200  0.55044233  1
  C  43  1  0.08050300  0.14998767  0.56790600  1
  C  44  1  0.04107400  0.14719500  0.58950867  1
  C  45  1  0.04947200  0.16572933  0.59444400  1
  C  46  1  0.09659200  0.18751300  0.57775133  1
  C  47  1  0.13311100  0.19061533  0.55594267  1
  C  48  1  0.12676100  0.17194400  0.55121200  1
  C  49  1  0.03096700  0.97175233  0.61488267  1
  C  50  1  0.12475300  0.96219800  0.62957733  1
  C  51  1  0.11194100  0.94449500  0.65330567  1
  C  52  1  0.00544000  0.93576800  0.66279133  1
  C  53  1  0.91194700  0.94572400  0.64795633  1
  C  54  1  0.92436800  0.96350400  0.62431833  1
  C  55  1  0.99188100  0.91702500  0.68643500  1
  C  56  1  0.92264600  0.89762300  0.69139000  1
  C  57  1  0.90582400  0.87935600  0.71465767  1
  C  58  1  0.95710000  0.88011133  0.73364467  1
  C  59  1  0.02927400  0.89891600  0.72886800  1
  C  60  1  0.04600600  0.91724000  0.70552267  1
  C  61  1  0.05650800  0.96959300  0.50983967  1
  C  62  1  0.16067700  0.96159800  0.50686733  1
  C  63  1  0.95900500  0.95942300  0.50686600  1
  C  64  1  0.96582500  0.94141300  0.50115000  1
  C  65  1  0.06998700  0.93305000  0.49841233  1
  C  66  1  0.16714700  0.94354900  0.50124567  1
  C  67  1  0.07751500  0.91425800  0.49340567  1
  C  68  1  0.15208600  0.89534100  0.50613000  1
  C  69  1  0.16102000  0.87685000  0.50120200  1
  C  70  1  0.09626100  0.87686900  0.48322133  1
  C  71  1  0.01948900  0.89526300  0.47091367  1
  C  72  1  0.01080900  0.91382000  0.47582300  1
  C  119  1  0.37749700  0.47130400  0.60570733  1
  C  120  1  0.37385800  0.45879767  0.59389767  1
  C  121  1  0.37677000  0.47488667  0.56970067  1
  C  123  1  0.38149500  0.49532100  0.58898267  1
  C  124  1  0.38405700  0.51390433  0.59425467  1
  C  125  1  0.38274100  0.53831167  0.57728200  1
  C  127  1  0.37798600  0.57212233  0.54278767  1
  C  128  1  0.37870000  0.57770400  0.56077200  1
  C  129  1  0.38230200  0.55686067  0.58203667  1
  C  130  1  0.37551300  0.58846033  0.51820700  1
  C  131  1  0.37873300  0.58237433  0.50019800  1
  C  133  1  0.38460000  0.56195267  0.48089467  1
  C  134  1  0.38495200  0.58599800  0.46419767  1
  C  135  1  0.38001200  0.59849433  0.47600567  1
  C  136  1  0.38681500  0.54337167  0.47560200  1
  C  137  1  0.38410100  0.51896567  0.49260500  1
  C  139  1  0.37813200  0.48515000  0.52711167  1
  C  140  1  0.37765400  0.47957700  0.50912333  1
  C  141  1  0.38148400  0.50041200  0.48786200  1
  C  142  1  0.37475000  0.46880067  0.55168967  1
  C  143  1  0.36278400  0.44456767  0.55865633  1
  C  144  1  0.25617400  0.43533767  0.55935967  1
  C  145  1  0.24351900  0.41180633  0.56487400  1
  C  146  1  0.33676300  0.39687800  0.56990733  1
  C  147  1  0.44319000  0.40610500  0.56973367  1
  C  148  1  0.45624300  0.42973667  0.56403900  1
  C  149  1  0.32296200  0.37341733  0.57431633  1
  C  150  1  0.37258500  0.35394767  0.59404167  1
  C  151  1  0.35325900  0.33074533  0.59883100  1
  C  152  1  0.28336500  0.32651467  0.58408067  1
  C  153  1  0.23777800  0.34592633  0.56378833  1
  C  154  1  0.25680400  0.36903600  0.55906333  1
  C  155  1  0.39329500  0.54958133  0.45146767  1
  C  156  1  0.29764200  0.55663733  0.43708267  1
  C  157  1  0.30465700  0.56237767  0.41335400  1
  C  158  1  0.40692100  0.56080633  0.40361667  1
  C  159  1  0.50234700  0.55369533  0.41813933  1
  C  160  1  0.49586100  0.54830367  0.44174600  1
  C  161  1  0.41370100  0.56580433  0.37989467  1
  C  162  1  0.37435100  0.58742367  0.36109367  1
  C  163  1  0.38269900  0.59237133  0.33761933  1
  C  164  1  0.42969100  0.57567667  0.33251333  1
  C  165  1  0.46612600  0.55385333  0.35120867  1
  C  166  1  0.45978800  0.54910600  0.37461667  1
  C  167  1  0.36420700  0.61271167  0.51120233  1
  C  168  1  0.45801100  0.62740367  0.50603233  1
  C  169  1  0.44525800  0.65112600  0.50003700  1
  C  170  1  0.33878700  0.66062100  0.49929000  1
  C  171  1  0.24527000  0.64578833  0.50419667  1
  C  172  1  0.25763800  0.62215100  0.51004800  1
  C  173  1  0.32527900  0.68427000  0.49437867  1
  C  174  1  0.25614100  0.68924033  0.50883200  1
  C  175  1  0.23934600  0.71251333  0.50381667  1
  C  176  1  0.29052700  0.73149233  0.48405000  1
  C  177  1  0.36263500  0.72669933  0.47002133  1
  C  178  1  0.37927300  0.70334967  0.47504600  1
  C  179  1  0.38971100  0.50764767  0.61838167  1
  C  180  1  0.49390300  0.50461667  0.62935133  1
  C  181  1  0.29224900  0.50473333  0.63152167  1
  C  182  1  0.29913600  0.49901667  0.65524700  1
  C  183  1  0.40332800  0.49622967  0.66634700  1
  C  184  1  0.50044500  0.49900133  0.65301933  1
  C  185  1  0.41094100  0.49124433  0.69013733  1
  C  186  1  0.48573900  0.50394400  0.69631167  1
  C  187  1  0.49473000  0.49904200  0.71972033  1
  C  188  1  0.42980600  0.48111200  0.73769200  1
  C  189  1  0.35283100  0.46882667  0.73162467  1
  C  190  1  0.34408100  0.47371167  0.70816767  1
  C  237  1  0.71110000  0.60355633  0.02079133  1
  C  238  1  0.70738700  0.59175067  0.04510767  1
  C  239  1  0.71021700  0.56755267  0.05321867  1
  C  241  1  0.71495100  0.58682833  0.01350233  1
  C  242  1  0.71737900  0.59209567  0.98964733  1
  C  243  1  0.71606400  0.57511967  0.98221767  1
  C  245  1  0.71132800  0.54062100  0.98290867  1
  C  246  1  0.71179700  0.55860333  0.95934200  1
  C  247  1  0.71551100  0.57986933  0.95891600  1
  C  248  1  0.70901800  0.51603900  0.99115633  1
  C  249  1  0.71237400  0.49803467  0.01525067  1
  C  251  1  0.71818300  0.47873767  0.05497667  1
  C  252  1  0.71865500  0.46203733  0.04763233  1
  C  253  1  0.71387200  0.47384233  0.02332633  1
  C  254  1  0.72026900  0.47344900  0.07884967  1
  C  255  1  0.71742700  0.49045533  0.08624733  1
  C  257  1  0.71142800  0.52496567  0.08554867  1
  C  258  1  0.71084400  0.50697933  0.10911200  1
  C  259  1  0.71475200  0.48571633  0.10954267  1
  C  260  1  0.70803500  0.54954467  0.07731667  1
  C  261  1  0.69611100  0.55651800  0.09457900  1
  C  262  1  0.58952000  0.55721800  0.10311733  1
  C  263  1  0.57689600  0.56271767  0.12114600  1
  C  264  1  0.67015900  0.56775267  0.13103100  1
  C  265  1  0.77656600  0.56758800  0.12196267  1
  C  266  1  0.78958700  0.56189900  0.10402000  1
  C  267  1  0.65638800  0.57214500  0.15009400  1
  C  268  1  0.70589300  0.59188133  0.14983333  1
  C  269  1  0.68650200  0.59666533  0.16824800  1
  C  270  1  0.61675700  0.58188700  0.18724833  1
  C  271  1  0.57131800  0.56158233  0.18813467  1
  C  272  1  0.59035400  0.55686900  0.16974133  1
  C  273  1  0.72673100  0.44931700  0.09677700  1
  C  274  1  0.63108800  0.43493167  0.10409667  1
  C  275  1  0.63810000  0.41120067  0.12208067  1
  C  276  1  0.74033900  0.40146600  0.13340333  1
  C  277  1  0.83576000  0.41598767  0.12599967  1
  C  278  1  0.82927900  0.43959533  0.10778600  1
  C  279  1  0.74711700  0.37774167  0.15212533  1
  C  280  1  0.70780300  0.35894333  0.14930133  1
  C  281  1  0.71615800  0.33546800  0.16782433  1
  C  282  1  0.76308600  0.33035767  0.18963033  1
  C  283  1  0.79946500  0.34905233  0.19276367  1
  C  284  1  0.79319500  0.37246000  0.17410167  1
  C  285  1  0.69766300  0.50902633  0.97391733  1
  C  286  1  0.79145300  0.50387867  0.96436833  1
  C  287  1  0.77865400  0.49787133  0.94665167  1
  C  288  1  0.67215300  0.49710167  0.93793200  1
  C  289  1  0.57865300  0.50197533  0.94789200  1
  C  290  1  0.59106600  0.50783667  0.96567033  1
  C  291  1  0.65860900  0.49219933  0.91918967  1
  C  292  1  0.58930400  0.50663667  0.89979367  1
  C  293  1  0.57250600  0.50163533  0.88152633  1
  C  294  1  0.62382000  0.48189467  0.88228167  1
  C  295  1  0.69610400  0.46788533  0.90107333  1
  C  296  1  0.71278500  0.47290200  0.91940233  1
  C  297  1  0.72301200  0.61622100  0.97177400  1
  C  298  1  0.82719600  0.62718433  0.96380367  1
  C  299  1  0.62553300  0.62936767  0.96157667  1
  C  300  1  0.63238800  0.65309500  0.94357033  1
  C  301  1  0.73656700  0.66418733  0.93522533  1
  C  302  1  0.83370600  0.65085067  0.94574967  1
  C  303  1  0.74413900  0.68798033  0.91642467  1
  C  304  1  0.81881100  0.69415633  0.89752733  1
  C  305  1  0.82771900  0.71756533  0.87901800  1
  C  306  1  0.76290800  0.73553800  0.87900633  1
  C  307  1  0.68607000  0.72947033  0.89738433  1
  C  308  1  0.67738300  0.70601233  0.91595700  1
  C  355  1  0.82227500  0.22888167  0.27490067  1
  C  356  1  0.71890400  0.24031067  0.26680867  1
  C  357  1  0.71192200  0.26073067  0.24454900  1
  C  358  1  0.80844300  0.26935800  0.23060567  1
  C  363  1  0.83403700  0.20982800  0.29738900  1
  C  365  1  0.80943500  0.28998433  0.20929500  1
  C  367  1  0.15572400  0.27272700  0.59408233  1
  C  368  1  0.05243200  0.26466767  0.59067267  1
  C  369  1  0.04552800  0.24243367  0.59245000  1
  C  370  1  0.14204600  0.22848567  0.59777700  1
  C  375  1  0.16741800  0.29518000  0.59074533  1
  C  377  1  0.14311600  0.20718600  0.59843933  1
  C  379  1  0.48897800  0.59190000  0.23102900  1
  C  380  1  0.38560800  0.58855233  0.24246000  1
  C  381  1  0.37860900  0.59038300  0.26288500  1
  C  382  1  0.47511000  0.59570133  0.27151500  1
  C  387  1  0.50075400  0.58847833  0.21196733  1
  C  389  1  0.47608400  0.59638167  0.29214367  1
  C  391  1  0.84551400  0.83538800  0.78883533  1
  C  392  1  0.74363200  0.82596200  0.80040833  1
  C  393  1  0.74277000  0.80446767  0.82183833  1
  C  394  1  0.84394600  0.79260967  0.83148467  1
  C  399  1  0.85004900  0.85515600  0.76664133  1
  C  401  1  0.85236000  0.77045200  0.85120900  1
  C  403  1  0.17893300  0.78669900  0.47354733  1
  C  404  1  0.07702900  0.79825833  0.47143033  1
  C  405  1  0.07615500  0.81970433  0.47146233  1
  C  406  1  0.17733900  0.82938200  0.47361833  1
  C  411  1  0.18345200  0.76448633  0.47601767  1
  C  413  1  0.18574900  0.84910100  0.47606067  1
  C  415  1  0.51237400  0.47143533  0.83754400  1
  C  416  1  0.41052200  0.46926400  0.82812433  1
  C  417  1  0.40968800  0.46933100  0.80662933  1
  C  418  1  0.51086100  0.47157067  0.79476233  1
  C  423  1  0.51686700  0.47385700  0.85731433  1
  C  425  1  0.51929100  0.47400300  0.77260500  1
  H  73  1  0.97043800  0.89542233  0.45807533  1
  H  74  1  0.95632400  0.92722800  0.46614567  1
  H  75  1  0.21427000  0.86322800  0.51100333  1
  H  76  1  0.19937500  0.89459600  0.51946767  1
  H  77  1  0.24399600  0.93824500  0.49908367  1
  H  78  1  0.23244600  0.96875100  0.50891433  1
  H  79  1  0.89375400  0.93400600  0.49964800  1
  H  80  1  0.88263900  0.96488900  0.50908100  1
  H  81  1  0.04269300  0.00817100  0.46598533  1
  H  82  1  0.03681000  0.05283000  0.44300100  1
  H  83  1  0.05155500  0.03172000  0.51312267  1
  H  84  1  0.04712900  0.03244367  0.54844400  1
  H  85  1  0.04976500  0.94174300  0.55789867  1
  H  86  1  0.04434100  0.94253100  0.59630233  1
  H  87  1  0.20283900  0.96781900  0.62300800  1
  H  88  1  0.18155500  0.93744800  0.66337467  1
  H  89  1  0.85519300  0.97016000  0.61397267  1
  H  90  1  0.83347000  0.94011200  0.65424267  1
  H  91  1  0.04613300  0.01123833  0.61863867  1
  H  92  1  0.05380300  0.05585400  0.59570267  1
  H  93  1  0.04147800  0.12158000  0.46532233  1
  H  94  1  0.04758800  0.12237900  0.50368900  1
  H  95  1  0.88902400  0.09434000  0.55964800  1
  H  96  1  0.90052100  0.12517633  0.56921100  1
  H  97  1  0.23297700  0.10057900  0.54535333  1
  H  98  1  0.24456800  0.13148800  0.55471700  1
  H  99  1  0.15403300  0.17470667  0.53522133  1
  H  100  1  0.16570000  0.20642033  0.54344867  1
  H  101  1  0.01997000  0.16335433  0.61013467  1
  H  102  1  0.00732700  0.13152033  0.60197433  1
  H  103  1  0.20098400  0.09603033  0.43832567  1
  H  104  1  0.17922300  0.12676267  0.39809633  1
  H  105  1  0.88850100  0.16867067  0.38486933  1
  H  106  1  0.85591600  0.19986667  0.34552467  1
  H  107  1  0.05422600  0.16520767  0.31908300  1
  H  108  1  0.08667900  0.13365000  0.35858400  1
  H  109  1  0.83176400  0.12486367  0.40784500  1
  H  110  1  0.85389800  0.09439567  0.44794533  1
  H  111  1  0.88439300  0.89647700  0.67804500  1
  H  112  1  0.85579200  0.86549300  0.71767967  1
  H  113  1  0.09613900  0.93104100  0.70264533  1
  H  114  1  0.06832500  0.89960700  0.74238633  1
  H  191  1  0.30363200  0.45603133  0.74430933  1
  H  192  1  0.28941900  0.46405533  0.70445000  1
  H  193  1  0.54813100  0.50882933  0.72352633  1
  H  194  1  0.53314500  0.51724800  0.68371067  1
  H  195  1  0.57730900  0.49679933  0.66048633  1
  H  196  1  0.56564300  0.50662267  0.62015267  1
  H  197  1  0.22710600  0.49757300  0.66415033  1
  H  198  1  0.21586600  0.50699667  0.62383800  1
  H  199  1  0.37587400  0.46380067  0.62364467  1
  H  200  1  0.37009100  0.44082667  0.60195867  1
  H  201  1  0.38477800  0.51095400  0.55296333  1
  H  202  1  0.38043400  0.54628267  0.51692400  1
  H  203  1  0.38325600  0.55570767  0.59818567  1
  H  204  1  0.37784500  0.59411833  0.55900067  1
  H  205  1  0.53607700  0.62083333  0.50695433  1
  H  206  1  0.51488100  0.66120267  0.49696067  1
  H  207  1  0.18845100  0.61180800  0.51375933  1
  H  208  1  0.16681200  0.65207867  0.50354000  1
  H  209  1  0.37929400  0.61648133  0.46795033  1
  H  210  1  0.38699800  0.59355800  0.44625833  1
  H  211  1  0.37503900  0.46317533  0.51087933  1
  H  212  1  0.38110700  0.50154967  0.47171933  1
  H  213  1  0.22231400  0.55752967  0.44382133  1
  H  214  1  0.23377700  0.56711500  0.40341333  1
  H  215  1  0.56624500  0.54319767  0.45185667  1
  H  216  1  0.57779100  0.55258067  0.41157667  1
  H  217  1  0.48710300  0.53311333  0.38783533  1
  H  218  1  0.49866900  0.54136300  0.34788567  1
  H  219  1  0.35325100  0.60807333  0.32431067  1
  H  220  1  0.34070300  0.59989133  0.36431300  1
  H  221  1  0.53434800  0.43616400  0.56341833  1
  H  222  1  0.51257400  0.39593033  0.57293300  1
  H  223  1  0.22162000  0.38267500  0.54431200  1
  H  224  1  0.18904300  0.34331967  0.55249667  1
  H  225  1  0.38774500  0.31692867  0.61353367  1
  H  226  1  0.42016900  0.35643600  0.60555900  1
  H  227  1  0.16510600  0.40568467  0.56510967  1
  H  228  1  0.18726000  0.44579100  0.55545567  1
  H  229  1  0.21797900  0.67590000  0.52334333  1
  H  230  1  0.18938800  0.71554600  0.51466233  1
  H  231  1  0.42939500  0.70045933  0.46412800  1
  H  232  1  0.40159000  0.74021167  0.45578900  1
  H  309  1  0.63693800  0.74215500  0.89751500  1
  H  310  1  0.62279100  0.70229100  0.92934433  1
  H  311  1  0.88105300  0.72137400  0.86541167  1
  H  312  1  0.86612500  0.68155367  0.89680400  1
  H  313  1  0.91056100  0.65831300  0.94046100  1
  H  314  1  0.89895200  0.61797967  0.97097167  1
  H  315  1  0.56034000  0.66200367  0.93613667  1
  H  316  1  0.54915400  0.62169167  0.96702500  1
  H  317  1  0.70929100  0.62149367  0.01035400  1
  H  318  1  0.70350800  0.59981467  0.05501300  1
  H  319  1  0.71803800  0.55080733  0.03389433  1
  H  320  1  0.71382200  0.51476567  0.03461233  1
  H  321  1  0.71623700  0.59601800  0.94391700  1
  H  322  1  0.71094700  0.55682900  0.94470000  1
  H  323  1  0.86954100  0.50484300  0.96997733  1
  H  324  1  0.84827800  0.49484400  0.93961067  1
  H  325  1  0.52188800  0.51152367  0.97232700  1
  H  326  1  0.50017700  0.50129767  0.94228233  1
  H  327  1  0.71292200  0.46578133  0.01340100  1
  H  328  1  0.72062300  0.44409867  0.05801467  1
  H  329  1  0.70812500  0.50873867  0.12375533  1
  H  330  1  0.71425400  0.46957567  0.12454833  1
  H  331  1  0.55576900  0.44167167  0.09646233  1
  H  332  1  0.56721100  0.40126400  0.12728733  1
  H  333  1  0.89966500  0.44970467  0.10278200  1
  H  334  1  0.91119200  0.40942533  0.13368133  1
  H  335  1  0.82038800  0.38567933  0.17688500  1
  H  336  1  0.83194600  0.34572700  0.20858167  1
  H  337  1  0.68674500  0.32216133  0.16542633  1
  H  338  1  0.67420800  0.36216600  0.13361033  1
  H  339  1  0.86768500  0.56127867  0.09820633  1
  H  340  1  0.84596200  0.57078467  0.12893400  1
  H  341  1  0.55526200  0.54211033  0.17085567  1
  H  342  1  0.52268500  0.55027233  0.20204400  1
  H  343  1  0.72094600  0.61136800  0.16736800  1
  H  344  1  0.75339100  0.60341367  0.13581900  1
  H  345  1  0.49850000  0.56293867  0.12705000  1
  H  346  1  0.52059800  0.55329767  0.09658733  1
  H  347  1  0.55103100  0.52112967  0.89864533  1
  H  348  1  0.52244000  0.51247167  0.86766567  1
  H  349  1  0.76299600  0.46198833  0.93319467  1
  H  350  1  0.73519000  0.45367767  0.90176467  1
  H  360  1  0.63752800  0.26929267  0.23886567  1
  H  361  1  0.64937600  0.23435267  0.27714033  1
  H  364  1  0.76599500  0.20273467  0.30704500  1
  H  366  1  0.84934700  0.29058567  0.19570433  1
  H  372  1  0.97116100  0.23676000  0.58955267  1
  H  373  1  0.98287800  0.27499100  0.58632700  1
  H  376  1  0.09935900  0.30482733  0.58820133  1
  H  378  1  0.18281200  0.19357233  0.61144800  1
  H  384  1  0.30421800  0.58749767  0.27144767  1
  H  385  1  0.31609300  0.58417867  0.23649900  1
  H  388  1  0.43272800  0.58591433  0.20487067  1
  H  390  1  0.51599200  0.60936800  0.29274833  1
  H  396  1  0.66852000  0.79739900  0.82982967  1
  H  397  1  0.66997600  0.83415800  0.79310300  1
  H  400  1  0.77926700  0.86265500  0.75843367  1
  H  402  1  0.92782000  0.76378500  0.85686533  1
  H  408  1  0.00187300  0.82765700  0.47061433  1
  H  409  1  0.00334900  0.79091433  0.47062500  1
  H  412  1  0.11266600  0.75626667  0.47676467  1
  H  414  1  0.26120700  0.85473300  0.47710633  1
  H  420  1  0.33545500  0.46838800  0.79956667  1
  H  421  1  0.33686200  0.46835267  0.83632700  1
  H  424  1  0.44606600  0.47455500  0.86481467  1
  H  426  1  0.59475100  0.47501400  0.76593933  1
  N  4  1  0.04837600  0.03141967  0.49863200  1
  N  8  1  0.04730300  0.99372300  0.55052700  1
  N  14  1  0.04829100  0.03272833  0.56295200  1
  N  20  1  0.04873900  0.07040100  0.51107133  1
  N  115  1  0.92989600  0.20203567  0.30672433  1
  N  116  1  0.10006100  0.85918800  0.47882233  1
  N  117  1  0.94268600  0.86279400  0.75563533  1
  N  118  1  0.10134200  0.20577267  0.58114767  1
  N  122  1  0.38145400  0.49646167  0.56775067  1
  N  126  1  0.38045500  0.54835233  0.55356800  1
  N  132  1  0.38153700  0.56079267  0.50213367  1
  N  138  1  0.38200300  0.50891633  0.51632533  1
  N  233  1  0.26328900  0.30454300  0.58910300  1
  N  234  1  0.43361500  0.47674600  0.75976167  1
  N  235  1  0.27610400  0.75348933  0.47935733  1
  N  236  1  0.43436200  0.57908600  0.31085167  1
  N  240  1  0.71487700  0.56559733  0.03359600  1
  N  244  1  0.71388400  0.55140533  0.99589467  1
  N  250  1  0.71511700  0.49997433  0.03489500  1
  N  256  1  0.71539400  0.51417500  0.07257333  1
  N  351  1  0.59663200  0.58690933  0.20419800  1
  N  352  1  0.76668500  0.75760900  0.86130600  1
  N  353  1  0.60947200  0.47722900  0.86495767  1
  N  354  1  0.76773700  0.30869633  0.20788233  1
  N  359  1  0.90461600  0.25725867  0.23941367  1
  N  362  1  0.91105800  0.23828900  0.26024233  1
  N  371  1  0.23812700  0.23725700  0.60115100  1
  N  374  1  0.24449800  0.25806100  0.59934967  1
  N  383  1  0.57127800  0.59900400  0.25941267  1
  N  386  1  0.57773600  0.59715333  0.24043833  1
  N  395  1  0.93836700  0.80301667  0.81935367  1
  N  398  1  0.93920500  0.82299733  0.79941200  1
  N  407  1  0.27176900  0.81725500  0.47532833  1
  N  410  1  0.27262400  0.79730067  0.47531433  1
  N  419  1  0.60525700  0.47331700  0.80516233  1
  N  422  1  0.60607000  0.47327533  0.82514400  1
