# generated using pymatgen
data_Cr3H20(C11O5)3
_symmetry_space_group_name_H-M   'P 1'
_cell_length_a   10.99358406
_cell_length_b   11.02016000
_cell_length_c   18.73390000
_cell_angle_alpha   89.75412000
_cell_angle_beta   89.43544158
_cell_angle_gamma   60.11279814
_symmetry_Int_Tables_number   1
_chemical_formula_structural   Cr3H20(C11O5)3
_chemical_formula_sum   'Cr6 H40 C66 O30'
_cell_volume   1967.69303108
_cell_formula_units_Z   2
loop_
 _symmetry_equiv_pos_site_id
 _symmetry_equiv_pos_as_xyz
  1  'x, y, z'
loop_
 _atom_site_type_symbol
 _atom_site_label
 _atom_site_symmetry_multiplicity
 _atom_site_fract_x
 _atom_site_fract_y
 _atom_site_fract_z
 _atom_site_occupancy
  C  C0  1  0.53880000  0.10716000  0.85379000  1
  C  C1  1  0.42239000  0.61770500  0.13907000  1
  C  C2  1  0.94057000  0.90289000  0.07805000  1
  C  C3  1  0.98650000  0.90062000  0.93142500  1
  C  C4  1  0.93589000  0.01869500  0.04509500  1
  C  C5  1  0.96621000  0.01397500  0.97262000  1
  C  C6  1  0.44115000  0.62096000  0.06218000  1
  C  C7  1  0.49114000  0.17649000  0.92201000  1
  C  C8  1  0.57024000  0.53617000  0.02896000  1
  C  C9  1  0.39798000  0.15532000  0.96497500  1
  C  C10  1  0.59128000  0.55372500  0.95778000  1
  C  C11  1  0.39614000  0.17101000  0.03838500  1
  C  C12  1  0.34866000  0.72974500  0.94729000  1
  C  C13  1  0.57112000  0.24091000  0.02663000  1
  C  C14  1  0.32758000  0.71159500  0.01940000  1
  C  C15  1  0.56736000  0.23260000  0.95305000  1
  C  C16  1  0.71443000  0.50344000  0.04925500  1
  C  C17  1  0.37921000  0.03010000  0.97127500  1
  C  C18  1  0.73847000  0.52157500  0.97064500  1
  C  C19  1  0.37709000  0.04743500  0.05178000  1
  C  C20  1  0.48423000  0.65836500  0.91727000  1
  C  C21  1  0.49037000  0.20353000  0.07032000  1
  C  C22  1  0.93866000  0.68704000  0.85239000  1
  C  C23  1  0.06534000  0.62186500  0.14612000  1
  C  C24  1  0.11076000  0.59900000  0.43779000  1
  C  C25  1  0.03260000  0.63989000  0.58331000  1
  C  C26  1  0.07916000  0.50728000  0.47385000  1
  C  C27  1  0.04130000  0.52709000  0.54469000  1
  C  C28  1  0.09920000  0.70887000  0.55275000  1
  C  C29  1  0.13232000  0.69272000  0.47908000  1
  C  C30  1  0.97593000  0.46142500  0.45620000  1
  C  C31  1  0.93328000  0.48482000  0.53381000  1
  C  C32  1  0.49055000  0.67059500  0.42414000  1
  C  C33  1  0.49574000  0.19304000  0.58283000  1
  C  C34  1  0.38322000  0.78212500  0.46119000  1
  C  C35  1  0.58692000  0.22533000  0.54436000  1
  C  C36  1  0.38334000  0.78785500  0.53445500  1
  C  C37  1  0.58280000  0.22858000  0.47165000  1
  C  C38  1  0.59652000  0.56564500  0.53748000  1
  C  C39  1  0.37042000  0.22054000  0.47202000  1
  C  C40  1  0.59746000  0.56101000  0.46291000  1
  C  C41  1  0.37544000  0.21181500  0.54704000  1
  C  C42  1  0.33616000  0.93364500  0.45245500  1
  C  C43  1  0.74022000  0.18678000  0.53996000  1
  C  C44  1  0.51570000  0.70999500  0.85193000  1
  C  C45  1  0.48084000  0.23425000  0.14569500  1
  C  C46  1  0.33590000  0.94086000  0.53308500  1
  C  C47  1  0.73312000  0.18160000  0.45916000  1
  C  C48  1  0.49262000  0.68219500  0.57378000  1
  C  C49  1  0.48322000  0.21535000  0.43321000  1
  C  C50  1  0.53924000  0.11304000  0.64914000  1
  C  C51  1  0.45968000  0.64927000  0.35196000  1
  C  C52  1  0.94285000  0.68489500  0.64833000  1
  C  C53  1  0.13119000  0.58637000  0.36028000  1
  C  C54  1  0.51692000  0.71434500  0.64532000  1
  C  C55  1  0.47880000  0.23813000  0.35689000  1
  C  C56  1  0.01826000  0.65030500  0.07192000  1
  C  C57  1  0.00388000  0.66769000  0.92262000  1
  C  C58  1  0.97941000  0.77961000  0.03859000  1
  C  C59  1  0.98766000  0.78370000  0.96322500  1
  C  C60  1  0.04628000  0.54053000  0.95640000  1
  C  C61  1  0.05202000  0.53202000  0.02965000  1
  C  C62  1  0.19354000  0.01671500  0.41884000  1
  C  C63  1  0.84444000  0.05193000  0.57138000  1
  C  C64  1  0.84496000  0.38546500  0.93418500  1
  C  C65  1  0.50173000  0.92604500  0.08959000  1
  Cr  Cr66  1  0.45598000  0.94168000  0.74991000  1
  Cr  Cr67  1  0.54402000  0.39766000  0.25009000  1
  Cr  Cr68  1  0.77000000  0.93826000  0.75074000  1
  Cr  Cr69  1  0.23000000  0.70826000  0.24926000  1
  Cr  Cr70  1  0.76658000  0.62747000  0.74916000  1
  Cr  Cr71  1  0.23342000  0.39405000  0.25084000  1
  H  H72  1  0.06954000  0.44811000  0.92594000  1
  H  H73  1  0.08738000  0.42971000  0.05286000  1
  H  H74  1  0.11329000  0.78386000  0.58266000  1
  H  H75  1  0.16485000  0.75928500  0.45343000  1
  H  H76  1  0.02724000  0.34956000  0.44029000  1
  H  H77  1  0.82686000  0.57571000  0.54217000  1
  H  H78  1  0.89124000  0.53524500  0.42015000  1
  H  H79  1  0.95762000  0.38721000  0.56288000  1
  H  H80  1  0.68393000  0.48673500  0.56671000  1
  H  H81  1  0.28186000  0.22589000  0.44467000  1
  H  H82  1  0.68304000  0.47522500  0.43527000  1
  H  H83  1  0.29332000  0.20445500  0.57564000  1
  H  H84  1  0.41791000  0.95051500  0.42635000  1
  H  H85  1  0.75724000  0.27171000  0.55839500  1
  H  H86  1  0.41976000  0.95927500  0.55319000  1
  H  H87  1  0.75254000  0.25815500  0.43079000  1
  H  H88  1  0.23114000  0.00510500  0.55870500  1
  H  H89  1  0.78946000  0.07491500  0.43531000  1
  H  H90  1  0.91793000  0.90927000  0.13465000  1
  H  H91  1  0.01300000  0.90107000  0.87576000  1
  H  H92  1  0.91443000  0.10975500  0.07633000  1
  H  H93  1  0.97719000  0.09642500  0.94804000  1
  H  H94  1  0.26254000  0.81001500  0.91732000  1
  H  H95  1  0.64075000  0.27277000  0.04930500  1
  H  H96  1  0.22574000  0.77710500  0.04317000  1
  H  H97  1  0.63647000  0.25448500  0.92108000  1
  H  H98  1  0.77829000  0.39482000  0.06972500  1
  H  H99  1  0.47159000  0.93302500  0.95083000  1
  H  H100  1  0.71406000  0.58531500  0.08390500  1
  H  H101  1  0.27658000  0.05091500  0.94990000  1
  H  H102  1  0.75491000  0.61182500  0.96020000  1
  H  H103  1  0.27368000  0.07735500  0.07674500  1
  H  H104  1  0.08014000  0.14411500  0.33851500  1
  H  H105  1  0.98914000  0.96186500  0.64984000  1
  H  H106  1  0.86116000  0.40520000  0.87783500  1
  H  H107  1  0.94652000  0.33786000  0.96257000  1
  H  H108  1  0.80617000  0.31035000  0.93455000  1
  H  H109  1  0.49216000  0.83115500  0.08653500  1
  H  H110  1  0.60329000  0.90280500  0.06458000  1
  H  H111  1  0.50178000  0.95249500  0.14669000  1
  O  O112  1  0.42496000  0.83033000  0.82956000  1
  O  O113  1  0.57504000  0.25529000  0.17044000  1
  O  O114  1  0.88678000  0.80949000  0.67602000  1
  O  O115  1  0.11322000  0.69627000  0.32398000  1
  O  O116  1  0.90810000  0.59716000  0.66914000  1
  O  O117  1  0.09190000  0.50526000  0.33086000  1
  O  O118  1  0.63722000  0.64087000  0.67449000  1
  O  O119  1  0.36278000  0.27809000  0.32551000  1
  O  O120  1  0.66420000  0.83580000  0.74994000  1
  O  O121  1  0.33580000  0.50000000  0.25006000  1
  O  O122  1  0.46872000  0.05774000  0.82498000  1
  O  O123  1  0.53128000  0.52646000  0.17502000  1
  O  O124  1  0.65962000  0.07903000  0.83146000  1
  O  O125  1  0.34038000  0.73865000  0.16854000  1
  O  O126  1  0.88676000  0.80803000  0.82484000  1
  O  O127  1  0.11324000  0.69479000  0.17516000  1
  O  O128  1  0.90808000  0.59558000  0.82968000  1
  O  O129  1  0.09192000  0.50366000  0.17032000  1
  O  O130  1  0.63722000  0.63940000  0.82331000  1
  O  O131  1  0.36278000  0.27662000  0.17669000  1
  O  O132  1  0.42498000  0.83190000  0.66903000  1
  O  O133  1  0.57502000  0.25688000  0.33097000  1
  O  O134  1  0.46874000  0.05920000  0.67616000  1
  O  O135  1  0.53126000  0.52794000  0.32384000  1
  O  O136  1  0.65962000  0.08061000  0.67092000  1
  O  O137  1  0.34038000  0.74023000  0.32908000  1
  O  O138  1  0.09036000  0.01952000  0.44583000  1
  O  O139  1  0.18030000  0.09153500  0.35624000  1
  O  O140  1  0.84310000  0.94561000  0.55523000  1
  O  O141  1  0.93724000  0.05184000  0.62201000  1
