# generated using pymatgen
data_Gd7H53(C17O7)5
_symmetry_space_group_name_H-M   'P 1'
_cell_length_a   20.77443000
_cell_length_b   25.06957000
_cell_length_c   25.12804000
_cell_angle_alpha   98.02238000
_cell_angle_beta   90.00456000
_cell_angle_gamma   90.08412000
_symmetry_Int_Tables_number   1
_chemical_formula_structural   Gd7H53(C17O7)5
_chemical_formula_sum   'Gd28 H212 C340 O140'
_cell_volume   12958.74759357
_cell_formula_units_Z   4
loop_
 _symmetry_equiv_pos_site_id
 _symmetry_equiv_pos_as_xyz
  1  'x, y, z'
loop_
 _atom_site_type_symbol
 _atom_site_label
 _atom_site_symmetry_multiplicity
 _atom_site_fract_x
 _atom_site_fract_y
 _atom_site_fract_z
 _atom_site_occupancy
  Gd  Gd1  1  0.53732000  0.87783000  0.79253000  1.0
  Gd  Gd2  1  0.52997000  0.80070000  0.91013000  1.0
  Gd  Gd3  1  0.49231000  0.72539000  0.77393000  1.0
  Gd  Gd4  1  0.37216000  0.83495000  0.84368000  1.0
  Gd  Gd5  1  0.45654000  0.58967000  0.69198000  1.0
  Gd  Gd6  1  0.44938000  0.71244000  0.62040000  1.0
  Gd  Gd7  1  0.60909000  0.66233000  0.66285000  1.0
  Gd  Gd8  1  0.03750000  0.62204000  0.20799000  1.0
  Gd  Gd9  1  0.02959000  0.69947000  0.09109000  1.0
  Gd  Gd10  1  0.99494000  0.77428000  0.22703000  1.0
  Gd  Gd11  1  0.87194000  0.66517000  0.15712000  1.0
  Gd  Gd12  1  0.95729000  0.90916000  0.30770000  1.0
  Gd  Gd13  1  0.94979000  0.78739000  0.37986000  1.0
  Gd  Gd14  1  0.11020000  0.83904000  0.33864000  1.0
  Gd  Gd15  1  0.46269000  0.12217000  0.20747000  1.0
  Gd  Gd16  1  0.47003000  0.19931000  0.08987000  1.0
  Gd  Gd17  1  0.50770000  0.27461000  0.22607000  1.0
  Gd  Gd18  1  0.62785000  0.16505000  0.15632000  1.0
  Gd  Gd19  1  0.54347000  0.41033000  0.30802000  1.0
  Gd  Gd20  1  0.55063000  0.28756000  0.37960000  1.0
  Gd  Gd21  1  0.39091000  0.33767000  0.33715000  1.0
  Gd  Gd22  1  0.96250000  0.37796000  0.79201000  1.0
  Gd  Gd23  1  0.97042000  0.30053000  0.90891000  1.0
  Gd  Gd24  1  0.00507000  0.22572000  0.77297000  1.0
  Gd  Gd25  1  0.12807000  0.33483000  0.84288000  1.0
  Gd  Gd26  1  0.04271000  0.09084000  0.69230000  1.0
  Gd  Gd27  1  0.05022000  0.21261000  0.62014000  1.0
  Gd  Gd28  1  0.88980000  0.16096000  0.66137000  1.0
  H  H1  1  0.61176000  0.78141000  0.81493000  1.0
  H  H2  1  0.43098000  0.81736000  0.73279000  1.0
  H  H3  1  0.46596000  0.90322000  0.89512000  1.0
  H  H4  1  0.42430000  0.73058000  0.86540000  1.0
  H  H5  1  0.37514000  0.68467000  0.71194000  1.0
  H  H6  1  0.55966000  0.63490000  0.76549000  1.0
  H  H7  1  0.55391000  0.76972000  0.68278000  1.0
  H  H8  1  0.27967000  0.94679000  0.93750000  1.0
  H  H9  1  0.51466000  0.60769000  0.58757000  1.0
  H  H10  1  0.34389000  0.68527000  0.89160000  1.0
  H  H11  1  0.36628000  0.51727000  0.83012000  1.0
  H  H12  1  0.28970000  0.66094000  0.97256000  1.0
  H  H13  1  0.30861000  0.49239000  0.90971000  1.0
  H  H14  1  0.53699000  0.45737000  0.73171000  1.0
  H  H15  1  0.72593000  0.50958000  0.69213000  1.0
  H  H16  1  0.28294000  0.52116000  0.62683000  1.0
  H  H17  1  0.27925000  0.64036000  0.51965000  1.0
  H  H18  1  0.52844000  0.76801000  0.47681000  1.0
  H  H19  1  0.70839000  0.69339000  0.50609000  1.0
  H  H20  1  0.58491000  0.38331000  0.77462000  1.0
  H  H21  1  0.77442000  0.43450000  0.73416000  1.0
  H  H22  1  0.57495000  0.80070000  0.39620000  1.0
  H  H23  1  0.75636000  0.72744000  0.42698000  1.0
  H  H24  1  0.14878000  0.50528000  0.49541000  1.0
  H  H25  1  0.19929000  0.62540000  0.00979000  1.0
  H  H26  1  0.33089000  0.49184000  0.99761000  1.0
  H  H27  1  0.18758000  0.48022000  0.66238000  1.0
  H  H28  1  0.19059000  0.41764000  0.49386000  1.0
  H  H29  1  0.18353000  0.67588000  0.47768000  1.0
  H  H30  1  0.18706000  0.50763000  0.41216000  1.0
  H  H31  1  0.76051000  0.32685000  0.70271000  1.0
  H  H32  1  0.66198000  0.36952000  0.85368000  1.0
  H  H33  1  0.14759000  0.39096000  0.68324000  1.0
  H  H34  1  0.14989000  0.32897000  0.51532000  1.0
  H  H35  1  0.14005000  0.69805000  0.39071000  1.0
  H  H36  1  0.14298000  0.53034000  0.32562000  1.0
  H  H37  1  0.64812000  0.86228000  0.36906000  1.0
  H  H38  1  0.74874000  0.71141000  0.32870000  1.0
  H  H39  1  0.20072000  0.52182000  0.13200000  1.0
  H  H40  1  0.30701000  0.48638000  0.16811000  1.0
  H  H41  1  0.29045000  0.40511000  0.00562000  1.0
  H  H42  1  0.77197000  0.22264000  0.82425000  1.0
  H  H43  1  0.75498000  0.82909000  0.22078000  1.0
  H  H44  1  0.36764000  0.40864000  0.19317000  1.0
  H  H45  1  0.35269000  0.32783000  0.03111000  1.0
  H  H46  1  0.59252000  0.29949000  0.88154000  1.0
  H  H47  1  0.78237000  0.24988000  0.92297000  1.0
  H  H48  1  0.57907000  0.89467000  0.30922000  1.0
  H  H49  1  0.76150000  0.92359000  0.23644000  1.0
  H  H50  1  0.54723000  0.26024000  0.95894000  1.0
  H  H51  1  0.73635000  0.21287000  0.00196000  1.0
  H  H52  1  0.53509000  0.97734000  0.27886000  1.0
  H  H53  1  0.71665000  0.00548000  0.20541000  1.0
  H  H54  1  0.11348000  0.71765000  0.18514000  1.0
  H  H55  1  0.93173000  0.68320000  0.26795000  1.0
  H  H56  1  0.96463000  0.59696000  0.10660000  1.0
  H  H57  1  0.92473000  0.76999000  0.13727000  1.0
  H  H58  1  0.87685000  0.81321000  0.28669000  1.0
  H  H59  1  0.06227000  0.86487000  0.23546000  1.0
  H  H60  1  0.05648000  0.73052000  0.31894000  1.0
  H  H61  1  0.77944000  0.55379000  0.06188000  1.0
  H  H62  1  0.01353000  0.89227000  0.41294000  1.0
  H  H63  1  0.84528000  0.81397000  0.10849000  1.0
  H  H64  1  0.86703000  0.98196000  0.17031000  1.0
  H  H65  1  0.79171000  0.83823000  0.02729000  1.0
  H  H66  1  0.80992000  0.00680000  0.09051000  1.0
  H  H67  1  0.03693000  0.04250000  0.26799000  1.0
  H  H68  1  0.22558000  0.99131000  0.30901000  1.0
  H  H69  1  0.78325000  0.97874000  0.37212000  1.0
  H  H70  1  0.78032000  0.85965000  0.47942000  1.0
  H  H71  1  0.02781000  0.73190000  0.52425000  1.0
  H  H72  1  0.20792000  0.80674000  0.49502000  1.0
  H  H73  1  0.08516000  0.11580000  0.22404000  1.0
  H  H74  1  0.27453000  0.06549000  0.26571000  1.0
  H  H75  1  0.07446000  0.69885000  0.60452000  1.0
  H  H76  1  0.25610000  0.77193000  0.57360000  1.0
  H  H77  1  0.64985000  0.99451000  0.50394000  1.0
  H  H78  1  0.70046000  0.87406000  0.99009000  1.0
  H  H79  1  0.83238000  0.00773000  0.00269000  1.0
  H  H80  1  0.68850000  0.01998000  0.33687000  1.0
  H  H81  1  0.69125000  0.08208000  0.50550000  1.0
  H  H82  1  0.68405000  0.82365000  0.52259000  1.0
  H  H83  1  0.68659000  0.99221000  0.58719000  1.0
  H  H84  1  0.26209000  0.17225000  0.29524000  1.0
  H  H85  1  0.16070000  0.13000000  0.14549000  1.0
  H  H86  1  0.64803000  0.10901000  0.31627000  1.0
  H  H87  1  0.64998000  0.17055000  0.48438000  1.0
  H  H88  1  0.63923000  0.80199000  0.60919000  1.0
  H  H89  1  0.64097000  0.96991000  0.67323000  1.0
  H  H90  1  0.14745000  0.63750000  0.63167000  1.0
  H  H91  1  0.24898000  0.78818000  0.67145000  1.0
  H  H92  1  0.70166000  0.97853000  0.86859000  1.0
  H  H93  1  0.80742000  0.01325000  0.83229000  1.0
  H  H94  1  0.79157000  0.09452000  0.99483000  1.0
  H  H95  1  0.27223000  0.27636000  0.17341000  1.0
  H  H96  1  0.25484000  0.67081000  0.77977000  1.0
  H  H97  1  0.86781000  0.09117000  0.80699000  1.0
  H  H98  1  0.85331000  0.17219000  0.96902000  1.0
  H  H99  1  0.09173000  0.19986000  0.11724000  1.0
  H  H100  1  0.28179000  0.24974000  0.07613000  1.0
  H  H101  1  0.07987000  0.60369000  0.68997000  1.0
  H  H102  1  0.26227000  0.57646000  0.76353000  1.0
  H  H103  1  0.04661000  0.23993000  0.04031000  1.0
  H  H104  1  0.23588000  0.28749000  0.99755000  1.0
  H  H105  1  0.03620000  0.52082000  0.72052000  1.0
  H  H106  1  0.21782000  0.49408000  0.79443000  1.0
  H  H107  1  0.38825000  0.21859000  0.18507000  1.0
  H  H108  1  0.56903000  0.18265000  0.26721000  1.0
  H  H109  1  0.53405000  0.09679000  0.10488000  1.0
  H  H110  1  0.57571000  0.26942000  0.13460000  1.0
  H  H111  1  0.62487000  0.31533000  0.28806000  1.0
  H  H112  1  0.44034000  0.36510000  0.23451000  1.0
  H  H113  1  0.44610000  0.23028000  0.31722000  1.0
  H  H114  1  0.72034000  0.05321000  0.06250000  1.0
  H  H115  1  0.48535000  0.39231000  0.41243000  1.0
  H  H116  1  0.65611000  0.31473000  0.10840000  1.0
  H  H117  1  0.63373000  0.48273000  0.16988000  1.0
  H  H118  1  0.71031000  0.33906000  0.02744000  1.0
  H  H119  1  0.69140000  0.50761000  0.09029000  1.0
  H  H120  1  0.46302000  0.54264000  0.26829000  1.0
  H  H121  1  0.27408000  0.49043000  0.30787000  1.0
  H  H122  1  0.71707000  0.47884000  0.37318000  1.0
  H  H123  1  0.72076000  0.35964000  0.48035000  1.0
  H  H124  1  0.47157000  0.23199000  0.52319000  1.0
  H  H125  1  0.29162000  0.30661000  0.49391000  1.0
  H  H126  1  0.41509000  0.61669000  0.22538000  1.0
  H  H127  1  0.22559000  0.56550000  0.26584000  1.0
  H  H128  1  0.42506000  0.19930000  0.60380000  1.0
  H  H129  1  0.24365000  0.27257000  0.57302000  1.0
  H  H130  1  0.85123000  0.49472000  0.50459000  1.0
  H  H131  1  0.80072000  0.37460000  0.99021000  1.0
  H  H132  1  0.66911000  0.50816000  0.00239000  1.0
  H  H133  1  0.81243000  0.51978000  0.33762000  1.0
  H  H134  1  0.80941000  0.58237000  0.50614000  1.0
  H  H135  1  0.81648000  0.32413000  0.52232000  1.0
  H  H136  1  0.81295000  0.49238000  0.58784000  1.0
  H  H137  1  0.23949000  0.67315000  0.29730000  1.0
  H  H138  1  0.33802000  0.63048000  0.14632000  1.0
  H  H139  1  0.85242000  0.60904000  0.31676000  1.0
  H  H140  1  0.85012000  0.67103000  0.48468000  1.0
  H  H141  1  0.85995000  0.30195000  0.60930000  1.0
  H  H142  1  0.85703000  0.46966000  0.67438000  1.0
  H  H143  1  0.35189000  0.13772000  0.63095000  1.0
  H  H144  1  0.25126000  0.28859000  0.67130000  1.0
  H  H145  1  0.79929000  0.47818000  0.86800000  1.0
  H  H146  1  0.69300000  0.51362000  0.83189000  1.0
  H  H147  1  0.70955000  0.59490000  0.99438000  1.0
  H  H148  1  0.22804000  0.77736000  0.17575000  1.0
  H  H149  1  0.24503000  0.17091000  0.77922000  1.0
  H  H150  1  0.63236000  0.59136000  0.80683000  1.0
  H  H151  1  0.64731000  0.67218000  0.96889000  1.0
  H  H152  1  0.40749000  0.70051000  0.11846000  1.0
  H  H153  1  0.21764000  0.75012000  0.07703000  1.0
  H  H154  1  0.42093000  0.10534000  0.69079000  1.0
  H  H155  1  0.23850000  0.07641000  0.76356000  1.0
  H  H156  1  0.45278000  0.73976000  0.04106000  1.0
  H  H157  1  0.26366000  0.78714000  0.99804000  1.0
  H  H158  1  0.46491000  0.02266000  0.72114000  1.0
  H  H159  1  0.28336000  0.99452000  0.79459000  1.0
  H  H160  1  0.88653000  0.28235000  0.81486000  1.0
  H  H161  1  0.06828000  0.31680000  0.73205000  1.0
  H  H162  1  0.03538000  0.40305000  0.89341000  1.0
  H  H163  1  0.07527000  0.23001000  0.86273000  1.0
  H  H164  1  0.12315000  0.18679000  0.71331000  1.0
  H  H165  1  0.93774000  0.13513000  0.76454000  1.0
  H  H166  1  0.94352000  0.26948000  0.68106000  1.0
  H  H167  1  0.22057000  0.44621000  0.93812000  1.0
  H  H168  1  0.98648000  0.10773000  0.58706000  1.0
  H  H169  1  0.15473000  0.18603000  0.89151000  1.0
  H  H170  1  0.13298000  0.01804000  0.82969000  1.0
  H  H171  1  0.20830000  0.16177000  0.97271000  1.0
  H  H172  1  0.19008000  0.99320000  0.90949000  1.0
  H  H173  1  0.96308000  0.95750000  0.73201000  1.0
  H  H174  1  0.77443000  0.00869000  0.69099000  1.0
  H  H175  1  0.21676000  0.02126000  0.62788000  1.0
  H  H176  1  0.21969000  0.14035000  0.52058000  1.0
  H  H177  1  0.97220000  0.26811000  0.47575000  1.0
  H  H178  1  0.79209000  0.19326000  0.50499000  1.0
  H  H179  1  0.91484000  0.88420000  0.77596000  1.0
  H  H180  1  0.72547000  0.93452000  0.73429000  1.0
  H  H181  1  0.92554000  0.30115000  0.39548000  1.0
  H  H182  1  0.74391000  0.22807000  0.42640000  1.0
  H  H183  1  0.35015000  0.00549000  0.49606000  1.0
  H  H184  1  0.29955000  0.12595000  0.00991000  1.0
  H  H185  1  0.16762000  0.99227000  0.99731000  1.0
  H  H186  1  0.31151000  0.98002000  0.66313000  1.0
  H  H187  1  0.30875000  0.91792000  0.49450000  1.0
  H  H188  1  0.31595000  0.17635000  0.47742000  1.0
  H  H189  1  0.31342000  0.00779000  0.41280000  1.0
  H  H190  1  0.73792000  0.82775000  0.70476000  1.0
  H  H191  1  0.83931000  0.87000000  0.85451000  1.0
  H  H192  1  0.35197000  0.89099000  0.68373000  1.0
  H  H193  1  0.35002000  0.82945000  0.51562000  1.0
  H  H194  1  0.36078000  0.19802000  0.39081000  1.0
  H  H195  1  0.35904000  0.03010000  0.32677000  1.0
  H  H196  1  0.85256000  0.36250000  0.36833000  1.0
  H  H197  1  0.75103000  0.21182000  0.32855000  1.0
  H  H198  1  0.29834000  0.02147000  0.13141000  1.0
  H  H199  1  0.19258000  0.98675000  0.16771000  1.0
  H  H200  1  0.20844000  0.90548000  0.00517000  1.0
  H  H201  1  0.72777000  0.72364000  0.82659000  1.0
  H  H202  1  0.74517000  0.32919000  0.22023000  1.0
  H  H203  1  0.13220000  0.90883000  0.19301000  1.0
  H  H204  1  0.14670000  0.82782000  0.03098000  1.0
  H  H205  1  0.90828000  0.80015000  0.88276000  1.0
  H  H206  1  0.71822000  0.75026000  0.92387000  1.0
  H  H207  1  0.92014000  0.39631000  0.31003000  1.0
  H  H208  1  0.73773000  0.42354000  0.23647000  1.0
  H  H209  1  0.95340000  0.76007000  0.95969000  1.0
  H  H210  1  0.76413000  0.71251000  0.00245000  1.0
  H  H211  1  0.96381000  0.47918000  0.27948000  1.0
  H  H212  1  0.78219000  0.50592000  0.20557000  1.0
  C  C1  1  0.40047000  0.61657000  0.81198000  1.0
  C  C2  1  0.30549000  0.91535000  0.91034000  1.0
  C  C3  1  0.36069000  0.60254000  0.85684000  1.0
  C  C4  1  0.59711000  0.53063000  0.68135000  1.0
  C  C5  1  0.34193000  0.60935000  0.60475000  1.0
  C  C6  1  0.58572000  0.70926000  0.54496000  1.0
  C  C7  1  0.33726000  0.64311000  0.89628000  1.0
  C  C8  1  0.34906000  0.54822000  0.86151000  1.0
  C  C9  1  0.62815000  0.48796000  0.70837000  1.0
  C  C10  1  0.28472000  0.58381000  0.57657000  1.0
  C  C11  1  0.61500000  0.72813000  0.49648000  1.0
  C  C12  1  0.30550000  0.62937000  0.94112000  1.0
  C  C13  1  0.31735000  0.53461000  0.90639000  1.0
  C  C14  1  0.58889000  0.45249000  0.73276000  1.0
  C  C15  1  0.69528000  0.48165000  0.71000000  1.0
  C  C16  1  0.26112000  0.53619000  0.59259000  1.0
  C  C17  1  0.25923000  0.60378000  0.53177000  1.0
  C  C18  1  0.57820000  0.75924000  0.46536000  1.0
  C  C19  1  0.67937000  0.71683000  0.48175000  1.0
  C  C20  1  0.29661000  0.57495000  0.94744000  1.0
  C  C21  1  0.61591000  0.41116000  0.75696000  1.0
  C  C22  1  0.72235000  0.43946000  0.73329000  1.0
  C  C23  1  0.21233000  0.50719000  0.56318000  1.0
  C  C24  1  0.21078000  0.57477000  0.50160000  1.0
  C  C25  1  0.60482000  0.77792000  0.42054000  1.0
  C  C26  1  0.70601000  0.73569000  0.43683000  1.0
  C  C27  1  0.26850000  0.56026000  0.99722000  1.0
  C  C28  1  0.68294000  0.40311000  0.75639000  1.0
  C  C29  1  0.19000000  0.45500000  0.57676000  1.0
  C  C30  1  0.18749000  0.52714000  0.51811000  1.0
  C  C31  1  0.18662000  0.59025000  0.45092000  1.0
  C  C32  1  0.66917000  0.76646000  0.40507000  1.0
  C  C33  1  0.21987000  0.59085000  0.02532000  1.0
  C  C34  1  0.29170000  0.51500000  0.01810000  1.0
  C  C35  1  0.70990000  0.35496000  0.77684000  1.0
  C  C36  1  0.17941000  0.44706000  0.63031000  1.0
  C  C37  1  0.18000000  0.41209000  0.53512000  1.0
  C  C38  1  0.17462000  0.64409000  0.44441000  1.0
  C  C39  1  0.17554000  0.54911000  0.40779000  1.0
  C  C40  1  0.69557000  0.78509000  0.35574000  1.0
  C  C41  1  0.19598000  0.57665000  0.07346000  1.0
  C  C42  1  0.26821000  0.50017000  0.06632000  1.0
  C  C43  1  0.74910000  0.31919000  0.74323000  1.0
  C  C44  1  0.69262000  0.34196000  0.82764000  1.0
  C  C45  1  0.15650000  0.39783000  0.64208000  1.0
  C  C46  1  0.15800000  0.36276000  0.54674000  1.0
  C  C47  1  0.14967000  0.65650000  0.39609000  1.0
  C  C48  1  0.15176000  0.56139000  0.35959000  1.0
  C  C49  1  0.67774000  0.83543000  0.34141000  1.0
  C  C50  1  0.73567000  0.75152000  0.32051000  1.0
  C  C51  1  0.22057000  0.53193000  0.09460000  1.0
  C  C52  1  0.14186000  0.60830000  0.10093000  1.0
  C  C53  1  0.29641000  0.45185000  0.08465000  1.0
  C  C54  1  0.77151000  0.27200000  0.76093000  1.0
  C  C55  1  0.71461000  0.29461000  0.84587000  1.0
  C  C56  1  0.14489000  0.35593000  0.60015000  1.0
  C  C57  1  0.13798000  0.61503000  0.35377000  1.0
  C  C58  1  0.69828000  0.85250000  0.29307000  1.0
  C  C59  1  0.75720000  0.76804000  0.27246000  1.0
  C  C60  1  0.31631000  0.45154000  0.13809000  1.0
  C  C61  1  0.30809000  0.40614000  0.04654000  1.0
  C  C62  1  0.75554000  0.26043000  0.81232000  1.0
  C  C63  1  0.80868000  0.23104000  0.72477000  1.0
  C  C64  1  0.69056000  0.27733000  0.89640000  1.0
  C  C65  1  0.11677000  0.30426000  0.61017000  1.0
  C  C66  1  0.11108000  0.62430000  0.30146000  1.0
  C  C67  1  0.73926000  0.81845000  0.25926000  1.0
  C  C68  1  0.67388000  0.90314000  0.27599000  1.0
  C  C69  1  0.79574000  0.73059000  0.23264000  1.0
  C  C70  1  0.35100000  0.40806000  0.15208000  1.0
  C  C71  1  0.34228000  0.36270000  0.06064000  1.0
  C  C72  1  0.62437000  0.28116000  0.90817000  1.0
  C  C73  1  0.73086000  0.25270000  0.93093000  1.0
  C  C74  1  0.60987000  0.91939000  0.28758000  1.0
  C  C75  1  0.71177000  0.93492000  0.24581000  1.0
  C  C76  1  0.36567000  0.36390000  0.11317000  1.0
  C  C77  1  0.59874000  0.25896000  0.95136000  1.0
  C  C78  1  0.70537000  0.23177000  0.97511000  1.0
  C  C79  1  0.58468000  0.96542000  0.27038000  1.0
  C  C80  1  0.68685000  0.98109000  0.22831000  1.0
  C  C81  1  0.40801000  0.31963000  0.12553000  1.0
  C  C82  1  0.63884000  0.23363000  0.98515000  1.0
  C  C83  1  0.62298000  0.99713000  0.24081000  1.0
  C  C84  1  0.61042000  0.20847000  0.03056000  1.0
  C  C85  1  0.59748000  0.04780000  0.22600000  1.0
  C  C86  1  0.90093000  0.88324000  0.18890000  1.0
  C  C87  1  0.80541000  0.58486000  0.08947000  1.0
  C  C88  1  0.86179000  0.89673000  0.14349000  1.0
  C  C89  1  0.09700000  0.97017000  0.31968000  1.0
  C  C90  1  0.84194000  0.89030000  0.39406000  1.0
  C  C91  1  0.08559000  0.79159000  0.45625000  1.0
  C  C92  1  0.83874000  0.85614000  0.10385000  1.0
  C  C93  1  0.85013000  0.95101000  0.13875000  1.0
  C  C94  1  0.12799000  0.01246000  0.29204000  1.0
  C  C95  1  0.78519000  0.91616000  0.42256000  1.0
  C  C96  1  0.11449000  0.77204000  0.50455000  1.0
  C  C97  1  0.80725000  0.86983000  0.05884000  1.0
  C  C98  1  0.81869000  0.96459000  0.09377000  1.0
  C  C99  1  0.08886000  0.04739000  0.26696000  1.0
  C  C100  1  0.19514000  0.01883000  0.29049000  1.0
  C  C101  1  0.76168000  0.96374000  0.40651000  1.0
  C  C102  1  0.75999000  0.89621000  0.46757000  1.0
  C  C103  1  0.07760000  0.74078000  0.53558000  1.0
  C  C104  1  0.17888000  0.78324000  0.51930000  1.0
  C  C105  1  0.79821000  0.92423000  0.05257000  1.0
  C  C106  1  0.11607000  0.08829000  0.24217000  1.0
  C  C107  1  0.22243000  0.06052000  0.26652000  1.0
  C  C108  1  0.71319000  0.99274000  0.43614000  1.0
  C  C109  1  0.71171000  0.92511000  0.49797000  1.0
  C  C110  1  0.10428000  0.72179000  0.58021000  1.0
  C  C111  1  0.20563000  0.76397000  0.56388000  1.0
  C  C112  1  0.77003000  0.93907000  0.00285000  1.0
  C  C113  1  0.18314000  0.09636000  0.24271000  1.0
  C  C114  1  0.69079000  0.04492000  0.42260000  1.0
  C  C115  1  0.68857000  0.97274000  0.48133000  1.0
  C  C116  1  0.68696000  0.90953000  0.54861000  1.0
  C  C117  1  0.16872000  0.73313000  0.59552000  1.0
  C  C118  1  0.72112000  0.90871000  0.97474000  1.0
  C  C119  1  0.79315000  0.98452000  0.98219000  1.0
  C  C120  1  0.21031000  0.14412000  0.22165000  1.0
  C  C121  1  0.68015000  0.05297000  0.36907000  1.0
  C  C122  1  0.68058000  0.08773000  0.46427000  1.0
  C  C123  1  0.67474000  0.85576000  0.55548000  1.0
  C  C124  1  0.67508000  0.95071000  0.59156000  1.0
  C  C125  1  0.19522000  0.71461000  0.64477000  1.0
  C  C126  1  0.69683000  0.92332000  0.92687000  1.0
  C  C127  1  0.76949000  0.99950000  0.93412000  1.0
  C  C128  1  0.25022000  0.17977000  0.25479000  1.0
  C  C129  1  0.19230000  0.15722000  0.17108000  1.0
  C  C130  1  0.65696000  0.10214000  0.35742000  1.0
  C  C131  1  0.65827000  0.13696000  0.45279000  1.0
  C  C132  1  0.64880000  0.84354000  0.60358000  1.0
  C  C133  1  0.65027000  0.93866000  0.63958000  1.0
  C  C134  1  0.17741000  0.66432000  0.65913000  1.0
  C  C135  1  0.23577000  0.74812000  0.67976000  1.0
  C  C136  1  0.72157000  0.96801000  0.90581000  1.0
  C  C137  1  0.64199000  0.89214000  0.89992000  1.0
  C  C138  1  0.79749000  0.04785000  0.91579000  1.0
  C  C139  1  0.27246000  0.22708000  0.23717000  1.0
  C  C140  1  0.21446000  0.20450000  0.15268000  1.0
  C  C141  1  0.64513000  0.14397000  0.39940000  1.0
  C  C142  1  0.63615000  0.88507000  0.64563000  1.0
  C  C143  1  0.19842000  0.64714000  0.70723000  1.0
  C  C144  1  0.25722000  0.73176000  0.72788000  1.0
  C  C145  1  0.81693000  0.04815000  0.86225000  1.0
  C  C146  1  0.80910000  0.09360000  0.95387000  1.0
  C  C147  1  0.25607000  0.23865000  0.18583000  1.0
  C  C148  1  0.30905000  0.26783000  0.27426000  1.0
  C  C149  1  0.18996000  0.22200000  0.10242000  1.0
  C  C150  1  0.61684000  0.19566000  0.38959000  1.0
  C  C151  1  0.60858000  0.87593000  0.69789000  1.0
  C  C152  1  0.23917000  0.68138000  0.74123000  1.0
  C  C153  1  0.17446000  0.59616000  0.72386000  1.0
  C  C154  1  0.29584000  0.76941000  0.76760000  1.0
  C  C155  1  0.85132000  0.09176000  0.84812000  1.0
  C  C156  1  0.84291000  0.13721000  0.93958000  1.0
  C  C157  1  0.12370000  0.21833000  0.09076000  1.0
  C  C158  1  0.23028000  0.24695000  0.06809000  1.0
  C  C159  1  0.11065000  0.57927000  0.71190000  1.0
  C  C160  1  0.21265000  0.56475000  0.75408000  1.0
  C  C161  1  0.86596000  0.13603000  0.88695000  1.0
  C  C162  1  0.09814000  0.24095000  0.04781000  1.0
  C  C163  1  0.20486000  0.26828000  0.02417000  1.0
  C  C164  1  0.08574000  0.53311000  0.72912000  1.0
  C  C165  1  0.18805000  0.51842000  0.77152000  1.0
  C  C166  1  0.90804000  0.18042000  0.87439000  1.0
  C  C167  1  0.13832000  0.26647000  0.01419000  1.0
  C  C168  1  0.12434000  0.50197000  0.75899000  1.0
  C  C169  1  0.11021000  0.29163000  0.96875000  1.0
  C  C170  1  0.09984000  0.45116000  0.77418000  1.0
  C  C171  1  0.59954000  0.38344000  0.18802000  1.0
  C  C172  1  0.69451000  0.08465000  0.08966000  1.0
  C  C173  1  0.63931000  0.39746000  0.14316000  1.0
  C  C174  1  0.40290000  0.46938000  0.31865000  1.0
  C  C175  1  0.65808000  0.39065000  0.39525000  1.0
  C  C176  1  0.41429000  0.29074000  0.45504000  1.0
  C  C177  1  0.66275000  0.35690000  0.10373000  1.0
  C  C178  1  0.65095000  0.45178000  0.13849000  1.0
  C  C179  1  0.37186000  0.51204000  0.29163000  1.0
  C  C180  1  0.71529000  0.41620000  0.42343000  1.0
  C  C181  1  0.38501000  0.27187000  0.50352000  1.0
  C  C182  1  0.69451000  0.37063000  0.05888000  1.0
  C  C183  1  0.68265000  0.46539000  0.09361000  1.0
  C  C184  1  0.41111000  0.54751000  0.26724000  1.0
  C  C185  1  0.30473000  0.51836000  0.29000000  1.0
  C  C186  1  0.73889000  0.46381000  0.40741000  1.0
  C  C187  1  0.74078000  0.39622000  0.46823000  1.0
  C  C188  1  0.42180000  0.24077000  0.53464000  1.0
  C  C189  1  0.32064000  0.28317000  0.51825000  1.0
  C  C190  1  0.70340000  0.42505000  0.05256000  1.0
  C  C191  1  0.38410000  0.58884000  0.24304000  1.0
  C  C192  1  0.27765000  0.56055000  0.26671000  1.0
  C  C193  1  0.78767000  0.49281000  0.43682000  1.0
  C  C194  1  0.78923000  0.42523000  0.49841000  1.0
  C  C195  1  0.39518000  0.22208000  0.57947000  1.0
  C  C196  1  0.29400000  0.26432000  0.56317000  1.0
  C  C197  1  0.73150000  0.43975000  0.00278000  1.0
  C  C198  1  0.31707000  0.59689000  0.24361000  1.0
  C  C199  1  0.81001000  0.54500000  0.42324000  1.0
  C  C200  1  0.81252000  0.47286000  0.48190000  1.0
  C  C201  1  0.81339000  0.40975000  0.54908000  1.0
  C  C202  1  0.33084000  0.23355000  0.59493000  1.0
  C  C203  1  0.78014000  0.40915000  0.97468000  1.0
  C  C204  1  0.70831000  0.48500000  0.98190000  1.0
  C  C205  1  0.29010000  0.64504000  0.22316000  1.0
  C  C206  1  0.82060000  0.55294000  0.36969000  1.0
  C  C207  1  0.82001000  0.58791000  0.46488000  1.0
  C  C208  1  0.82539000  0.35591000  0.55559000  1.0
  C  C209  1  0.82447000  0.45089000  0.59221000  1.0
  C  C210  1  0.30444000  0.21491000  0.64426000  1.0
  C  C211  1  0.80403000  0.42335000  0.92654000  1.0
  C  C212  1  0.73179000  0.49984000  0.93368000  1.0
  C  C213  1  0.25091000  0.68081000  0.25677000  1.0
  C  C214  1  0.30739000  0.65804000  0.17236000  1.0
  C  C215  1  0.84351000  0.60218000  0.35792000  1.0
  C  C216  1  0.84200000  0.63724000  0.45326000  1.0
  C  C217  1  0.85034000  0.34350000  0.60391000  1.0
  C  C218  1  0.84825000  0.43862000  0.64041000  1.0
  C  C219  1  0.32227000  0.16457000  0.65859000  1.0
  C  C220  1  0.26434000  0.24848000  0.67950000  1.0
  C  C221  1  0.77944000  0.46807000  0.90540000  1.0
  C  C222  1  0.85815000  0.39170000  0.89907000  1.0
  C  C223  1  0.70360000  0.54815000  0.91535000  1.0
  C  C224  1  0.22850000  0.72800000  0.23907000  1.0
  C  C225  1  0.28540000  0.70540000  0.15413000  1.0
  C  C226  1  0.85512000  0.64407000  0.39985000  1.0
  C  C227  1  0.86203000  0.38498000  0.64623000  1.0
  C  C228  1  0.30172000  0.14750000  0.70693000  1.0
  C  C229  1  0.24281000  0.23196000  0.72754000  1.0
  C  C230  1  0.68370000  0.54846000  0.86191000  1.0
  C  C231  1  0.69192000  0.59386000  0.95346000  1.0
  C  C232  1  0.24447000  0.73957000  0.18768000  1.0
  C  C233  1  0.19132000  0.76896000  0.27523000  1.0
  C  C234  1  0.30945000  0.72267000  0.10360000  1.0
  C  C235  1  0.88324000  0.69575000  0.38983000  1.0
  C  C236  1  0.88893000  0.37570000  0.69854000  1.0
  C  C237  1  0.26075000  0.18155000  0.74074000  1.0
  C  C238  1  0.32612000  0.09687000  0.72401000  1.0
  C  C239  1  0.20427000  0.26941000  0.76736000  1.0
  C  C240  1  0.64901000  0.59194000  0.84792000  1.0
  C  C241  1  0.65773000  0.63730000  0.93936000  1.0
  C  C242  1  0.37564000  0.71884000  0.09183000  1.0
  C  C243  1  0.26915000  0.74730000  0.06907000  1.0
  C  C244  1  0.39014000  0.08061000  0.71242000  1.0
  C  C245  1  0.28824000  0.06509000  0.75420000  1.0
  C  C246  1  0.63434000  0.63611000  0.88683000  1.0
  C  C247  1  0.40127000  0.74104000  0.04864000  1.0
  C  C248  1  0.29464000  0.76823000  0.02489000  1.0
  C  C249  1  0.41532000  0.03458000  0.72962000  1.0
  C  C250  1  0.31316000  0.01891000  0.77169000  1.0
  C  C251  1  0.59200000  0.68037000  0.87447000  1.0
  C  C252  1  0.36116000  0.76638000  0.01485000  1.0
  C  C253  1  0.37703000  0.00287000  0.75919000  1.0
  C  C254  1  0.38959000  0.79153000  0.96944000  1.0
  C  C255  1  0.40252000  0.95220000  0.77400000  1.0
  C  C256  1  0.09907000  0.11677000  0.81110000  1.0
  C  C257  1  0.19459000  0.41514000  0.91053000  1.0
  C  C258  1  0.13822000  0.10327000  0.85651000  1.0
  C  C259  1  0.90300000  0.02983000  0.68032000  1.0
  C  C260  1  0.15807000  0.10970000  0.60594000  1.0
  C  C261  1  0.91441000  0.20841000  0.54375000  1.0
  C  C262  1  0.16127000  0.14387000  0.89615000  1.0
  C  C263  1  0.14988000  0.04899000  0.86125000  1.0
  C  C264  1  0.87202000  0.98754000  0.70796000  1.0
  C  C265  1  0.21481000  0.08384000  0.57744000  1.0
  C  C266  1  0.88552000  0.22796000  0.49545000  1.0
  C  C267  1  0.19275000  0.13017000  0.94116000  1.0
  C  C268  1  0.18132000  0.03541000  0.90623000  1.0
  C  C269  1  0.91114000  0.95261000  0.73304000  1.0
  C  C270  1  0.80487000  0.98117000  0.70951000  1.0
  C  C271  1  0.23833000  0.03627000  0.59349000  1.0
  C  C272  1  0.24002000  0.10379000  0.53243000  1.0
  C  C273  1  0.92240000  0.25923000  0.46442000  1.0
  C  C274  1  0.82113000  0.21676000  0.48070000  1.0
  C  C275  1  0.20180000  0.07577000  0.94743000  1.0
  C  C276  1  0.88394000  0.91172000  0.75783000  1.0
  C  C277  1  0.77757000  0.93948000  0.73348000  1.0
  C  C278  1  0.28682000  0.00726000  0.56386000  1.0
  C  C279  1  0.28830000  0.07489000  0.50203000  1.0
  C  C280  1  0.89572000  0.27821000  0.41979000  1.0
  C  C281  1  0.79437000  0.23603000  0.43612000  1.0
  C  C282  1  0.22998000  0.06093000  0.99715000  1.0
  C  C283  1  0.81687000  0.90365000  0.75729000  1.0
  C  C284  1  0.30922000  0.95508000  0.57740000  1.0
  C  C285  1  0.31143000  0.02726000  0.51867000  1.0
  C  C286  1  0.31304000  0.09047000  0.45139000  1.0
  C  C287  1  0.83129000  0.26687000  0.40448000  1.0
  C  C288  1  0.27889000  0.09129000  0.02526000  1.0
  C  C289  1  0.20686000  0.01548000  0.01781000  1.0
  C  C290  1  0.78970000  0.85588000  0.77836000  1.0
  C  C291  1  0.31985000  0.94703000  0.63093000  1.0
  C  C292  1  0.31943000  0.91228000  0.53573000  1.0
  C  C293  1  0.32527000  0.14425000  0.44453000  1.0
  C  C294  1  0.32493000  0.04929000  0.40844000  1.0
  C  C295  1  0.80478000  0.28539000  0.35523000  1.0
  C  C296  1  0.30318000  0.07668000  0.07313000  1.0
  C  C297  1  0.23051000  0.00050000  0.06588000  1.0
  C  C298  1  0.74979000  0.82024000  0.74522000  1.0
  C  C299  1  0.80771000  0.84278000  0.82892000  1.0
  C  C300  1  0.34304000  0.89786000  0.64258000  1.0
  C  C301  1  0.34174000  0.86304000  0.54721000  1.0
  C  C302  1  0.35121000  0.15647000  0.39642000  1.0
  C  C303  1  0.34974000  0.06135000  0.36042000  1.0
  C  C304  1  0.82260000  0.33569000  0.34087000  1.0
  C  C305  1  0.76424000  0.25189000  0.32024000  1.0
  C  C306  1  0.27844000  0.03199000  0.09419000  1.0
  C  C307  1  0.35802000  0.10786000  0.10008000  1.0
  C  C308  1  0.20252000  0.95215000  0.08421000  1.0
  C  C309  1  0.72755000  0.77292000  0.76284000  1.0
  C  C310  1  0.78555000  0.79550000  0.84732000  1.0
  C  C311  1  0.35488000  0.85603000  0.60060000  1.0
  C  C312  1  0.36385000  0.11493000  0.35437000  1.0
  C  C313  1  0.80159000  0.35287000  0.29277000  1.0
  C  C314  1  0.74279000  0.26824000  0.27212000  1.0
  C  C315  1  0.18307000  0.95185000  0.13775000  1.0
  C  C316  1  0.19091000  0.90640000  0.04613000  1.0
  C  C317  1  0.74393000  0.76135000  0.81417000  1.0
  C  C318  1  0.69096000  0.73217000  0.72574000  1.0
  C  C319  1  0.81005000  0.77800000  0.89759000  1.0
  C  C320  1  0.38317000  0.80434000  0.61041000  1.0
  C  C321  1  0.39143000  0.12407000  0.30211000  1.0
  C  C322  1  0.76084000  0.31862000  0.25877000  1.0
  C  C323  1  0.82554000  0.40384000  0.27614000  1.0
  C  C324  1  0.70416000  0.23060000  0.23240000  1.0
  C  C325  1  0.14868000  0.90824000  0.15188000  1.0
  C  C326  1  0.15710000  0.86279000  0.06042000  1.0
  C  C327  1  0.87631000  0.78167000  0.90925000  1.0
  C  C328  1  0.76973000  0.75305000  0.93191000  1.0
  C  C329  1  0.88935000  0.42073000  0.28810000  1.0
  C  C330  1  0.78736000  0.43525000  0.24592000  1.0
  C  C331  1  0.13405000  0.86397000  0.11305000  1.0
  C  C332  1  0.90187000  0.75906000  0.95219000  1.0
  C  C333  1  0.79515000  0.73173000  0.97583000  1.0
  C  C334  1  0.91427000  0.46689000  0.27088000  1.0
  C  C335  1  0.81195000  0.48158000  0.22848000  1.0
  C  C336  1  0.09197000  0.81958000  0.12561000  1.0
  C  C337  1  0.86169000  0.73354000  0.98581000  1.0
  C  C338  1  0.87567000  0.49803000  0.24101000  1.0
  C  C339  1  0.88979000  0.70837000  0.03125000  1.0
  C  C340  1  0.90017000  0.54884000  0.22582000  1.0
  O  O1  1  0.56631000  0.79089000  0.81771000  1.0
  O  O2  1  0.45072000  0.81316000  0.76745000  1.0
  O  O3  1  0.47934000  0.87012000  0.87270000  1.0
  O  O4  1  0.62312000  0.90217000  0.85443000  1.0
  O  O5  1  0.57483000  0.83376000  0.70324000  1.0
  O  O6  1  0.61708000  0.91246000  0.73805000  1.0
  O  O7  1  0.50280000  0.96542000  0.80178000  1.0
  O  O8  1  0.44803000  0.76197000  0.85684000  1.0
  O  O9  1  0.45108000  0.80107000  0.97227000  1.0
  O  O10  1  0.61635000  0.85654000  0.92579000  1.0
  O  O11  1  0.58735000  0.72243000  0.91010000  1.0
  O  O12  1  0.42094000  0.68276000  0.70340000  1.0
  O  O13  1  0.53900000  0.64032000  0.73130000  1.0
  O  O14  1  0.53592000  0.73273000  0.68246000  1.0
  O  O15  1  0.42225000  0.66402000  0.81458000  1.0
  O  O16  1  0.56120000  0.67482000  0.83035000  1.0
  O  O17  1  0.27310000  0.88117000  0.87878000  1.0
  O  O18  1  0.36677000  0.91533000  0.91253000  1.0
  O  O19  1  0.35375000  0.80154000  0.93147000  1.0
  O  O20  1  0.30566000  0.81771000  0.75948000  1.0
  O  O21  1  0.31825000  0.75117000  0.80927000  1.0
  O  O22  1  0.37283000  0.92089000  0.79859000  1.0
  O  O23  1  0.50688000  0.62958000  0.62195000  1.0
  O  O24  1  0.53556000  0.52674000  0.67461000  1.0
  O  O25  1  0.41209000  0.57919000  0.77215000  1.0
  O  O26  1  0.36773000  0.58350000  0.64013000  1.0
  O  O27  1  0.36370000  0.65334000  0.59235000  1.0
  O  O28  1  0.52678000  0.72191000  0.55567000  1.0
  O  O29  1  0.40909000  0.79901000  0.65613000  1.0
  O  O30  1  0.38326000  0.76490000  0.57181000  1.0
  O  O31  1  0.63052000  0.56883000  0.66654000  1.0
  O  O32  1  0.62021000  0.68227000  0.57398000  1.0
  O  O33  1  0.69108000  0.73297000  0.67489000  1.0
  O  O34  1  0.65921000  0.69566000  0.74611000  1.0
  O  O35  1  0.53579000  0.06096000  0.24629000  1.0
  O  O36  1  0.06779000  0.70891000  0.18265000  1.0
  O  O37  1  0.95129000  0.68720000  0.23317000  1.0
  O  O38  1  0.97813000  0.63005000  0.12905000  1.0
  O  O39  1  0.12278000  0.59746000  0.14602000  1.0
  O  O40  1  0.07777000  0.66666667  0.29625000  1.0
  O  O41  1  0.11943000  0.58775000  0.26134000  1.0
  O  O42  1  0.00012000  0.53486000  0.19915000  1.0
  O  O43  1  0.94821000  0.73821000  0.14510000  1.0
  O  O44  1  0.95125000  0.69880000  0.02885000  1.0
  O  O45  1  0.11695000  0.64514000  0.07632000  1.0
  O  O46  1  0.08726000  0.77750000  0.09000000  1.0
  O  O47  1  0.92226000  0.81529000  0.29652000  1.0
  O  O48  1  0.04141000  0.85973000  0.26963000  1.0
  O  O49  1  0.03843000  0.76745000  0.31964000  1.0
  O  O50  1  0.92247000  0.83589000  0.18766000  1.0
  O  O51  1  0.06133000  0.82511000  0.16980000  1.0
  O  O52  1  0.77303000  0.61871000  0.12129000  1.0
  O  O53  1  0.86671000  0.58480000  0.08750000  1.0
  O  O54  1  0.85369000  0.69839000  0.06901000  1.0
  O  O55  1  0.80564000  0.68231000  0.24076000  1.0
  O  O56  1  0.81806000  0.74886000  0.19095000  1.0
  O  O57  1  0.86981000  0.57929000  0.20086000  1.0
  O  O58  1  0.00691000  0.87046000  0.37833000  1.0
  O  O59  1  0.03533000  0.97324000  0.32547000  1.0
  O  O60  1  0.91228000  0.92123000  0.22824000  1.0
  O  O61  1  0.86703000  0.91530000  0.35763000  1.0
  O  O62  1  0.86402000  0.84681000  0.40731000  1.0
  O  O63  1  0.02703000  0.77817000  0.44465000  1.0
  O  O64  1  0.90899000  0.70093000  0.34404000  1.0
  O  O65  1  0.88334000  0.73526000  0.42835000  1.0
  O  O66  1  0.13073000  0.93291000  0.33590000  1.0
  O  O67  1  0.11997000  0.82011000  0.42852000  1.0
  O  O68  1  0.19166000  0.76952000  0.32626000  1.0
  O  O69  1  0.15887000  0.80434000  0.25401000  1.0
  O  O70  1  0.03861000  0.43674000  0.75373000  1.0
  O  O71  1  0.43370000  0.20911000  0.18229000  1.0
  O  O72  1  0.54929000  0.18685000  0.23255000  1.0
  O  O73  1  0.52067000  0.12988000  0.12730000  1.0
  O  O74  1  0.37688000  0.09784000  0.14557000  1.0
  O  O75  1  0.42518000  0.16624000  0.29675000  1.0
  O  O76  1  0.38293000  0.08753000  0.26195000  1.0
  O  O77  1  0.49721000  0.03458000  0.19822000  1.0
  O  O78  1  0.55197000  0.23803000  0.14316000  1.0
  O  O79  1  0.54893000  0.19893000  0.02773000  1.0
  O  O80  1  0.38366000  0.14347000  0.07421000  1.0
  O  O81  1  0.41265000  0.27757000  0.08990000  1.0
  O  O82  1  0.57907000  0.31725000  0.29660000  1.0
  O  O83  1  0.46101000  0.35968000  0.26870000  1.0
  O  O84  1  0.46409000  0.26727000  0.31754000  1.0
  O  O85  1  0.57775000  0.33599000  0.18542000  1.0
  O  O86  1  0.43880000  0.32518000  0.16965000  1.0
  O  O87  1  0.72691000  0.11883000  0.12122000  1.0
  O  O88  1  0.63324000  0.08467000  0.08747000  1.0
  O  O89  1  0.64625000  0.19846000  0.06853000  1.0
  O  O90  1  0.69435000  0.18229000  0.24052000  1.0
  O  O91  1  0.68176000  0.24884000  0.19073000  1.0
  O  O92  1  0.62717000  0.07911000  0.20141000  1.0
  O  O93  1  0.49313000  0.37042000  0.37805000  1.0
  O  O94  1  0.46445000  0.47326000  0.32539000  1.0
  O  O95  1  0.58791000  0.42082000  0.22785000  1.0
  O  O96  1  0.63227000  0.41651000  0.35988000  1.0
  O  O97  1  0.63631000  0.34666000  0.40765000  1.0
  O  O98  1  0.47323000  0.27809000  0.44433000  1.0
  O  O99  1  0.59093000  0.20100000  0.34387000  1.0
  O  O100  1  0.61674000  0.23510000  0.42819000  1.0
  O  O101  1  0.36948000  0.43117000  0.33346000  1.0
  O  O102  1  0.37980000  0.31773000  0.42602000  1.0
  O  O103  1  0.30893000  0.26704000  0.32511000  1.0
  O  O104  1  0.34080000  0.30434000  0.25389000  1.0
  O  O105  1  0.46421000  0.93904000  0.75371000  1.0
  O  O106  1  0.93222000  0.29109000  0.81735000  1.0
  O  O107  1  0.04871000  0.31281000  0.76683000  1.0
  O  O108  1  0.02188000  0.36995000  0.87095000  1.0
  O  O109  1  0.87723000  0.40254000  0.85398000  1.0
  O  O110  1  0.92224000  0.33333333  0.70375000  1.0
  O  O111  1  0.88057000  0.41225000  0.73866000  1.0
  O  O112  1  0.99988000  0.46514000  0.80086000  1.0
  O  O113  1  0.05180000  0.26180000  0.85490000  1.0
  O  O114  1  0.04876000  0.30120000  0.97115000  1.0
  O  O115  1  0.88306000  0.35486000  0.92368000  1.0
  O  O116  1  0.91274000  0.22250000  0.91000000  1.0
  O  O117  1  0.07774000  0.18471000  0.70348000  1.0
  O  O118  1  0.95859000  0.14027000  0.73037000  1.0
  O  O119  1  0.96158000  0.23256000  0.68036000  1.0
  O  O120  1  0.07754000  0.16411000  0.81234000  1.0
  O  O121  1  0.93868000  0.17489000  0.83020000  1.0
  O  O122  1  0.22697000  0.38129000  0.87871000  1.0
  O  O123  1  0.13329000  0.41520000  0.91250000  1.0
  O  O124  1  0.14631000  0.30161000  0.93099000  1.0
  O  O125  1  0.19436000  0.31770000  0.75924000  1.0
  O  O126  1  0.18195000  0.25114000  0.80905000  1.0
  O  O127  1  0.13020000  0.42071000  0.79914000  1.0
  O  O128  1  0.99309000  0.12954000  0.62168000  1.0
  O  O129  1  0.96468000  0.02677000  0.67453000  1.0
  O  O130  1  0.08773000  0.07878000  0.77176000  1.0
  O  O131  1  0.13297000  0.08470000  0.64237000  1.0
  O  O132  1  0.13599000  0.15319000  0.59269000  1.0
  O  O133  1  0.97298000  0.22183000  0.55535000  1.0
  O  O134  1  0.09102000  0.29907000  0.65596000  1.0
  O  O135  1  0.11667000  0.26474000  0.57166000  1.0
  O  O136  1  0.86928000  0.06709000  0.66411000  1.0
  O  O137  1  0.88004000  0.17989000  0.57149000  1.0
  O  O138  1  0.80835000  0.23049000  0.67374000  1.0
  O  O139  1  0.84114000  0.19566000  0.74599000  1.0
  O  O140  1  0.96140000  0.56326000  0.24628000  1.0
