# generated using pymatgen
data_H21(C9N2)4
_symmetry_space_group_name_H-M   'P 1'
_cell_length_a   10.78300000
_cell_length_b   29.09783549
_cell_length_c   29.09798262
_cell_angle_alpha   88.06568072
_cell_angle_beta   79.32209015
_cell_angle_gamma   79.32203552
_symmetry_Int_Tables_number   1
_chemical_formula_structural   H21(C9N2)4
_chemical_formula_sum   'H42 C72 N16'
_cell_volume   8816.39530178
_cell_formula_units_Z   2
loop_
 _symmetry_equiv_pos_site_id
 _symmetry_equiv_pos_as_xyz
  1  'x, y, z'
loop_
 _atom_site_type_symbol
 _atom_site_label
 _atom_site_symmetry_multiplicity
 _atom_site_fract_x
 _atom_site_fract_y
 _atom_site_fract_z
 _atom_site_occupancy
  C  1  1  0.09670150  0.92738100  0.91597600  1
  C  2  1  0.09730700  0.96035350  0.88065650  1
  C  3  1  0.06165700  0.00483850  0.90093150  1
  C  5  1  0.05947950  0.95068700  0.95891900  1
  C  6  1  0.05049700  0.92829100  0.00351300  1
  C  7  1  0.01536200  0.95270850  0.04697750  1
  C  9  1  0.95919850  0.01029250  0.10079750  1
  C  10  1  0.97326250  0.96751800  0.12429800  1
  C  11  1  0.00700050  0.93219900  0.09129900  1
  C  12  1  0.92729850  0.05532450  0.12211250  1
  C  13  1  0.91685450  0.09826650  0.09662650  1
  C  15  1  0.91861550  0.15241500  0.03864900  1
  C  16  1  0.88948300  0.17572050  0.08159350  1
  C  17  1  0.88769450  0.14275000  0.11690900  1
  C  18  1  0.93192100  0.17481400  0.99405700  1
  C  19  1  0.96478700  0.15039800  0.95059100  1
  C  21  1  0.02009500  0.09281450  0.89676650  1
  C  22  1  0.01497250  0.13559400  0.87327700  1
  C  23  1  0.98033800  0.17091300  0.90627500  1
  C  24  1  0.05468650  0.04778250  0.87544850  1
  C  25  1  0.09369400  0.04560500  0.82543100  1
  C  26  1  0.00359600  0.05236450  0.79500450  1
  C  27  1  0.04417800  0.04921850  0.74595050  1
  C  28  1  0.17629250  0.03910000  0.72549800  1
  C  29  1  0.26567600  0.03281600  0.75637100  1
  C  30  1  0.22546750  0.03615300  0.80525300  1
  C  31  1  0.92076900  0.22484600  0.99265300  1
  C  32  1  0.80019000  0.25523950  0.99914950  1
  C  33  1  0.79163700  0.30430550  0.99628850  1
  C  34  1  0.90327300  0.32479600  0.98672400  1
  C  35  1  0.02356900  0.29395450  0.98074550  1
  C  36  1  0.03231600  0.24506150  0.98378150  1
  C  37  1  0.91421950  0.05752700  0.17212000  1
  C  38  1  0.01643200  0.06699350  0.19224950  1
  C  39  1  0.00435850  0.07053600  0.24111600  1
  C  40  1  0.89025850  0.06444650  0.27201850  1
  C  41  1  0.78867250  0.05428250  0.25161950  1
  C  42  1  0.80034350  0.05094000  0.20258100  1
  C  43  1  0.08797600  0.87826450  0.00494950  1
  C  44  1  0.21094350  0.85807350  0.01376450  1
  C  45  1  0.00407950  0.84785700  0.99871300  1
  C  46  1  0.04160250  0.79879850  0.00178750  1
  C  47  1  0.16418350  0.77834050  0.01135250  1
  C  48  1  0.24790500  0.80919350  0.01702450  1
  C  75  1  0.90002550  0.37307600  0.98100700  1
  C  76  1  0.88108400  0.07052400  0.32026400  1
  C  77  1  0.20332700  0.73009200  0.01734700  1
  C  78  1  0.22131000  0.03325900  0.67722000  1
  C  165  1  0.16847150  0.65146800  0.01334500  1
  C  166  1  0.06787250  0.62617000  0.01421100  1
  C  167  1  0.08923200  0.57710950  0.02158950  1
  C  168  1  0.20565500  0.55346050  0.03182850  1
  C  169  1  0.31073600  0.57580800  0.01998300  1
  C  170  1  0.29324050  0.62488450  0.01282150  1
  C  177  1  0.78221850  0.45167200  0.98551000  1
  C  178  1  0.65718000  0.47692300  0.98458800  1
  C  179  1  0.63661550  0.52595250  0.97707250  1
  C  180  1  0.73944550  0.54969750  0.96742050  1
  C  181  1  0.85544750  0.52735750  0.97896150  1
  C  182  1  0.87986850  0.47826550  0.98601650  1
  C  189  1  0.76814050  0.06618550  0.39890150  1
  C  190  1  0.64231950  0.06696500  0.42423100  1
  C  191  1  0.61472900  0.07426100  0.47331300  1
  C  192  1  0.70753400  0.08450100  0.49695700  1
  C  193  1  0.83494600  0.07272650  0.47454150  1
  C  194  1  0.86641150  0.06564900  0.42544300  1
  C  201  1  0.18230400  0.03802150  0.59861350  1
  C  202  1  0.08254500  0.03717200  0.57332800  1
  C  203  1  0.11106550  0.02972000  0.52428000  1
  C  204  1  0.23766650  0.02005900  0.50054500  1
  C  205  1  0.33131300  0.03153500  0.52294700  1
  C  206  1  0.30658800  0.03852350  0.57205750  1
  H  49  1  0.33731700  0.79633750  0.02420450  1
  H  50  1  0.27410050  0.87896650  0.01861550  1
  H  51  1  0.97711100  0.77814150  0.99787850  1
  H  52  1  0.91410650  0.86135100  0.99250300  1
  H  53  1  0.12135350  0.89210000  0.91051600  1
  H  54  1  0.12212950  0.95244900  0.84582500  1
  H  55  1  0.01217650  0.02146300  0.97072200  1
  H  56  1  0.95391500  0.08164200  0.02683700  1
  H  57  1  0.02382500  0.89732750  0.09898850  1
  H  58  1  0.96211250  0.96224450  0.15960550  1
  H  59  1  0.10025150  0.07202350  0.17132350  1
  H  60  1  0.08055550  0.07811150  0.25392850  1
  H  61  1  0.72436350  0.04415500  0.18913900  1
  H  62  1  0.70390400  0.05000950  0.27231550  1
  H  63  1  0.86975250  0.15065450  0.15173950  1
  H  64  1  0.87349200  0.21099700  0.08706300  1
  H  65  1  0.03401100  0.14087400  0.83797100  1
  H  66  1  0.97002350  0.20578250  0.89859150  1
  H  67  1  0.71752450  0.24172750  0.00544550  1
  H  68  1  0.70254200  0.32495650  0.00044650  1
  H  69  1  0.12124550  0.22418200  0.97878200  1
  H  70  1  0.10726750  0.30683450  0.97355450  1
  H  71  1  0.29346100  0.03103700  0.82615100  1
  H  72  1  0.36224100  0.02526400  0.74351800  1
  H  73  1  0.97576050  0.05362050  0.72527950  1
  H  74  1  0.90741000  0.05916000  0.80848000  1
  H  79  1  0.98178300  0.38343000  0.96702800  1
  H  80  1  0.94853700  0.08476500  0.33054000  1
  H  81  1  0.28146900  0.71981900  0.03134000  1
  H  82  1  0.31324450  0.01901400  0.66687100  1
  H  171  1  0.22070650  0.51752800  0.03453200  1
  H  172  1  0.37171100  0.64064500  0.00477400  1
  H  173  1  0.98077550  0.64301100  0.00770900  1
  H  183  1  0.72192000  0.58563500  0.96456100  1
  H  184  1  0.96613900  0.46249300  0.99398200  1
  H  185  1  0.58055300  0.46000950  0.99084550  1
  H  195  1  0.68674200  0.08714050  0.53289550  1
  H  196  1  0.96062400  0.05764250  0.40963050  1
  H  197  1  0.57204950  0.06045900  0.40739400  1
  H  207  1  0.25611800  0.01725150  0.46460050  1
  H  208  1  0.37704950  0.04646250  0.58787550  1
  H  209  1  0.98898600  0.04344700  0.59023700  1
  N  4  1  0.03825650  0.99691300  0.94780400  1
  N  8  1  0.98503250  0.99948000  0.05464200  1
  N  14  1  0.93242800  0.10619100  0.04975700  1
  N  20  1  0.98891650  0.10362700  0.94292400  1
  N  174  1  0.14299050  0.69816450  0.00796250  1
  N  175  1  0.01919250  0.54713100  0.01055700  1
  N  176  1  0.42027650  0.54501300  0.00867400  1
  N  186  1  0.79832300  0.40494450  0.99061850  1
  N  187  1  0.52573200  0.55598200  0.98821600  1
  N  188  1  0.92302850  0.55813250  0.99021050  1
  N  198  1  0.78928750  0.06083050  0.35220050  1
  N  199  1  0.51479400  0.06317150  0.50327950  1
  N  200  1  0.91379300  0.06136200  0.50528300  1
  N  210  1  0.15163550  0.04314750  0.64534050  1
  N  211  1  0.03023050  0.04091650  0.49425750  1
  N  212  1  0.42966050  0.04283450  0.49222250  1
