# generated using pymatgen
data_CoHC5O4
_symmetry_space_group_name_H-M   'P 1'
_cell_length_a   9.40980000
_cell_length_b   9.40980000
_cell_length_c   11.74200000
_cell_angle_alpha   89.68180000
_cell_angle_beta   89.68180000
_cell_angle_gamma   110.04100000
_symmetry_Int_Tables_number   1
_chemical_formula_structural   CoHC5O4
_chemical_formula_sum   'Co4 H4 C20 O16'
_cell_volume   976.68622000
_cell_formula_units_Z   4
loop_
 _symmetry_equiv_pos_site_id
 _symmetry_equiv_pos_as_xyz
  1  'x, y, z'
loop_
 _atom_site_type_symbol
 _atom_site_label
 _atom_site_symmetry_multiplicity
 _atom_site_fract_x
 _atom_site_fract_y
 _atom_site_fract_z
 _atom_site_occupancy
  Co  Co1  1  0.88722000  0.11278000  0.50000000  1.0
  Co  Co2  1  0.86870000  0.85850000  0.31152000  1.0
  Co  Co3  1  0.11278000  0.88722000  0.00000000  1.0
  Co  Co4  1  0.85850000  0.86870000  0.81152000  1.0
  H  H1  1  0.43480000  0.93100000  0.76540000  1.0
  H  H2  1  0.33090000  0.87770000  0.38220000  1.0
  H  H3  1  0.93100000  0.43480000  0.26540000  1.0
  H  H4  1  0.87770000  0.33090000  0.88220000  1.0
  C  C1  1  0.59660000  0.86160000  0.40960000  1.0
  C  C2  1  0.66570000  0.90830000  0.67020000  1.0
  C  C3  1  0.15780000  0.91820000  0.73920000  1.0
  C  C4  1  0.11000000  0.93440000  0.47990000  1.0
  C  C5  1  0.49320000  0.89100000  0.49600000  1.0
  C  C6  1  0.52380000  0.90780000  0.61270000  1.0
  C  C7  1  0.41420000  0.92200000  0.68790000  1.0
  C  C8  1  0.27500000  0.92300000  0.64960000  1.0
  C  C9  1  0.24540000  0.91300000  0.53170000  1.0
  C  C10  1  0.35330000  0.89190000  0.45920000  1.0
  C  C11  1  0.86160000  0.59660000  0.90960000  1.0
  C  C12  1  0.90830000  0.66570000  0.17020000  1.0
  C  C13  1  0.91820000  0.15780000  0.23920000  1.0
  C  C14  1  0.93440000  0.11000000  0.97990000  1.0
  C  C15  1  0.89100000  0.49320000  0.99600000  1.0
  C  C16  1  0.90780000  0.52380000  0.11270000  1.0
  C  C17  1  0.92200000  0.41420000  0.18790000  1.0
  C  C18  1  0.92300000  0.27500000  0.14960000  1.0
  C  C19  1  0.91300000  0.24540000  0.03170000  1.0
  C  C20  1  0.89190000  0.35330000  0.95920000  1.0
  O  O1  1  0.74070000  0.90170000  0.43490000  1.0
  O  O2  1  0.54790000  0.79950000  0.32240000  1.0
  O  O3  1  0.79370000  0.00570000  0.65420000  1.0
  O  O4  1  0.64830000  0.80530000  0.74690000  1.0
  O  O5  1  0.20290000  0.95990000  0.83710000  1.0
  O  O6  1  0.02180000  0.86420000  0.70860000  1.0
  O  O7  1  0.07100000  0.04380000  0.51440000  1.0
  O  O8  1  0.04420000  0.84700000  0.40110000  1.0
  O  O9  1  0.90170000  0.74070000  0.93490000  1.0
  O  O10  1  0.79950000  0.54790000  0.82240000  1.0
  O  O11  1  0.00570000  0.79370000  0.15420000  1.0
  O  O12  1  0.80530000  0.64830000  0.24690000  1.0
  O  O13  1  0.95990000  0.20290000  0.33710000  1.0
  O  O14  1  0.86420000  0.02180000  0.20860000  1.0
  O  O15  1  0.04380000  0.07100000  0.01440000  1.0
  O  O16  1  0.84700000  0.04420000  0.90110000  1.0
