# generated using pymatgen
data_H10C16N3
_symmetry_space_group_name_H-M   'P 1'
_cell_length_a   27.86420000
_cell_length_b   45.58575000
_cell_length_c   45.58570000
_cell_angle_alpha   119.99989115
_cell_angle_beta   90.00010000
_cell_angle_gamma   90.00000000
_symmetry_Int_Tables_number   1
_chemical_formula_structural   H10C16N3
_chemical_formula_sum   'H240 C384 N72'
_cell_volume   50145.89872534
_cell_formula_units_Z   24
loop_
 _symmetry_equiv_pos_site_id
 _symmetry_equiv_pos_as_xyz
  1  'x, y, z'
loop_
 _atom_site_type_symbol
 _atom_site_label
 _atom_site_symmetry_multiplicity
 _atom_site_fract_x
 _atom_site_fract_y
 _atom_site_fract_z
 _atom_site_occupancy
  H  134  1  0.87187400  0.81126200  0.89111400  1
  H  135  1  0.89356800  0.80484200  0.83874900  1
  H  136  1  0.72701500  0.79023500  0.85945800  1
  H  137  1  0.75008300  0.78140500  0.80513600  1
  H  138  1  0.75938900  0.81606200  0.77285200  1
  H  139  1  0.74548400  0.87325100  0.78765600  1
  H  140  1  0.88769900  0.89777500  0.82457700  1
  H  141  1  0.90109600  0.84102400  0.81023900  1
  H  142  1  0.90741200  0.79648700  0.74234200  1
  H  143  1  0.98442600  0.77460100  0.72429100  1
  H  144  1  0.97040700  0.71633300  0.77275700  1
  H  145  1  0.89217300  0.73813200  0.79015500  1
  H  146  1  0.80440700  0.72389700  0.76812700  1
  H  147  1  0.82332800  0.78168700  0.71972300  1
  H  148  1  0.78687200  0.73831900  0.67004000  1
  H  149  1  0.76796600  0.68049600  0.71872800  1
  H  152  1  0.83237900  0.94172700  0.83421600  1
  H  153  1  0.76390900  0.78385500  0.90887600  1
  H  155  1  0.04672200  0.72229900  0.75447000  1
  H  157  1  0.73332800  0.68955000  0.64612500  1
  H  183  1  0.87186700  0.13330700  0.28422400  1
  H  184  1  0.89356300  0.08734800  0.29062200  1
  H  185  1  0.72699700  0.12264200  0.30520700  1
  H  186  1  0.75007500  0.07714600  0.31403400  1
  H  187  1  0.75937900  0.01022400  0.27938200  1
  H  188  1  0.74547600  0.96783200  0.22219200  1
  H  189  1  0.88770000  0.98021700  0.19767300  1
  H  190  1  0.90109300  0.02263900  0.25442400  1
  H  191  1  0.90740400  0.99927600  0.29894700  1
  H  192  1  0.98444300  0.00310900  0.32079500  1
  H  193  1  0.97041900  0.10984500  0.37909100  1
  H  194  1  0.89217300  0.10544600  0.35731000  1
  H  195  1  0.80442100  0.09763600  0.37152000  1
  H  196  1  0.82332600  0.99142900  0.31374000  1
  H  197  1  0.78685000  0.98512600  0.35711200  1
  H  198  1  0.76797100  0.09164800  0.41491600  1
  H  201  1  0.83237000  0.94591200  0.15372100  1
  H  202  1  0.76395900  0.17844200  0.31162500  1
  H  204  1  0.04677300  0.08556500  0.37307900  1
  H  206  1  0.73343800  0.00995800  0.40587100  1
  H  232  1  0.87186300  0.20435200  0.96216200  1
  H  233  1  0.89356000  0.25669900  0.00811800  1
  H  234  1  0.72701200  0.23600800  0.97278400  1
  H  235  1  0.75007700  0.29032100  0.01830000  1
  H  236  1  0.75939200  0.32258600  0.08523700  1
  H  237  1  0.74549100  0.30779100  0.12762800  1
  H  238  1  0.88771200  0.27087800  0.11524000  1
  H  239  1  0.90110900  0.28521500  0.07282400  1
  H  240  1  0.90740400  0.35311100  0.09617700  1
  H  241  1  0.98445000  0.37111600  0.09233900  1
  H  242  1  0.97042300  0.32265900  0.98559700  1
  H  243  1  0.89215400  0.30529700  0.99000900  1
  H  244  1  0.80445200  0.32730400  0.99781800  1
  H  245  1  0.82335000  0.37573400  0.10402700  1
  H  246  1  0.78684600  0.42540400  0.11033100  1
  H  247  1  0.76798000  0.37667200  0.00380000  1
  H  250  1  0.83237600  0.26124300  0.14954500  1
  H  251  1  0.76390700  0.18656000  0.91700100  1
  H  253  1  0.04679100  0.34100800  0.00989600  1
  H  255  1  0.73353600  0.44938400  0.08550500  1
  H  281  1  0.87188600  0.28799900  0.20055000  1
  H  282  1  0.89356200  0.29439000  0.25290500  1
  H  283  1  0.72702500  0.30904700  0.23219800  1
  H  284  1  0.75007800  0.31784000  0.28651300  1
  H  285  1  0.75940700  0.28317400  0.31878900  1
  H  286  1  0.74551700  0.22599100  0.30401300  1
  H  287  1  0.88773500  0.20146100  0.26709900  1
  H  288  1  0.90112800  0.25821400  0.28142100  1
  H  289  1  0.90737600  0.30277000  0.34931700  1
  H  290  1  0.98440000  0.32464100  0.36735800  1
  H  291  1  0.97039600  0.38292600  0.31890200  1
  H  292  1  0.89213800  0.36113400  0.30151000  1
  H  293  1  0.80442000  0.37531800  0.32351400  1
  H  294  1  0.82332200  0.31754500  0.37194500  1
  H  295  1  0.78682800  0.36092000  0.42161600  1
  H  296  1  0.76793600  0.41871500  0.37289600  1
  H  299  1  0.83233500  0.15747600  0.25741900  1
  H  300  1  0.76388100  0.31536300  0.18274200  1
  H  302  1  0.04675800  0.37695300  0.33722300  1
  H  304  1  0.73324700  0.40968600  0.44549000  1
  H  330  1  0.87190100  0.96595000  0.80743100  1
  H  331  1  0.89358200  0.01192900  0.80105800  1
  H  332  1  0.72704500  0.97655200  0.78637800  1
  H  333  1  0.75009600  0.02208600  0.77759900  1
  H  334  1  0.75940300  0.08902000  0.81226700  1
  H  335  1  0.74549700  0.13141100  0.86945600  1
  H  336  1  0.88772600  0.11904500  0.89398400  1
  H  337  1  0.90112900  0.07662500  0.83723200  1
  H  338  1  0.90738600  0.09996600  0.79268200  1
  H  339  1  0.98441800  0.09613800  0.77083200  1
  H  340  1  0.97040900  0.98939300  0.71253100  1
  H  341  1  0.89214600  0.99379300  0.73431000  1
  H  342  1  0.80442800  0.00160800  0.72012600  1
  H  343  1  0.82331800  0.10781300  0.77789400  1
  H  344  1  0.78680800  0.11410200  0.73451500  1
  H  345  1  0.76789900  0.00759500  0.67672900  1
  H  348  1  0.83236100  0.15332600  0.93792100  1
  H  349  1  0.76389500  0.92079300  0.78007900  1
  H  351  1  0.04674400  0.01368800  0.71851400  1
  H  353  1  0.73317400  0.08919200  0.68578500  1
  H  379  1  0.87189700  0.89490400  0.12949100  1
  H  380  1  0.89357800  0.84255600  0.08352100  1
  H  381  1  0.72704300  0.86324500  0.11888100  1
  H  382  1  0.75010200  0.80893300  0.07335100  1
  H  383  1  0.75941800  0.77665300  0.00641600  1
  H  384  1  0.74550700  0.79143300  0.96401600  1
  H  385  1  0.88772000  0.82835600  0.97639200  1
  H  386  1  0.90112400  0.81403000  0.01881600  1
  H  387  1  0.90740200  0.74612500  0.99548200  1
  H  388  1  0.98440400  0.72807000  0.99930500  1
  H  389  1  0.97040800  0.77653400  0.10604900  1
  H  390  1  0.89216600  0.79392900  0.10164400  1
  H  391  1  0.80442100  0.77191200  0.09383000  1
  H  392  1  0.82331700  0.72348300  0.98763800  1
  H  393  1  0.78681100  0.67381700  0.98135000  1
  H  394  1  0.76788000  0.72252300  0.08784200  1
  H  397  1  0.83231100  0.83801000  0.94207400  1
  H  398  1  0.76390200  0.91269900  0.17465500  1
  H  400  1  0.04677600  0.75818600  0.08177800  1
  H  402  1  0.73307100  0.65004300  0.00629400  1
  H  428  1  0.23376900  0.96594600  0.20053600  1
  H  429  1  0.21208200  0.01191700  0.25288500  1
  H  430  1  0.37862200  0.97656800  0.23220100  1
  H  431  1  0.35555600  0.02209400  0.28651200  1
  H  432  1  0.34624000  0.08902400  0.31878800  1
  H  433  1  0.36015300  0.13141500  0.30399400  1
  H  434  1  0.21793900  0.11903400  0.26707400  1
  H  435  1  0.20453100  0.07662100  0.28141200  1
  H  436  1  0.19825000  0.09995900  0.34931300  1
  H  437  1  0.12127000  0.09613500  0.36739200  1
  H  438  1  0.13525900  0.98940000  0.31892200  1
  H  439  1  0.21348100  0.99379700  0.30150700  1
  H  440  1  0.30123200  0.00161400  0.32352700  1
  H  441  1  0.28233700  0.10780900  0.37195600  1
  H  442  1  0.31883500  0.11410300  0.42162600  1
  H  443  1  0.33775900  0.00760100  0.37291200  1
  H  446  1  0.27330000  0.15334400  0.25745100  1
  H  447  1  0.34173900  0.92081100  0.18278700  1
  H  449  1  0.05892400  0.01366300  0.33731100  1
  H  451  1  0.37255300  0.08917700  0.44540200  1
  H  477  1  0.23377300  0.89491600  0.80745900  1
  H  478  1  0.21208200  0.84255500  0.80104700  1
  H  479  1  0.37862900  0.86325400  0.78642500  1
  H  480  1  0.35556000  0.80893900  0.77760600  1
  H  481  1  0.34627200  0.77665300  0.81226300  1
  H  482  1  0.36016800  0.79144600  0.86945100  1
  H  483  1  0.21794900  0.82837000  0.89397300  1
  H  484  1  0.20455600  0.81403200  0.83721900  1
  H  485  1  0.19824700  0.74613500  0.79268500  1
  H  486  1  0.12123700  0.72808600  0.77079600  1
  H  487  1  0.13526300  0.77654900  0.71253000  1
  H  488  1  0.21350300  0.79394100  0.73432700  1
  H  489  1  0.30126800  0.77192300  0.72010100  1
  H  490  1  0.28234000  0.72351600  0.77788800  1
  H  491  1  0.31878900  0.67383100  0.73451700  1
  H  492  1  0.33770900  0.72251500  0.67669300  1
  H  495  1  0.27328200  0.83797800  0.93790900  1
  H  496  1  0.34172500  0.91268000  0.78005100  1
  H  498  1  0.05892400  0.75820500  0.71845500  1
  H  500  1  0.37237000  0.64994000  0.68576000  1
  H  526  1  0.23378000  0.28798200  0.12948300  1
  H  527  1  0.21208900  0.29440100  0.08353400  1
  H  528  1  0.37864000  0.30900000  0.11884600  1
  H  529  1  0.35557400  0.31783000  0.07335500  1
  H  530  1  0.34626100  0.28316800  0.00641000  1
  H  531  1  0.36015000  0.22598500  0.96400900  1
  H  532  1  0.21793500  0.20146100  0.97640700  1
  H  533  1  0.20455200  0.25821300  0.01883400  1
  H  534  1  0.19825400  0.30275700  0.99547300  1
  H  535  1  0.12126600  0.32466700  0.99930000  1
  H  536  1  0.13526600  0.38292400  0.10603600  1
  H  537  1  0.21348100  0.36110800  0.10164300  1
  H  538  1  0.30125000  0.37534100  0.09385100  1
  H  539  1  0.28233700  0.31755100  0.98765500  1
  H  540  1  0.31878500  0.36092100  0.98134200  1
  H  541  1  0.33769100  0.41874700  0.08785500  1
  H  544  1  0.27332500  0.15747500  0.94208700  1
  H  545  1  0.34171400  0.31540700  0.17462900  1
  H  547  1  0.05895000  0.37698800  0.08179600  1
  H  549  1  0.37234800  0.40968600  0.00620500  1
  H  575  1  0.23379100  0.13330700  0.89111400  1
  H  576  1  0.21209200  0.08734700  0.83875800  1
  H  577  1  0.37865800  0.12263900  0.85946300  1
  H  578  1  0.35557800  0.07714300  0.80514200  1
  H  579  1  0.34626800  0.01021900  0.77287200  1
  H  580  1  0.36016400  0.96781500  0.78765100  1
  H  581  1  0.21794600  0.98019500  0.82455900  1
  H  582  1  0.20455600  0.02263000  0.81024300  1
  H  583  1  0.19825400  0.99927400  0.74234900  1
  H  584  1  0.12124800  0.00310400  0.72429100  1
  H  585  1  0.13525500  0.10984300  0.77276500  1
  H  586  1  0.21348500  0.10544400  0.79016800  1
  H  587  1  0.30123200  0.09763200  0.76815100  1
  H  588  1  0.28232600  0.99142500  0.71972000  1
  H  589  1  0.31879600  0.98512300  0.67004500  1
  H  590  1  0.33767300  0.09164600  0.71876900  1
  H  593  1  0.27332900  0.94588500  0.83422500  1
  H  594  1  0.34170000  0.17844100  0.90884600  1
  H  596  1  0.05889900  0.08558100  0.75443600  1
  H  598  1  0.37220500  0.00996100  0.64612200  1
  H  624  1  0.23379800  0.20436200  0.28422200  1
  H  625  1  0.21210300  0.25670900  0.29061700  1
  H  626  1  0.37865400  0.23601200  0.30524700  1
  H  627  1  0.35558800  0.29032800  0.31405100  1
  H  628  1  0.34626800  0.32259300  0.27937300  1
  H  629  1  0.36015300  0.30780800  0.22218700  1
  H  630  1  0.21793500  0.27089300  0.19767100  1
  H  631  1  0.20455200  0.28522300  0.25442500  1
  H  632  1  0.19826800  0.35312500  0.29897700  1
  H  633  1  0.12124500  0.37115200  0.32084400  1
  H  634  1  0.13527300  0.32268500  0.37911900  1
  H  635  1  0.21352800  0.30530500  0.35732400  1
  H  636  1  0.30124300  0.32731200  0.37152200  1
  H  637  1  0.28234000  0.37574700  0.31375200  1
  H  638  1  0.31881700  0.42542000  0.35713000  1
  H  639  1  0.33770900  0.37669500  0.41492200  1
  H  642  1  0.27332200  0.26120900  0.15368000  1
  H  643  1  0.34178600  0.18656300  0.31157100  1
  H  645  1  0.05889900  0.34099200  0.37313900  1
  H  647  1  0.37233800  0.44927700  0.40586400  1
  H  673  1  0.23377300  0.81124700  0.96218000  1
  H  674  1  0.21209600  0.80484900  0.00813800  1
  H  675  1  0.37863600  0.79019900  0.97278100  1
  H  676  1  0.35557800  0.78140100  0.01830100  1
  H  677  1  0.34625400  0.81606000  0.08523500  1
  H  678  1  0.36016100  0.87324900  0.12762600  1
  H  679  1  0.21794200  0.89778000  0.11524300  1
  H  680  1  0.20453400  0.84102700  0.07282700  1
  H  681  1  0.19826800  0.79647800  0.09617100  1
  H  682  1  0.12123400  0.77462600  0.09234100  1
  H  683  1  0.13524100  0.71632600  0.98560000  1
  H  684  1  0.21350600  0.73810900  0.98999800  1
  H  685  1  0.30122800  0.72392100  0.99781500  1
  H  686  1  0.28232600  0.78169500  0.10402300  1
  H  687  1  0.31883200  0.73832300  0.11031900  1
  H  688  1  0.33772000  0.68052800  0.00380100  1
  H  691  1  0.27329600  0.94173300  0.14952800  1
  H  692  1  0.34180700  0.78388700  0.91702500  1
  H  694  1  0.05886300  0.72231100  0.00988800  1
  H  696  1  0.37238800  0.68955300  0.08543500  1
  C  1  1  0.69971000  0.63533900  0.63929000  1
  C  3  1  0.67512500  0.58927200  0.58811600  1
  C  5  1  0.61796500  0.62685300  0.62575000  1
  C  10  1  0.69960300  0.05738500  0.46001100  1
  C  12  1  0.67647600  0.05215300  0.50639900  1
  C  14  1  0.61818000  0.05229300  0.46910900  1
  C  19  1  0.69967700  0.45603000  0.03804300  1
  C  21  1  0.67772100  0.50800400  0.04336800  1
  C  23  1  0.61845300  0.47057600  0.04313500  1
  C  28  1  0.69972800  0.46394200  0.45241300  1
  C  30  1  0.67492200  0.50995000  0.50350700  1
  C  32  1  0.61791400  0.47232900  0.46582800  1
  C  37  1  0.69992800  0.04196400  0.63130000  1
  C  39  1  0.67408100  0.04696800  0.58545000  1
  C  41  1  0.61782500  0.04692800  0.62348400  1
  C  46  1  0.70027300  0.64242300  0.05343800  1
  C  48  1  0.67368400  0.59160700  0.04846500  1
  C  50  1  0.61797200  0.63029900  0.04855100  1
  C  55  1  0.40552000  0.04197200  0.45283700  1
  C  57  1  0.43175800  0.04696100  0.50362900  1
  C  59  1  0.48776200  0.04692400  0.46522900  1
  C  64  1  0.40585700  0.64299200  0.63146500  1
  C  66  1  0.43097900  0.59200300  0.58553000  1
  C  68  1  0.48774000  0.62974800  0.62325400  1
  C  73  1  0.40591800  0.46392900  0.05356800  1
  C  75  1  0.43083200  0.50990400  0.04847700  1
  C  77  1  0.48782300  0.47219600  0.04849900  1
  C  82  1  0.40597600  0.05740500  0.63941500  1
  C  84  1  0.42863600  0.05210800  0.58760100  1
  C  86  1  0.48734900  0.05229200  0.62514500  1
  C  91  1  0.40597900  0.45612900  0.46009300  1
  C  93  1  0.43023300  0.50742700  0.50623700  1
  C  95  1  0.48765800  0.46981000  0.46871700  1
  C  100  1  0.40597900  0.63533400  0.03809400  1
  C  102  1  0.43045200  0.58923400  0.04319400  1
  C  104  1  0.48769400  0.62676700  0.04313400  1
  C  109  1  0.77361300  0.70510200  0.68935500  1
  C  110  1  0.79027900  0.73490700  0.69053500  1
  C  111  1  0.81092800  0.76086200  0.72026900  1
  C  112  1  0.81417000  0.75877400  0.75033500  1
  C  113  1  0.80002400  0.72779600  0.74806200  1
  C  114  1  0.77946100  0.70167700  0.71841400  1
  C  115  1  0.84104100  0.78557600  0.78109900  1
  C  116  1  0.89222200  0.77184400  0.77049000  1
  C  117  1  0.91135200  0.74641900  0.77657100  1
  C  118  1  0.95756100  0.73284500  0.76552900  1
  C  119  1  0.98664300  0.74284400  0.74645200  1
  C  120  1  0.96604700  0.76612600  0.73796500  1
  C  121  1  0.92007800  0.77981800  0.74932400  1
  C  122  1  0.83280300  0.82162300  0.78793500  1
  C  123  1  0.82502400  0.78983100  0.81509500  1
  C  124  1  0.85828800  0.80114100  0.84216400  1
  C  125  1  0.84494900  0.80609300  0.87394100  1
  C  126  1  0.79660900  0.80267200  0.88150800  1
  C  127  1  0.76226700  0.79355900  0.85541300  1
  C  128  1  0.77615100  0.78778800  0.82312000  1
  C  129  1  0.78728900  0.83275900  0.78301100  1
  C  130  1  0.77876700  0.86673700  0.79203400  1
  C  131  1  0.81509300  0.89152700  0.80765900  1
  C  132  1  0.86013400  0.88084600  0.81345300  1
  C  133  1  0.86839300  0.84696500  0.80442600  1
  C  150  1  0.78516400  0.80249000  0.91140500  1
  C  151  1  0.74726600  0.68218400  0.66162200  1
  C  154  1  0.03569000  0.73410000  0.74242300  1
  C  156  1  0.80998700  0.92551800  0.81648500  1
  C  158  1  0.77360300  0.03766500  0.39032100  1
  C  159  1  0.79025700  0.00903200  0.36051600  1
  C  160  1  0.81092900  0.01280400  0.33456500  1
  C  161  1  0.81418200  0.04495300  0.33665500  1
  C  162  1  0.80003900  0.07367300  0.36762400  1
  C  163  1  0.77948400  0.07014700  0.39374400  1
  C  164  1  0.84103600  0.04894600  0.30986900  1
  C  165  1  0.89221500  0.05207000  0.32360100  1
  C  166  1  0.91134700  0.08357500  0.34902700  1
  C  167  1  0.95756500  0.08610600  0.36258900  1
  C  168  1  0.98663400  0.05702500  0.35258700  1
  C  169  1  0.96603300  0.02525200  0.32931700  1
  C  170  1  0.92006700  0.02292500  0.31562500  1
  C  171  1  0.83279800  0.01973600  0.27382200  1
  C  172  1  0.82501600  0.07869000  0.30561500  1
  C  173  1  0.85827100  0.09443600  0.29428400  1
  C  174  1  0.84493600  0.12128000  0.28935900  1
  C  175  1  0.79659500  0.13227500  0.29280200  1
  C  176  1  0.76225100  0.11527700  0.30188900  1
  C  177  1  0.77614200  0.08876100  0.30766700  1
  C  178  1  0.78728400  0.00367500  0.26268500  1
  C  179  1  0.77877000  0.97870700  0.22871100  1
  C  180  1  0.81509800  0.96954100  0.20392600  1
  C  181  1  0.86013500  0.98602200  0.21460100  1
  C  182  1  0.86839200  0.01088200  0.24848200  1
  C  199  1  0.78516400  0.16234600  0.29294700  1
  C  200  1  0.74715500  0.03288000  0.41321200  1
  C  203  1  0.03568700  0.06172700  0.36126000  1
  C  205  1  0.80998200  0.94438700  0.16993000  1
  C  207  1  0.77354600  0.40604400  0.05779600  1
  C  208  1  0.79025500  0.40489900  0.08642700  1
  C  209  1  0.81093400  0.37518000  0.08265400  1
  C  210  1  0.81419300  0.34512200  0.05050300  1
  C  211  1  0.80006100  0.34736800  0.02178100  1
  C  212  1  0.77948600  0.37700400  0.02530400  1
  C  213  1  0.84104500  0.31434500  0.04651100  1
  C  214  1  0.89222400  0.32494900  0.04338300  1
  C  215  1  0.91136100  0.31884800  0.01187100  1
  C  216  1  0.95757500  0.32988000  0.00933300  1
  C  217  1  0.98667200  0.34889200  0.03840700  1
  C  218  1  0.96606300  0.35745500  0.07019500  1
  C  219  1  0.92006800  0.34613300  0.07252600  1
  C  220  1  0.83280900  0.30751000  0.07572100  1
  C  221  1  0.82501400  0.28035200  0.01677300  1
  C  222  1  0.85826700  0.25327500  0.00103400  1
  C  223  1  0.84492800  0.22151000  0.97418800  1
  C  224  1  0.79658800  0.21394700  0.96319300  1
  C  225  1  0.76226000  0.24005000  0.98016200  1
  C  226  1  0.77614300  0.27233800  0.00669500  1
  C  227  1  0.78729300  0.31242700  0.09177600  1
  C  228  1  0.77877300  0.30340900  0.11673300  1
  C  229  1  0.81510200  0.28778900  0.12589900  1
  C  230  1  0.86014500  0.28199500  0.10942800  1
  C  231  1  0.86840500  0.29102300  0.08457400  1
  C  248  1  0.78529900  0.18406700  0.93307700  1
  C  249  1  0.74711600  0.43371100  0.06255900  1
  C  252  1  0.03570500  0.35296600  0.03373300  1
  C  254  1  0.80999200  0.27898900  0.15108200  1
  C  256  1  0.77358900  0.39412500  0.40228400  1
  C  257  1  0.79024000  0.36432000  0.40111400  1
  C  258  1  0.81091600  0.33836600  0.37139200  1
  C  259  1  0.81417600  0.34045400  0.34133100  1
  C  260  1  0.80003700  0.37142700  0.34358300  1
  C  261  1  0.77948500  0.39755500  0.37323100  1
  C  262  1  0.84103400  0.31366200  0.31055200  1
  C  263  1  0.89220900  0.32740900  0.32115600  1
  C  264  1  0.91134400  0.35281900  0.31505800  1
  C  265  1  0.95756100  0.36638000  0.32608800  1
  C  266  1  0.98663800  0.35634300  0.34512800  1
  C  267  1  0.96602500  0.33311600  0.35368400  1
  C  268  1  0.92004200  0.31944500  0.34234300  1
  C  269  1  0.83282300  0.27760700  0.30370000  1
  C  270  1  0.82501700  0.30940600  0.27655400  1
  C  271  1  0.85828200  0.29808700  0.24948400  1
  C  272  1  0.84495000  0.29313800  0.21770800  1
  C  273  1  0.79662100  0.29659200  0.21015100  1
  C  274  1  0.76226600  0.30568700  0.23623500  1
  C  275  1  0.77614800  0.31146500  0.26853100  1
  C  276  1  0.78731300  0.26648100  0.30864300  1
  C  277  1  0.77880300  0.23250600  0.29964000  1
  C  278  1  0.81513100  0.20771800  0.28402000  1
  C  279  1  0.86017000  0.21839200  0.27821600  1
  C  280  1  0.86842800  0.25227300  0.28723600  1
  C  297  1  0.78524200  0.29678900  0.18026100  1
  C  298  1  0.74712200  0.41701600  0.42994200  1
  C  301  1  0.03567600  0.36507700  0.34918500  1
  C  303  1  0.81002200  0.17372700  0.27518800  1
  C  305  1  0.77358400  0.06156300  0.70130800  1
  C  306  1  0.79026800  0.09019800  0.73110400  1
  C  307  1  0.81092400  0.08643900  0.75707200  1
  C  308  1  0.81418600  0.05429000  0.75498500  1
  C  309  1  0.80004900  0.02556700  0.72401100  1
  C  310  1  0.77945800  0.02908500  0.69788900  1
  C  311  1  0.84103800  0.05031000  0.78178400  1
  C  312  1  0.89221600  0.04716700  0.76804100  1
  C  313  1  0.91135600  0.01565900  0.74263700  1
  C  314  1  0.95757400  0.01312700  0.72907600  1
  C  315  1  0.98665500  0.04220500  0.73911600  1
  C  316  1  0.96602100  0.07399200  0.76231900  1
  C  317  1  0.92005300  0.07631600  0.77600800  1
  C  318  1  0.83282500  0.07951300  0.81783900  1
  C  319  1  0.82503300  0.02057800  0.78606600  1
  C  320  1  0.85830500  0.00480600  0.79735200  1
  C  321  1  0.84497700  0.97795200  0.80225900  1
  C  322  1  0.79664300  0.96695700  0.79882600  1
  C  323  1  0.76228500  0.98395000  0.78973800  1
  C  324  1  0.77616500  0.01047700  0.78396900  1
  C  325  1  0.78730800  0.09557200  0.82896400  1
  C  326  1  0.77879100  0.12053700  0.86293900  1
  C  327  1  0.81512300  0.12970900  0.88772400  1
  C  328  1  0.86016300  0.11323200  0.87705300  1
  C  329  1  0.86842700  0.08837900  0.84317200  1
  C  346  1  0.78530300  0.93686900  0.79863500  1
  C  347  1  0.74705100  0.06630600  0.67841900  1
  C  350  1  0.03569400  0.03753700  0.73036400  1
  C  352  1  0.80999000  0.15486900  0.92171000  1
  C  354  1  0.77359600  0.69313300  0.03388700  1
  C  355  1  0.79027400  0.69430700  0.00525500  1
  C  356  1  0.81094300  0.72403400  0.00901800  1
  C  357  1  0.81419600  0.75411300  0.04115600  1
  C  358  1  0.80006100  0.75183500  0.06987000  1
  C  359  1  0.77947600  0.72218900  0.06635700  1
  C  360  1  0.84104800  0.78489000  0.04513600  1
  C  361  1  0.89223300  0.77430900  0.04827900  1
  C  362  1  0.91137300  0.78038800  0.07978000  1
  C  363  1  0.95758300  0.76935100  0.08231500  1
  C  364  1  0.98666100  0.75030200  0.05324000  1
  C  365  1  0.96602500  0.74171900  0.02145500  1
  C  366  1  0.92006700  0.75310300  0.01913200  1
  C  367  1  0.83283800  0.79172900  0.01592700  1
  C  368  1  0.82504400  0.81889400  0.07487500  1
  C  369  1  0.85830000  0.84596600  0.09064100  1
  C  370  1  0.84496700  0.87774000  0.11747100  1
  C  371  1  0.79663900  0.88528900  0.12848500  1
  C  372  1  0.76229300  0.85919800  0.11150600  1
  C  373  1  0.77617400  0.82691200  0.08496700  1
  C  374  1  0.78731900  0.78680500  0.99987000  1
  C  375  1  0.77879700  0.79580600  0.97489900  1
  C  376  1  0.81512100  0.81142600  0.96572900  1
  C  377  1  0.86015800  0.81723700  0.98220600  1
  C  378  1  0.86842000  0.80821600  0.00706500  1
  C  395  1  0.78530100  0.91518500  0.15857800  1
  C  396  1  0.74708600  0.66548300  0.02915300  1
  C  399  1  0.03569000  0.74621400  0.05794600  1
  C  401  1  0.81001900  0.82022500  0.94055200  1
  C  403  1  0.33202800  0.06156100  0.40230400  1
  C  404  1  0.31536800  0.09019700  0.40113700  1
  C  405  1  0.29470700  0.08643000  0.37140600  1
  C  406  1  0.29145600  0.05429000  0.34133000  1
  C  407  1  0.30559200  0.02557500  0.34360200  1
  C  408  1  0.32616400  0.02908800  0.37324800  1
  C  409  1  0.26460800  0.05030400  0.31055000  1
  C  410  1  0.21342400  0.04716300  0.32113300  1
  C  411  1  0.19428100  0.01566300  0.31505400  1
  C  412  1  0.14807800  0.01313500  0.32610300  1
  C  413  1  0.11899800  0.04220600  0.34519200  1
  C  414  1  0.13963700  0.07398300  0.35373100  1
  C  415  1  0.18558900  0.07630600  0.34233700  1
  C  416  1  0.27281900  0.07951100  0.30371000  1
  C  417  1  0.28061400  0.02056600  0.27654900  1
  C  418  1  0.24736000  0.00479600  0.24947400  1
  C  419  1  0.26070000  0.97796700  0.21770100  1
  C  420  1  0.30902700  0.96695700  0.21015200  1
  C  421  1  0.34337600  0.98394700  0.23624000  1
  C  422  1  0.32948700  0.01047700  0.26853200  1
  C  423  1  0.31834000  0.09556400  0.30862900  1
  C  424  1  0.32686700  0.12052500  0.29961600  1
  C  425  1  0.29054400  0.12968700  0.28399000  1
  C  426  1  0.24550400  0.11321700  0.27818700  1
  C  427  1  0.23723900  0.08836800  0.28722000  1
  C  444  1  0.32038900  0.93687600  0.18024200  1
  C  445  1  0.35856400  0.06631500  0.42994700  1
  C  448  1  0.06996400  0.03750400  0.34927400  1
  C  450  1  0.29564800  0.15488600  0.27522200  1
  C  452  1  0.33204200  0.69314500  0.70129600  1
  C  453  1  0.31538300  0.69432800  0.73110600  1
  C  454  1  0.29473600  0.72406400  0.75706200  1
  C  455  1  0.29149500  0.75413100  0.75497700  1
  C  456  1  0.30564300  0.75185500  0.72399800  1
  C  457  1  0.32619200  0.72220100  0.69787000  1
  C  458  1  0.26462200  0.78489300  0.78177700  1
  C  459  1  0.21344200  0.77428700  0.76804600  1
  C  460  1  0.19431300  0.78037000  0.74262400  1
  C  461  1  0.14808200  0.76936200  0.72908000  1
  C  462  1  0.11899100  0.75028800  0.73907200  1
  C  463  1  0.13960500  0.74177300  0.76233300  1
  C  464  1  0.18558500  0.75311200  0.77601000  1
  C  465  1  0.27285500  0.79173300  0.81782400  1
  C  466  1  0.28061800  0.81889800  0.78604300  1
  C  467  1  0.24736000  0.84596800  0.79734500  1
  C  468  1  0.26069600  0.87773900  0.80227800  1
  C  469  1  0.30903400  0.88530900  0.79886800  1
  C  470  1  0.34337900  0.85921900  0.78977200  1
  C  471  1  0.32949000  0.82692200  0.78399000  1
  C  472  1  0.31836900  0.78681400  0.82896100  1
  C  473  1  0.32688900  0.79583600  0.86293800  1
  C  474  1  0.29055900  0.81145500  0.88772000  1
  C  475  1  0.24551900  0.81725900  0.87704600  1
  C  476  1  0.23726100  0.80822600  0.84316300  1
  C  493  1  0.32047500  0.91520700  0.79868800  1
  C  494  1  0.35838100  0.66540300  0.67836800  1
  C  497  1  0.06995700  0.74620400  0.73030200  1
  C  499  1  0.29564800  0.82022000  0.92168800  1
  C  501  1  0.33203900  0.39414100  0.03387600  1
  C  502  1  0.31537900  0.36433200  0.00525000  1
  C  503  1  0.29473600  0.33837500  0.00902800  1
  C  504  1  0.29148800  0.34046100  0.04118100  1
  C  505  1  0.30563500  0.37144100  0.06988700  1
  C  506  1  0.32619600  0.39756300  0.06636000  1
  C  507  1  0.26461500  0.31366000  0.04514100  1
  C  508  1  0.21343800  0.32739600  0.04826700  1
  C  509  1  0.19431000  0.35282400  0.07976900  1
  C  510  1  0.14811100  0.36641400  0.08229700  1
  C  511  1  0.11903400  0.35642100  0.05322000  1
  C  512  1  0.13963000  0.33313500  0.02145100  1
  C  513  1  0.18558900  0.31943000  0.01912400  1
  C  514  1  0.27284800  0.27761200  0.01593300  1
  C  515  1  0.28062800  0.30940800  0.07488800  1
  C  516  1  0.24736700  0.29810300  0.09065100  1
  C  517  1  0.26070300  0.29315700  0.11748200  1
  C  518  1  0.30904100  0.29657500  0.12847100  1
  C  519  1  0.34338600  0.30568300  0.11148400  1
  C  520  1  0.32950100  0.31145100  0.08495800  1
  C  521  1  0.31835400  0.26647600  0.99986700  1
  C  522  1  0.32686000  0.23250200  0.97488800  1
  C  523  1  0.29053400  0.20771400  0.96572700  1
  C  524  1  0.24550100  0.21839100  0.98221200  1
  C  525  1  0.23725000  0.25227200  0.00707800  1
  C  542  1  0.32050800  0.29672500  0.15853600  1
  C  543  1  0.35838100  0.41706500  0.02906300  1
  C  546  1  0.06998500  0.36517800  0.05795500  1
  C  548  1  0.29563700  0.17372500  0.94057000  1
  C  550  1  0.33204200  0.03766300  0.68937900  1
  C  551  1  0.31539000  0.00902900  0.69054900  1
  C  552  1  0.29472200  0.01280000  0.72027100  1
  C  553  1  0.29147000  0.04494900  0.75033000  1
  C  554  1  0.30560700  0.07367000  0.74808200  1
  C  555  1  0.32616000  0.07014600  0.71843800  1
  C  556  1  0.26461500  0.04894300  0.78111100  1
  C  557  1  0.21343800  0.05206900  0.77050000  1
  C  558  1  0.19431000  0.08357300  0.77657800  1
  C  559  1  0.14810300  0.08610200  0.76552700  1
  C  560  1  0.11903700  0.05702300  0.74643800  1
  C  561  1  0.13964100  0.02525100  0.73793500  1
  C  562  1  0.18559200  0.02292400  0.74932200  1
  C  563  1  0.27285100  0.01973200  0.78794500  1
  C  564  1  0.28063600  0.07868600  0.81510700  1
  C  565  1  0.24738500  0.09443300  0.84218400  1
  C  566  1  0.26071800  0.12128000  0.87395300  1
  C  567  1  0.30905900  0.13227500  0.88150300  1
  C  568  1  0.34340400  0.11527400  0.85541600  1
  C  569  1  0.32951200  0.08875700  0.82312400  1
  C  570  1  0.31836100  0.00366900  0.78301700  1
  C  571  1  0.32687100  0.97869000  0.79200900  1
  C  572  1  0.29054100  0.96951800  0.80762300  1
  C  573  1  0.24550800  0.98600400  0.81343700  1
  C  574  1  0.23725400  0.01087200  0.80442500  1
  C  591  1  0.32049300  0.16234300  0.91142700  1
  C  592  1  0.35848800  0.03288100  0.66170900  1
  C  595  1  0.06998900  0.06174600  0.74246500  1
  C  597  1  0.29565100  0.94436600  0.81646100  1
  C  599  1  0.33207400  0.40608200  0.39032700  1
  C  600  1  0.31541100  0.40491500  0.36052700  1
  C  601  1  0.29474700  0.37519100  0.33457000  1
  C  602  1  0.29148500  0.34513100  0.33665900  1
  C  603  1  0.30562500  0.34738300  0.36763100  1
  C  604  1  0.32616700  0.37703300  0.39376200  1
  C  605  1  0.26462900  0.31435400  0.30986600  1
  C  606  1  0.21345300  0.32496000  0.32360400  1
  C  607  1  0.19432400  0.31886400  0.34902000  1
  C  608  1  0.14812100  0.32991000  0.36260500  1
  C  609  1  0.11902300  0.34892900  0.35255300  1
  C  610  1  0.13962700  0.35748600  0.32932400  1
  C  611  1  0.18561000  0.34615000  0.31565300  1
  C  612  1  0.27285100  0.30751900  0.27381800  1
  C  613  1  0.28065400  0.28035800  0.30560700  1
  C  614  1  0.24739600  0.25328200  0.29427100  1
  C  615  1  0.26073600  0.22151700  0.28934900  1
  C  616  1  0.30907700  0.21395200  0.29277800  1
  C  617  1  0.34340400  0.24005500  0.30191200  1
  C  618  1  0.32952300  0.27234200  0.30766900  1
  C  619  1  0.31836100  0.31244100  0.26267800  1
  C  620  1  0.32687100  0.30343000  0.22870100  1
  C  621  1  0.29053700  0.28781500  0.20391900  1
  C  622  1  0.24550100  0.28201400  0.21459800  1
  C  623  1  0.23725000  0.29103500  0.24848100  1
  C  640  1  0.32037500  0.18407200  0.29301200  1
  C  641  1  0.35847000  0.43377800  0.41325900  1
  C  644  1  0.06998500  0.35297400  0.36128100  1
  C  646  1  0.29564100  0.27897700  0.16992800  1
  C  648  1  0.33207100  0.70512300  0.05778200  1
  C  649  1  0.31541500  0.73492300  0.08641600  1
  C  650  1  0.29473300  0.76087500  0.08264800  1
  C  651  1  0.29147000  0.75878500  0.05049900  1
  C  652  1  0.30561000  0.72781200  0.02177800  1
  C  653  1  0.32616700  0.70168700  0.02529700  1
  C  654  1  0.26461900  0.78557700  0.04651400  1
  C  655  1  0.21343800  0.77183500  0.04337100  1
  C  656  1  0.19429900  0.74642800  0.01186200  1
  C  657  1  0.14807500  0.73287400  0.00933100  1
  C  658  1  0.11899800  0.74291300  0.03840900  1
  C  659  1  0.13961200  0.76614500  0.07019200  1
  C  660  1  0.18560300  0.77980500  0.07252200  1
  C  661  1  0.27283700  0.82163400  0.07571500  1
  C  662  1  0.28063900  0.78983100  0.01677100  1
  C  663  1  0.24737400  0.80115000  0.00102100  1
  C  664  1  0.26071000  0.80610200  0.97419700  1
  C  665  1  0.30903800  0.80264300  0.96318400  1
  C  666  1  0.34338600  0.79352600  0.98015600  1
  C  667  1  0.32950800  0.78777200  0.00669100  1
  C  668  1  0.31835100  0.83275700  0.09178000  1
  C  669  1  0.32687400  0.86673400  0.11674100  1
  C  670  1  0.29055200  0.89152500  0.12590300  1
  C  671  1  0.24550800  0.88085000  0.10943300  1
  C  672  1  0.23723900  0.84696800  0.08458100  1
  C  689  1  0.32038600  0.80243900  0.93309000  1
  C  690  1  0.35854900  0.68223400  0.06255100  1
  C  693  1  0.06996400  0.73415700  0.03371800  1
  C  695  1  0.29567300  0.92552000  0.15105500  1
  N  2  1  0.71062800  0.60769800  0.60967000  1
  N  4  1  0.62802800  0.59838200  0.59565400  1
  N  6  1  0.65367300  0.64501900  0.64707400  1
  N  7  1  0.73247900  0.65482300  0.66009000  1
  N  8  1  0.57575600  0.64138100  0.63865500  1
  N  9  1  0.69352800  0.56318700  0.56041200  1
  N  11  1  0.71106900  0.05534000  0.48749800  1
  N  13  1  0.62905100  0.05065300  0.49755800  1
  N  15  1  0.65343100  0.05546400  0.45063700  1
  N  16  1  0.73224000  0.05872200  0.44049300  1
  N  17  1  0.57559500  0.05065500  0.45493500  1
  N  18  1  0.69773300  0.05067700  0.53197600  1
  N  20  1  0.71165400  0.48552200  0.04014500  1
  N  22  1  0.63002000  0.50064300  0.04477900  1
  N  24  1  0.65342100  0.44876800  0.03994800  1
  N  25  1  0.73212500  0.43508400  0.03670200  1
  N  26  1  0.57578200  0.45803400  0.04475300  1
  N  27  1  0.69957300  0.53516900  0.04485800  1
  N  29  1  0.71059100  0.49160900  0.48205000  1
  N  31  1  0.62788100  0.50079400  0.49591900  1
  N  33  1  0.65370300  0.45422900  0.44456200  1
  N  34  1  0.73247700  0.44445700  0.43158000  1
  N  35  1  0.57575600  0.45773800  0.45286300  1
  N  36  1  0.69240000  0.53621100  0.53143500  1
  N  38  1  0.71047500  0.04389100  0.60344300  1
  N  40  1  0.62736400  0.04854600  0.59505500  1
  N  42  1  0.65399100  0.04377400  0.64130100  1
  N  43  1  0.73264700  0.04056000  0.65082900  1
  N  44  1  0.57568500  0.04853800  0.63811700  1
  N  45  1  0.68650200  0.04884400  0.55825500  1
  N  47  1  0.71056400  0.61248000  0.05153300  1
  N  49  1  0.62727800  0.60029500  0.04695200  1
  N  51  1  0.65446200  0.65097000  0.05168800  1
  N  52  1  0.73295700  0.66343600  0.05485300  1
  N  53  1  0.57595000  0.64346100  0.04693300  1
  N  54  1  0.68037500  0.56157100  0.04642900  1
  N  56  1  0.39508400  0.04388800  0.48269800  1
  N  58  1  0.47833000  0.04850800  0.49524600  1
  N  60  1  0.45138200  0.04378000  0.44445200  1
  N  61  1  0.37280400  0.04058900  0.43189700  1
  N  62  1  0.52976500  0.04852700  0.45201600  1
  N  63  1  0.42287900  0.04894500  0.53334200  1
  N  65  1  0.39508400  0.61332300  0.60374700  1
  N  67  1  0.47792800  0.59967300  0.59479300  1
  N  69  1  0.45184800  0.65093100  0.64128400  1
  N  70  1  0.37307700  0.66380400  0.65095500  1
  N  71  1  0.52988000  0.64272700  0.63785400  1
  N  72  1  0.41498400  0.56372700  0.55898400  1
  N  74  1  0.39510900  0.49160500  0.05159800  1
  N  76  1  0.47786400  0.50069100  0.04689400  1
  N  78  1  0.45193100  0.45416100  0.05166500  1
  N  79  1  0.37312700  0.44445100  0.05488600  1
  N  80  1  0.52991300  0.45744500  0.04688200  1
  N  81  1  0.41350200  0.53620300  0.04680900  1
  N  83  1  0.39436600  0.05532500  0.60988700  1
  N  85  1  0.47621600  0.05065500  0.59503900  1
  N  87  1  0.45215000  0.05547000  0.64680600  1
  N  88  1  0.37338600  0.05872900  0.66028100  1
  N  89  1  0.52979800  0.05067200  0.63791300  1
  N  90  1  0.40678000  0.05062600  0.56053500  1
  N  92  1  0.39496900  0.48572800  0.48768600  1
  N  94  1  0.47742600  0.49992200  0.49719300  1
  N  96  1  0.45204200  0.44841500  0.45049900  1
  N  97  1  0.37322800  0.43531400  0.44062200  1
  N  98  1  0.52987700  0.45689400  0.45417600  1
  N  99  1  0.41069500  0.53486900  0.53210100  1
  N  101  1  0.39500500  0.60769700  0.04006500  1
  N  103  1  0.47756200  0.59830800  0.04476000  1
  N  105  1  0.45204600  0.64497500  0.03996800  1
  N  106  1  0.37324200  0.65482000  0.03674300  1
  N  107  1  0.53008500  0.64109400  0.04478100  1
  N  108  1  0.41191900  0.56317400  0.04481000  1
