# generated using pymatgen
data_ZnH18C18(NO)4
_symmetry_space_group_name_H-M   'P 1'
_cell_length_a   16.33907672
_cell_length_b   17.70142538
_cell_length_c   17.85293472
_cell_angle_alpha   90.00000000
_cell_angle_beta   90.00000000
_cell_angle_gamma   90.00000000
_symmetry_Int_Tables_number   1
_chemical_formula_structural   ZnH18C18(NO)4
_chemical_formula_sum   'Zn8 H144 C144 N32 O32'
_cell_volume   5163.51410421
_cell_formula_units_Z   8
loop_
 _symmetry_equiv_pos_site_id
 _symmetry_equiv_pos_as_xyz
  1  'x, y, z'
loop_
 _atom_site_type_symbol
 _atom_site_label
 _atom_site_symmetry_multiplicity
 _atom_site_fract_x
 _atom_site_fract_y
 _atom_site_fract_z
 _atom_site_occupancy
  Zn  Zn1  1  0.27515898  0.89655469  0.61881195  1.0
  Zn  Zn2  1  0.77515898  0.60344531  0.38118805  1.0
  Zn  Zn3  1  0.77515898  0.39655469  0.88118805  1.0
  Zn  Zn4  1  0.27515898  0.10344531  0.11881195  1.0
  Zn  Zn5  1  0.22484102  0.60344531  0.11881195  1.0
  Zn  Zn6  1  0.72484102  0.89655469  0.88118805  1.0
  Zn  Zn7  1  0.72484102  0.10344531  0.38118805  1.0
  Zn  Zn8  1  0.22484102  0.39655469  0.61881195  1.0
  H  H1  1  0.28490866  0.07633236  0.58919433  1.0
  H  H2  1  0.14424068  0.01808297  0.18341583  1.0
  H  H3  1  0.21851699  0.84778867  0.44720333  1.0
  H  H4  1  0.32653513  0.84703067  0.45716554  1.0
  H  H5  1  0.28123069  0.87828454  0.37143432  1.0
  H  H6  1  0.26029939  0.19541467  0.51702870  1.0
  H  H7  1  0.20270865  0.18104793  0.43360436  1.0
  H  H8  1  0.31095969  0.18890359  0.42898274  1.0
  H  H9  1  0.09420444  0.90599549  0.30689841  1.0
  H  H10  1  0.04456744  0.99488222  0.31758228  1.0
  H  H11  1  0.10366665  0.95779201  0.39182388  1.0
  H  H12  1  0.41532442  0.09010142  0.24730738  1.0
  H  H13  1  0.40033947  0.09289826  0.34642290  1.0
  H  H14  1  0.36218183  0.16656671  0.28785749  1.0
  H  H15  1  0.09193018  0.73613295  0.55715983  1.0
  H  H16  1  0.98987478  0.66956657  0.47470547  1.0
  H  H17  1  0.88899529  0.88352478  0.40996265  1.0
  H  H18  1  0.98432451  0.94913168  0.49713066  1.0
  H  H19  1  0.78490866  0.42366764  0.41080567  1.0
  H  H20  1  0.64424068  0.48191703  0.81658417  1.0
  H  H21  1  0.71851699  0.65221133  0.55279667  1.0
  H  H22  1  0.82653513  0.65296933  0.54283446  1.0
  H  H23  1  0.78123069  0.62171546  0.62856568  1.0
  H  H24  1  0.76029939  0.30458533  0.48297130  1.0
  H  H25  1  0.70270865  0.31895207  0.56639564  1.0
  H  H26  1  0.81095969  0.31109641  0.57101726  1.0
  H  H27  1  0.59420444  0.59400451  0.69310159  1.0
  H  H28  1  0.54456744  0.50511778  0.68241772  1.0
  H  H29  1  0.60366665  0.54220799  0.60817612  1.0
  H  H30  1  0.91532442  0.40989858  0.75269262  1.0
  H  H31  1  0.90033947  0.40710174  0.65357710  1.0
  H  H32  1  0.86218183  0.33343329  0.71214251  1.0
  H  H33  1  0.59193018  0.76386705  0.44284017  1.0
  H  H34  1  0.48987478  0.83043343  0.52529453  1.0
  H  H35  1  0.38899529  0.61647522  0.59003735  1.0
  H  H36  1  0.48432451  0.55086832  0.50286934  1.0
  H  H37  1  0.78490866  0.57633236  0.91080567  1.0
  H  H38  1  0.64424068  0.51808297  0.31658417  1.0
  H  H39  1  0.71851699  0.34778867  0.05279667  1.0
  H  H40  1  0.82653513  0.34703067  0.04283446  1.0
  H  H41  1  0.78123069  0.37828454  0.12856568  1.0
  H  H42  1  0.76029939  0.69541467  0.98297130  1.0
  H  H43  1  0.70270865  0.68104793  0.06639564  1.0
  H  H44  1  0.81095969  0.68890359  0.07101726  1.0
  H  H45  1  0.59420444  0.40599549  0.19310159  1.0
  H  H46  1  0.54456744  0.49488222  0.18241772  1.0
  H  H47  1  0.60366665  0.45779201  0.10817612  1.0
  H  H48  1  0.91532442  0.59010142  0.25269262  1.0
  H  H49  1  0.90033947  0.59289826  0.15357710  1.0
  H  H50  1  0.86218183  0.66656671  0.21214251  1.0
  H  H51  1  0.59193018  0.23613295  0.94284017  1.0
  H  H52  1  0.48987478  0.16956657  0.02529453  1.0
  H  H53  1  0.38899529  0.38352478  0.09003735  1.0
  H  H54  1  0.48432451  0.44913168  0.00286934  1.0
  H  H55  1  0.28490866  0.92366764  0.08919433  1.0
  H  H56  1  0.14424068  0.98191703  0.68341583  1.0
  H  H57  1  0.21851699  0.15221133  0.94720333  1.0
  H  H58  1  0.32653513  0.15296933  0.95716554  1.0
  H  H59  1  0.28123069  0.12171546  0.87143432  1.0
  H  H60  1  0.26029939  0.80458533  0.01702870  1.0
  H  H61  1  0.20270865  0.81895207  0.93360436  1.0
  H  H62  1  0.31095969  0.81109641  0.92898274  1.0
  H  H63  1  0.09420444  0.09400451  0.80689841  1.0
  H  H64  1  0.04456744  0.00511778  0.81758228  1.0
  H  H65  1  0.10366665  0.04220799  0.89182388  1.0
  H  H66  1  0.41532442  0.90989858  0.74730738  1.0
  H  H67  1  0.40033947  0.90710174  0.84642290  1.0
  H  H68  1  0.36218183  0.83343329  0.78785749  1.0
  H  H69  1  0.09193018  0.26386705  0.05715983  1.0
  H  H70  1  0.98987478  0.33043343  0.97470547  1.0
  H  H71  1  0.88899529  0.11647522  0.90996265  1.0
  H  H72  1  0.98432451  0.05086832  0.99713066  1.0
  H  H73  1  0.21509134  0.42366764  0.08919433  1.0
  H  H74  1  0.35575932  0.48191703  0.68341583  1.0
  H  H75  1  0.28148301  0.65221133  0.94720333  1.0
  H  H76  1  0.17346487  0.65296933  0.95716554  1.0
  H  H77  1  0.21876931  0.62171546  0.87143432  1.0
  H  H78  1  0.23970061  0.30458533  0.01702870  1.0
  H  H79  1  0.29729135  0.31895207  0.93360436  1.0
  H  H80  1  0.18904031  0.31109641  0.92898274  1.0
  H  H81  1  0.40579556  0.59400451  0.80689841  1.0
  H  H82  1  0.45543256  0.50511778  0.81758228  1.0
  H  H83  1  0.39633335  0.54220799  0.89182388  1.0
  H  H84  1  0.08467558  0.40989858  0.74730738  1.0
  H  H85  1  0.09966053  0.40710174  0.84642290  1.0
  H  H86  1  0.13781817  0.33343329  0.78785749  1.0
  H  H87  1  0.40806982  0.76386705  0.05715983  1.0
  H  H88  1  0.51012522  0.83043343  0.97470547  1.0
  H  H89  1  0.61100471  0.61647522  0.90996265  1.0
  H  H90  1  0.51567549  0.55086832  0.99713066  1.0
  H  H91  1  0.71509134  0.07633236  0.91080567  1.0
  H  H92  1  0.85575932  0.01808297  0.31658417  1.0
  H  H93  1  0.78148301  0.84778867  0.05279667  1.0
  H  H94  1  0.67346487  0.84703067  0.04283446  1.0
  H  H95  1  0.71876931  0.87828454  0.12856568  1.0
  H  H96  1  0.73970061  0.19541467  0.98297130  1.0
  H  H97  1  0.79729135  0.18104793  0.06639564  1.0
  H  H98  1  0.68904031  0.18890359  0.07101726  1.0
  H  H99  1  0.90579556  0.90599549  0.19310159  1.0
  H  H100  1  0.95543256  0.99488222  0.18241772  1.0
  H  H101  1  0.89633335  0.95779201  0.10817612  1.0
  H  H102  1  0.58467558  0.09010142  0.25269262  1.0
  H  H103  1  0.59966053  0.09289826  0.15357710  1.0
  H  H104  1  0.63781817  0.16656671  0.21214251  1.0
  H  H105  1  0.90806982  0.73613295  0.94284017  1.0
  H  H106  1  0.01012522  0.66956657  0.02529453  1.0
  H  H107  1  0.11100471  0.88352478  0.09003735  1.0
  H  H108  1  0.01567549  0.94913168  0.00286934  1.0
  H  H109  1  0.71509134  0.92366764  0.41080567  1.0
  H  H110  1  0.85575932  0.98191703  0.81658417  1.0
  H  H111  1  0.78148301  0.15221133  0.55279667  1.0
  H  H112  1  0.67346487  0.15296933  0.54283446  1.0
  H  H113  1  0.71876931  0.12171546  0.62856568  1.0
  H  H114  1  0.73970061  0.80458533  0.48297130  1.0
  H  H115  1  0.79729135  0.81895207  0.56639564  1.0
  H  H116  1  0.68904031  0.81109641  0.57101726  1.0
  H  H117  1  0.90579556  0.09400451  0.69310159  1.0
  H  H118  1  0.95543256  0.00511778  0.68241772  1.0
  H  H119  1  0.89633335  0.04220799  0.60817612  1.0
  H  H120  1  0.58467558  0.90989858  0.75269262  1.0
  H  H121  1  0.59966053  0.90710174  0.65357710  1.0
  H  H122  1  0.63781817  0.83343329  0.71214251  1.0
  H  H123  1  0.90806982  0.26386705  0.44284017  1.0
  H  H124  1  0.01012522  0.33043343  0.52529453  1.0
  H  H125  1  0.11100471  0.11647522  0.59003735  1.0
  H  H126  1  0.01567549  0.05086832  0.50286934  1.0
  H  H127  1  0.21509134  0.57633236  0.58919433  1.0
  H  H128  1  0.35575932  0.51808297  0.18341583  1.0
  H  H129  1  0.28148301  0.34778867  0.44720333  1.0
  H  H130  1  0.17346487  0.34703067  0.45716554  1.0
  H  H131  1  0.21876931  0.37828454  0.37143432  1.0
  H  H132  1  0.23970061  0.69541467  0.51702870  1.0
  H  H133  1  0.29729135  0.68104793  0.43360436  1.0
  H  H134  1  0.18904031  0.68890359  0.42898274  1.0
  H  H135  1  0.40579556  0.40599549  0.30689841  1.0
  H  H136  1  0.45543256  0.49488222  0.31758228  1.0
  H  H137  1  0.39633335  0.45779201  0.39182388  1.0
  H  H138  1  0.08467558  0.59010142  0.24730738  1.0
  H  H139  1  0.09966053  0.59289826  0.34642290  1.0
  H  H140  1  0.13781817  0.66656671  0.28785749  1.0
  H  H141  1  0.40806982  0.23613295  0.55715983  1.0
  H  H142  1  0.51012522  0.16956657  0.47470547  1.0
  H  H143  1  0.61100471  0.38352478  0.40996265  1.0
  H  H144  1  0.51567549  0.44913168  0.49713066  1.0
  C  C1  1  0.27497398  0.87821775  0.43260452  1.0
  C  C2  1  0.27314764  0.95726919  0.46098553  1.0
  C  C3  1  0.26085878  0.02447968  0.41963268  1.0
  C  C4  1  0.26661627  0.08358404  0.47160935  1.0
  C  C5  1  0.25993251  0.16672232  0.46257348  1.0
  C  C6  1  0.10043422  0.96294943  0.33078698  1.0
  C  C7  1  0.17459095  0.00185356  0.30191867  1.0
  C  C8  1  0.24384601  0.02999960  0.33958352  1.0
  C  C9  1  0.29330250  0.06381833  0.28393343  1.0
  C  C10  1  0.37216484  0.10519059  0.29199062  1.0
  C  C11  1  0.10737503  0.88566907  0.57940710  1.0
  C  C12  1  0.04453007  0.84656952  0.53215884  1.0
  C  C13  1  0.04644941  0.76763418  0.52530810  1.0
  C  C14  1  0.99072568  0.73095132  0.47912872  1.0
  C  C15  1  0.93290005  0.85156185  0.44318944  1.0
  C  C16  1  0.98649686  0.88803781  0.49167552  1.0
  C  C17  1  0.87172073  0.73355029  0.38903788  1.0
  C  C18  1  0.93411294  0.77280932  0.43698927  1.0
  C  C19  1  0.77497398  0.62178225  0.56739548  1.0
  C  C20  1  0.77314764  0.54273081  0.53901447  1.0
  C  C21  1  0.76085878  0.47552032  0.58036732  1.0
  C  C22  1  0.76661627  0.41641596  0.52839065  1.0
  C  C23  1  0.75993251  0.33327768  0.53742652  1.0
  C  C24  1  0.60043422  0.53705057  0.66921302  1.0
  C  C25  1  0.67459095  0.49814644  0.69808133  1.0
  C  C26  1  0.74384601  0.47000040  0.66041648  1.0
  C  C27  1  0.79330250  0.43618167  0.71606657  1.0
  C  C28  1  0.87216484  0.39480941  0.70800938  1.0
  C  C29  1  0.60737503  0.61433093  0.42059290  1.0
  C  C30  1  0.54453007  0.65343048  0.46784116  1.0
  C  C31  1  0.54644941  0.73236582  0.47469190  1.0
  C  C32  1  0.49072568  0.76904868  0.52087128  1.0
  C  C33  1  0.43290005  0.64843815  0.55681056  1.0
  C  C34  1  0.48649686  0.61196219  0.50832448  1.0
  C  C35  1  0.37172073  0.76644971  0.61096212  1.0
  C  C36  1  0.43411294  0.72719068  0.56301073  1.0
  C  C37  1  0.77497398  0.37821775  0.06739548  1.0
  C  C38  1  0.77314764  0.45726919  0.03901447  1.0
  C  C39  1  0.76085878  0.52447968  0.08036732  1.0
  C  C40  1  0.76661627  0.58358404  0.02839065  1.0
  C  C41  1  0.75993251  0.66666667  0.03742652  1.0
  C  C42  1  0.60043422  0.46294943  0.16921302  1.0
  C  C43  1  0.67459095  0.50185356  0.19808133  1.0
  C  C44  1  0.74384601  0.52999960  0.16041648  1.0
  C  C45  1  0.79330250  0.56381833  0.21606657  1.0
  C  C46  1  0.87216484  0.60519059  0.20800938  1.0
  C  C47  1  0.60737503  0.38566907  0.92059290  1.0
  C  C48  1  0.54453007  0.34656952  0.96784116  1.0
  C  C49  1  0.54644941  0.26763418  0.97469190  1.0
  C  C50  1  0.49072568  0.23095132  0.02087128  1.0
  C  C51  1  0.43290005  0.35156185  0.05681056  1.0
  C  C52  1  0.48649686  0.38803781  0.00832448  1.0
  C  C53  1  0.37172073  0.23355029  0.11096212  1.0
  C  C54  1  0.43411294  0.27280932  0.06301073  1.0
  C  C55  1  0.27497398  0.12178225  0.93260452  1.0
  C  C56  1  0.27314764  0.04273081  0.96098553  1.0
  C  C57  1  0.26085878  0.97552032  0.91963268  1.0
  C  C58  1  0.26661627  0.91641596  0.97160935  1.0
  C  C59  1  0.25993251  0.83327768  0.96257348  1.0
  C  C60  1  0.10043422  0.03705057  0.83078698  1.0
  C  C61  1  0.17459095  0.99814644  0.80191867  1.0
  C  C62  1  0.24384601  0.97000040  0.83958352  1.0
  C  C63  1  0.29330250  0.93618167  0.78393343  1.0
  C  C64  1  0.37216484  0.89480941  0.79199062  1.0
  C  C65  1  0.10737503  0.11433093  0.07940710  1.0
  C  C66  1  0.04453007  0.15343048  0.03215884  1.0
  C  C67  1  0.04644941  0.23236582  0.02530810  1.0
  C  C68  1  0.99072568  0.26904868  0.97912872  1.0
  C  C69  1  0.93290005  0.14843815  0.94318944  1.0
  C  C70  1  0.98649686  0.11196219  0.99167552  1.0
  C  C71  1  0.87172073  0.26644971  0.88903788  1.0
  C  C72  1  0.93411294  0.22719068  0.93698927  1.0
  C  C73  1  0.22502602  0.62178225  0.93260452  1.0
  C  C74  1  0.22685236  0.54273081  0.96098553  1.0
  C  C75  1  0.23914122  0.47552032  0.91963268  1.0
  C  C76  1  0.23338373  0.41641596  0.97160935  1.0
  C  C77  1  0.24006749  0.33327768  0.96257348  1.0
  C  C78  1  0.39956578  0.53705057  0.83078698  1.0
  C  C79  1  0.32540905  0.49814644  0.80191867  1.0
  C  C80  1  0.25615399  0.47000040  0.83958352  1.0
  C  C81  1  0.20669750  0.43618167  0.78393343  1.0
  C  C82  1  0.12783516  0.39480941  0.79199062  1.0
  C  C83  1  0.39262497  0.61433093  0.07940710  1.0
  C  C84  1  0.45546993  0.65343048  0.03215884  1.0
  C  C85  1  0.45355059  0.73236582  0.02530810  1.0
  C  C86  1  0.50927432  0.76904868  0.97912872  1.0
  C  C87  1  0.56709995  0.64843815  0.94318944  1.0
  C  C88  1  0.51350314  0.61196219  0.99167552  1.0
  C  C89  1  0.62827927  0.76644971  0.88903788  1.0
  C  C90  1  0.56588706  0.72719068  0.93698927  1.0
  C  C91  1  0.72502602  0.87821775  0.06739548  1.0
  C  C92  1  0.72685236  0.95726919  0.03901447  1.0
  C  C93  1  0.73914122  0.02447968  0.08036732  1.0
  C  C94  1  0.73338373  0.08358404  0.02839065  1.0
  C  C95  1  0.74006749  0.16672232  0.03742652  1.0
  C  C96  1  0.89956578  0.96294943  0.16921302  1.0
  C  C97  1  0.82540905  0.00185356  0.19808133  1.0
  C  C98  1  0.75615399  0.02999960  0.16041648  1.0
  C  C99  1  0.70669750  0.06381833  0.21606657  1.0
  C  C100  1  0.62783516  0.10519059  0.20800938  1.0
  C  C101  1  0.89262497  0.88566907  0.92059290  1.0
  C  C102  1  0.95546993  0.84656952  0.96784116  1.0
  C  C103  1  0.95355059  0.76763418  0.97469190  1.0
  C  C104  1  0.00927432  0.73095132  0.02087128  1.0
  C  C105  1  0.06709995  0.85156185  0.05681056  1.0
  C  C106  1  0.01350314  0.88803781  0.00832448  1.0
  C  C107  1  0.12827927  0.73355029  0.11096212  1.0
  C  C108  1  0.06588706  0.77280932  0.06301073  1.0
  C  C109  1  0.72502602  0.12178225  0.56739548  1.0
  C  C110  1  0.72685236  0.04273081  0.53901447  1.0
  C  C111  1  0.73914122  0.97552032  0.58036732  1.0
  C  C112  1  0.73338373  0.91641596  0.52839065  1.0
  C  C113  1  0.74006749  0.83327768  0.53742652  1.0
  C  C114  1  0.89956578  0.03705057  0.66921302  1.0
  C  C115  1  0.82540905  0.99814644  0.69808133  1.0
  C  C116  1  0.75615399  0.97000040  0.66041648  1.0
  C  C117  1  0.70669750  0.93618167  0.71606657  1.0
  C  C118  1  0.62783516  0.89480941  0.70800938  1.0
  C  C119  1  0.89262497  0.11433093  0.42059290  1.0
  C  C120  1  0.95546993  0.15343048  0.46784116  1.0
  C  C121  1  0.95355059  0.23236582  0.47469190  1.0
  C  C122  1  0.00927432  0.26904868  0.52087128  1.0
  C  C123  1  0.06709995  0.14843815  0.55681056  1.0
  C  C124  1  0.01350314  0.11196219  0.50832448  1.0
  C  C125  1  0.12827927  0.26644971  0.61096212  1.0
  C  C126  1  0.06588706  0.22719068  0.56301073  1.0
  C  C127  1  0.22502602  0.37821775  0.43260452  1.0
  C  C128  1  0.22685236  0.45726919  0.46098553  1.0
  C  C129  1  0.23914122  0.52447968  0.41963268  1.0
  C  C130  1  0.23338373  0.58358404  0.47160935  1.0
  C  C131  1  0.24006749  0.66666667  0.46257348  1.0
  C  C132  1  0.39956578  0.46294943  0.33078698  1.0
  C  C133  1  0.32540905  0.50185356  0.30191867  1.0
  C  C134  1  0.25615399  0.52999960  0.33958352  1.0
  C  C135  1  0.20669750  0.56381833  0.28393343  1.0
  C  C136  1  0.12783516  0.60519059  0.29199062  1.0
  C  C137  1  0.39262497  0.38566907  0.57940710  1.0
  C  C138  1  0.45546993  0.34656952  0.53215884  1.0
  C  C139  1  0.45355059  0.26763418  0.52530810  1.0
  C  C140  1  0.50927432  0.23095132  0.47912872  1.0
  C  C141  1  0.56709995  0.35156185  0.44318944  1.0
  C  C142  1  0.51350314  0.38803781  0.49167552  1.0
  C  C143  1  0.62827927  0.23355029  0.38903788  1.0
  C  C144  1  0.56588706  0.27280932  0.43698927  1.0
  N  N1  1  0.28464328  0.97401479  0.53378133  1.0
  N  N2  1  0.28059794  0.05041747  0.53866488  1.0
  N  N3  1  0.25655161  0.05561462  0.21712750  1.0
  N  N4  1  0.18522388  0.01798693  0.22872605  1.0
  N  N5  1  0.78464328  0.52598521  0.46621867  1.0
  N  N6  1  0.78059794  0.44958253  0.46133512  1.0
  N  N7  1  0.75655161  0.44438538  0.78287250  1.0
  N  N8  1  0.68522388  0.48201307  0.77127395  1.0
  N  N9  1  0.78464328  0.47401479  0.96621867  1.0
  N  N10  1  0.78059794  0.55041747  0.96133512  1.0
  N  N11  1  0.75655161  0.55561462  0.28287250  1.0
  N  N12  1  0.68522388  0.51798693  0.27127395  1.0
  N  N13  1  0.28464328  0.02598521  0.03378133  1.0
  N  N14  1  0.28059794  0.94958253  0.03866488  1.0
  N  N15  1  0.25655161  0.94438538  0.71712750  1.0
  N  N16  1  0.18522388  0.98201307  0.72872605  1.0
  N  N17  1  0.21535672  0.52598521  0.03378133  1.0
  N  N18  1  0.21940206  0.44958253  0.03866488  1.0
  N  N19  1  0.24344839  0.44438538  0.71712750  1.0
  N  N20  1  0.31477612  0.48201307  0.72872605  1.0
  N  N21  1  0.71535672  0.97401479  0.96621867  1.0
  N  N22  1  0.71940206  0.05041747  0.96133512  1.0
  N  N23  1  0.74344839  0.05561462  0.28287250  1.0
  N  N24  1  0.81477612  0.01798693  0.27127395  1.0
  N  N25  1  0.71535672  0.02598521  0.46621867  1.0
  N  N26  1  0.71940206  0.94958253  0.46133512  1.0
  N  N27  1  0.74344839  0.94438538  0.78287250  1.0
  N  N28  1  0.81477612  0.98201307  0.77127395  1.0
  N  N29  1  0.21535672  0.47401479  0.53378133  1.0
  N  N30  1  0.21940206  0.55041747  0.53866488  1.0
  N  N31  1  0.24344839  0.55561462  0.21712750  1.0
  N  N32  1  0.31477612  0.51798693  0.22872605  1.0
  O  O1  1  0.17276929  0.84612691  0.59054717  1.0
  O  O2  1  0.09504971  0.95195652  0.60302982  1.0
  O  O3  1  0.87363813  0.65996963  0.39629994  1.0
  O  O4  1  0.82273537  0.76969548  0.34946861  1.0
  O  O5  1  0.67276929  0.65387309  0.40945283  1.0
  O  O6  1  0.59504971  0.54804348  0.39697018  1.0
  O  O7  1  0.37363813  0.84003037  0.60370006  1.0
  O  O8  1  0.32273537  0.73030452  0.65053139  1.0
  O  O9  1  0.67276929  0.34612691  0.90945283  1.0
  O  O10  1  0.59504971  0.45195652  0.89697018  1.0
  O  O11  1  0.37363813  0.15996963  0.10370006  1.0
  O  O12  1  0.32273537  0.26969548  0.15053139  1.0
  O  O13  1  0.17276929  0.15387309  0.09054717  1.0
  O  O14  1  0.09504971  0.04804348  0.10302982  1.0
  O  O15  1  0.87363813  0.34003037  0.89629994  1.0
  O  O16  1  0.82273537  0.23030452  0.84946861  1.0
  O  O17  1  0.32723071  0.65387309  0.09054717  1.0
  O  O18  1  0.40495029  0.54804348  0.10302982  1.0
  O  O19  1  0.62636187  0.84003037  0.89629994  1.0
  O  O20  1  0.67726463  0.73030452  0.84946861  1.0
  O  O21  1  0.82723071  0.84612691  0.90945283  1.0
  O  O22  1  0.90495029  0.95195652  0.89697018  1.0
  O  O23  1  0.12636187  0.65996963  0.10370006  1.0
  O  O24  1  0.17726463  0.76969548  0.15053139  1.0
  O  O25  1  0.82723071  0.15387309  0.40945283  1.0
  O  O26  1  0.90495029  0.04804348  0.39697018  1.0
  O  O27  1  0.12636187  0.34003037  0.60370006  1.0
  O  O28  1  0.17726463  0.23030452  0.65053139  1.0
  O  O29  1  0.32723071  0.34612691  0.59054717  1.0
  O  O30  1  0.40495029  0.45195652  0.60302982  1.0
  O  O31  1  0.62636187  0.15996963  0.39629994  1.0
  O  O32  1  0.67726463  0.26969548  0.34946861  1.0
