# generated using pymatgen
data_MnH3(C3O2)3
_symmetry_space_group_name_H-M   'P 1'
_cell_length_a   12.21653000
_cell_length_b   13.89681000
_cell_length_c   16.47626000
_cell_angle_alpha   90.00463000
_cell_angle_beta   89.99722000
_cell_angle_gamma   89.91478000
_symmetry_Int_Tables_number   1
_chemical_formula_structural   MnH3(C3O2)3
_chemical_formula_sum   'Mn8 H24 C72 O48'
_cell_volume   2797.18467323
_cell_formula_units_Z   8
loop_
 _symmetry_equiv_pos_site_id
 _symmetry_equiv_pos_as_xyz
  1  'x, y, z'
loop_
 _atom_site_type_symbol
 _atom_site_label
 _atom_site_symmetry_multiplicity
 _atom_site_fract_x
 _atom_site_fract_y
 _atom_site_fract_z
 _atom_site_occupancy
  Mn  Mn0  1  0.54188000  0.39076000  0.41613000  1
  Mn  Mn1  1  0.45857000  0.10912000  0.91614000  1
  Mn  Mn2  1  0.04246000  0.60903000  0.08373000  1
  Mn  Mn3  1  0.95779000  0.89132000  0.58369000  1
  Mn  Mn4  1  0.45834000  0.60910000  0.58384000  1
  Mn  Mn5  1  0.54126000  0.89098000  0.08387000  1
  Mn  Mn6  1  0.95776000  0.39142000  0.91638000  1
  Mn  Mn7  1  0.04243000  0.10879000  0.41631000  1
  H  H8  1  0.24922000  0.65825000  0.52351000  1
  H  H9  1  0.51185000  0.26215000  0.15602000  1
  H  H10  1  0.77834000  0.45227000  0.21964000  1
  H  H11  1  0.75074000  0.84161000  0.02350000  1
  H  H12  1  0.48812000  0.23782000  0.65616000  1
  H  H13  1  0.22157000  0.04780000  0.71965000  1
  H  H14  1  0.74939000  0.34211000  0.97633000  1
  H  H15  1  0.01087000  0.73746000  0.34396000  1
  H  H16  1  0.27848000  0.54759000  0.28047000  1
  H  H17  1  0.25059000  0.15808000  0.47638000  1
  H  H18  1  0.98924000  0.76269000  0.84398000  1
  H  H19  1  0.72171000  0.95242000  0.78039000  1
  H  H20  1  0.75081000  0.34157000  0.47652000  1
  H  H21  1  0.48823000  0.73786000  0.84400000  1
  H  H22  1  0.22178000  0.54785000  0.78032000  1
  H  H23  1  0.24922000  0.15834000  0.97650000  1
  H  H24  1  0.51190000  0.76226000  0.34386000  1
  H  H25  1  0.77850000  0.95221000  0.28042000  1
  H  H26  1  0.25062000  0.65799000  0.02368000  1
  H  H27  1  0.98930000  0.26260000  0.65599000  1
  H  H28  1  0.72164000  0.45235000  0.71958000  1
  H  H29  1  0.74942000  0.84202000  0.52373000  1
  H  H30  1  0.01083000  0.23739000  0.15609000  1
  H  H31  1  0.27836000  0.04769000  0.21964000  1
  C  C32  1  0.21963000  0.65285000  0.46156000  1
  C  C33  1  0.41729000  0.27158000  0.49679000  1
  C  C34  1  0.58583000  0.30078000  0.13924000  1
  C  C35  1  0.60498000  0.36633000  0.28161000  1
  C  C36  1  0.62731000  0.29446000  0.06017000  1
  C  C37  1  0.37028000  0.53733000  0.43018000  1
  C  C38  1  0.73567000  0.40880000  0.17490000  1
  C  C39  1  0.27371000  0.59495000  0.40505000  1
  C  C40  1  0.64155000  0.35726000  0.19680000  1
  C  C41  1  0.78034000  0.84709000  0.96154000  1
  C  C42  1  0.58263000  0.22839000  0.99681000  1
  C  C43  1  0.41417000  0.19920000  0.63930000  1
  C  C44  1  0.39490000  0.13381000  0.78172000  1
  C  C45  1  0.37271000  0.20557000  0.56022000  1
  C  C46  1  0.62978000  0.96267000  0.93018000  1
  C  C47  1  0.26432000  0.09126000  0.67495000  1
  C  C48  1  0.72643000  0.90511000  0.90502000  1
  C  C49  1  0.35844000  0.14277000  0.69687000  1
  C  C50  1  0.72016000  0.34725000  0.03840000  1
  C  C51  1  0.91778000  0.72836000  0.00304000  1
  C  C52  1  0.08517000  0.69908000  0.36066000  1
  C  C53  1  0.10497000  0.63398000  0.21837000  1
  C  C54  1  0.12654000  0.70543000  0.43971000  1
  C  C55  1  0.87012000  0.46338000  0.07012000  1
  C  C56  1  0.23571000  0.59126000  0.32513000  1
  C  C57  1  0.77385000  0.40532000  0.09502000  1
  C  C58  1  0.14149000  0.64292000  0.30312000  1
  C  C59  1  0.27979000  0.15292000  0.53846000  1
  C  C60  1  0.08222000  0.77169000  0.50305000  1
  C  C61  1  0.91487000  0.80092000  0.86067000  1
  C  C62  1  0.89535000  0.86596000  0.71833000  1
  C  C63  1  0.87340000  0.79450000  0.93969000  1
  C  C64  1  0.12985000  0.03693000  0.57017000  1
  C  C65  1  0.76450000  0.90879000  0.82508000  1
  C  C66  1  0.22611000  0.09487000  0.59509000  1
  C  C67  1  0.85874000  0.85713000  0.80310000  1
  C  C68  1  0.78042000  0.34701000  0.53847000  1
  C  C69  1  0.58267000  0.72835000  0.50322000  1
  C  C70  1  0.41429000  0.69921000  0.86079000  1
  C  C71  1  0.39509000  0.63371000  0.71833000  1
  C  C72  1  0.37284000  0.70556000  0.93989000  1
  C  C73  1  0.62981000  0.46255000  0.56985000  1
  C  C74  1  0.26444000  0.59134000  0.82506000  1
  C  C75  1  0.72642000  0.40493000  0.59503000  1
  C  C76  1  0.35859000  0.64281000  0.80317000  1
  C  C77  1  0.21961000  0.15291000  0.03845000  1
  C  C78  1  0.41749000  0.77170000  0.00321000  1
  C  C79  1  0.58586000  0.80084000  0.36077000  1
  C  C80  1  0.60505000  0.86615000  0.21831000  1
  C  C81  1  0.62728000  0.79448000  0.43987000  1
  C  C82  1  0.37025000  0.03745000  0.06980000  1
  C  C83  1  0.73569000  0.90879000  0.32513000  1
  C  C84  1  0.27367000  0.09502000  0.09497000  1
  C  C85  1  0.64167000  0.85716000  0.30315000  1
  C  C86  1  0.27991000  0.65288000  0.96162000  1
  C  C87  1  0.08216000  0.27173000  0.99701000  1
  C  C88  1  0.91498000  0.30091000  0.63931000  1
  C  C89  1  0.89544000  0.36597000  0.78168000  1
  C  C90  1  0.87355000  0.29449000  0.56028000  1
  C  C91  1  0.12990000  0.53703000  0.92984000  1
  C  C92  1  0.76452000  0.40868000  0.67495000  1
  C  C93  1  0.22620000  0.59494000  0.90491000  1
  C  C94  1  0.85881000  0.35707000  0.69692000  1
  C  C95  1  0.72018000  0.84718000  0.46165000  1
  C  C96  1  0.91785000  0.22827000  0.49694000  1
  C  C97  1  0.08514000  0.19909000  0.13935000  1
  C  C98  1  0.10480000  0.13397000  0.28162000  1
  C  C99  1  0.12648000  0.20544000  0.06029000  1
  C  C100  1  0.87015000  0.96319000  0.42990000  1
  C  C101  1  0.23565000  0.09131000  0.17492000  1
  C  C102  1  0.77387000  0.90522000  0.40501000  1
  C  C103  1  0.14140000  0.14293000  0.19688000  1
  O  O104  1  0.52216000  0.29367000  0.50001000  1
  O  O105  1  0.35581000  0.30539000  0.44385000  1
  O  O106  1  0.65353000  0.42528000  0.33001000  1
  O  O107  1  0.42730000  0.49484000  0.37739000  1
  O  O108  1  0.61126000  0.47168000  0.49230000  1
  O  O109  1  0.52441000  0.31816000  0.31276000  1
  O  O110  1  0.47787000  0.20601000  0.00022000  1
  O  O111  1  0.64402000  0.19462000  0.94377000  1
  O  O112  1  0.34682000  0.07450000  0.83000000  1
  O  O113  1  0.57270000  0.00502000  0.87732000  1
  O  O114  1  0.38890000  0.02841000  0.99228000  1
  O  O115  1  0.47518000  0.18231000  0.81294000  1
  O  O116  1  0.02255000  0.70571000  0.99984000  1
  O  O117  1  0.85606000  0.69478000  0.05588000  1
  O  O118  1  0.15420000  0.57514000  0.17008000  1
  O  O119  1  0.92738000  0.50534000  0.12294000  1
  O  O120  1  0.11166000  0.52788000  0.00745000  1
  O  O121  1  0.02383000  0.68164000  0.18727000  1
  O  O122  1  0.97753000  0.79460000  0.49981000  1
  O  O123  1  0.14401000  0.80526000  0.55585000  1
  O  O124  1  0.84605000  0.92469000  0.67003000  1
  O  O125  1  0.07265000  0.99473000  0.62290000  1
  O  O126  1  0.88845000  0.97242000  0.50749000  1
  O  O127  1  0.97656000  0.81837000  0.68722000  1
  O  O128  1  0.47790000  0.70598000  0.49981000  1
  O  O129  1  0.64407000  0.69459000  0.55625000  1
  O  O130  1  0.34671000  0.57455000  0.67002000  1
  O  O131  1  0.57270000  0.50497000  0.62264000  1
  O  O132  1  0.38887000  0.52837000  0.50772000  1
  O  O133  1  0.47546000  0.68205000  0.68707000  1
  O  O134  1  0.52214000  0.79438000  0.99956000  1
  O  O135  1  0.35619000  0.80539000  0.05633000  1
  O  O136  1  0.65272000  0.92572000  0.17006000  1
  O  O137  1  0.42729000  0.99506000  0.12266000  1
  O  O138  1  0.61113000  0.97161000  0.00771000  1
  O  O139  1  0.52496000  0.81745000  0.18701000  1
  O  O140  1  0.97748000  0.29470000  0.00026000  1
  O  O141  1  0.14396000  0.30525000  0.94419000  1
  O  O142  1  0.84613000  0.42474000  0.82997000  1
  O  O143  1  0.07274000  0.49473000  0.87713000  1
  O  O144  1  0.88841000  0.47279000  0.99253000  1
  O  O145  1  0.97656000  0.31831000  0.81285000  1
  O  O146  1  0.02255000  0.20539000  0.50019000  1
  O  O147  1  0.85607000  0.19471000  0.44413000  1
  O  O148  1  0.15412000  0.07523000  0.32992000  1
  O  O149  1  0.92739000  0.00524000  0.37712000  1
  O  O150  1  0.11168000  0.02765000  0.49256000  1
  O  O151  1  0.02356000  0.18152000  0.31272000  1
