# generated using pymatgen
data_H36C43(N2O)4
_symmetry_space_group_name_H-M   'P 1'
_cell_length_a   29.16390000
_cell_length_b   43.68600000
_cell_length_c   43.68600000
_cell_angle_alpha   90.00000000
_cell_angle_beta   90.00000000
_cell_angle_gamma   90.00000000
_symmetry_Int_Tables_number   1
_chemical_formula_structural   H36C43(N2O)4
_chemical_formula_sum   'H288 C344 N64 O32'
_cell_volume   55658.32895908
_cell_formula_units_Z   8
loop_
 _symmetry_equiv_pos_site_id
 _symmetry_equiv_pos_as_xyz
  1  'x, y, z'
loop_
 _atom_site_type_symbol
 _atom_site_label
 _atom_site_symmetry_multiplicity
 _atom_site_fract_x
 _atom_site_fract_y
 _atom_site_fract_z
 _atom_site_occupancy
  H  25  1  0.25588600  0.17663900  0.05863700  1
  H  26  1  0.27188300  0.14307300  0.10130800  1
  H  27  1  0.27171500  0.10993300  0.14928000  1
  H  28  1  0.25551700  0.07741000  0.19275500  1
  H  29  1  0.11368400  0.08338800  0.17432000  1
  H  30  1  0.11371200  0.16765300  0.07478200  1
  H  31  1  0.13376700  0.16730800  0.17407500  1
  H  32  1  0.99176000  0.17330900  0.19187400  1
  H  33  1  0.97600400  0.14052500  0.14853600  1
  H  34  1  0.13476900  0.08217600  0.07526100  1
  H  35  1  0.97631600  0.10688400  0.10091100  1
  H  36  1  0.99274100  0.07278800  0.05873600  1
  H  39  1  0.14956200  0.06981200  0.22696500  1
  H  41  1  0.10274400  0.06180100  0.02633500  1
  H  43  1  0.09700000  0.18103800  0.22658900  1
  H  45  1  0.14658100  0.18684500  0.02543300  1
  H  70  1  0.75363000  0.57767500  0.19423300  1
  H  71  1  0.76941700  0.60938100  0.15008800  1
  H  72  1  0.76908100  0.64068600  0.10092400  1
  H  73  1  0.75274900  0.67209900  0.05666600  1
  H  74  1  0.61087500  0.66592800  0.07501900  1
  H  75  1  0.61144100  0.58494800  0.17740200  1
  H  76  1  0.63114300  0.58125300  0.07845700  1
  H  77  1  0.48891600  0.57294800  0.06221700  1
  H  78  1  0.47329700  0.60804700  0.10371600  1
  H  79  1  0.63236400  0.66989700  0.17393300  1
  H  80  1  0.47386700  0.64387000  0.14983300  1
  H  81  1  0.49048600  0.67905100  0.19106600  1
  H  84  1  0.64636800  0.67940600  0.02243500  1
  H  86  1  0.60100700  0.69096100  0.22253900  1
  H  88  1  0.59813000  0.56103800  0.02947700  1
  H  90  1  0.64777300  0.57039100  0.22940300  1
  H  115  1  0.49329500  0.07358700  0.55888200  1
  H  116  1  0.47825600  0.10693500  0.60189800  1
  H  117  1  0.47939100  0.14006600  0.64992000  1
  H  118  1  0.49653800  0.17240600  0.69336900  1
  H  119  1  0.63816600  0.16476300  0.67477700  1
  H  120  1  0.63574500  0.08113200  0.57467900  1
  H  121  1  0.61626500  0.08012200  0.67333100  1
  H  122  1  0.75833800  0.07129300  0.68989400  1
  H  123  1  0.77450200  0.10532200  0.64760600  1
  H  124  1  0.61642600  0.16711700  0.57632500  1
  H  125  1  0.77454300  0.14040300  0.60094400  1
  H  126  1  0.75850300  0.17530600  0.55934400  1
  H  129  1  0.60366700  0.17967500  0.72703000  1
  H  131  1  0.64878800  0.18767400  0.52735000  1
  H  133  1  0.64849700  0.06056900  0.72250400  1
  H  135  1  0.60135600  0.06305700  0.52480000  1
  H  160  1  0.99162600  0.67483700  0.69080500  1
  H  161  1  0.97589500  0.63988700  0.64919500  1
  H  162  1  0.97627200  0.60493100  0.60239900  1
  H  163  1  0.99276500  0.57105500  0.56005400  1
  H  164  1  0.13472300  0.58029400  0.57679200  1
  H  165  1  0.13375900  0.66723500  0.67381800  1
  H  166  1  0.11199800  0.66464800  0.57527400  1
  H  167  1  0.25353400  0.67275200  0.55657700  1
  H  168  1  0.27100200  0.64059700  0.60010100  1
  H  169  1  0.11529500  0.58121000  0.67557600  1
  H  170  1  0.27249900  0.60766700  0.64821000  1
  H  171  1  0.25784100  0.57429200  0.69126800  1
  H  174  1  0.10298300  0.56086900  0.52763200  1
  H  176  1  0.15024800  0.56331800  0.72557900  1
  H  178  1  0.14620300  0.67974000  0.52304000  1
  H  180  1  0.10063500  0.68690500  0.72329000  1
  H  205  1  0.24018900  0.82143800  0.44035400  1
  H  206  1  0.22390700  0.85682700  0.39922700  1
  H  207  1  0.22377000  0.89274900  0.35315500  1
  H  208  1  0.23976200  0.92765700  0.31156500  1
  H  209  1  0.38182800  0.91934100  0.32835900  1
  H  210  1  0.38222200  0.83071800  0.42381800  1
  H  211  1  0.36174900  0.91578200  0.42743900  1
  H  212  1  0.50389700  0.92249300  0.44463000  1
  H  213  1  0.51965600  0.89082600  0.40045100  1
  H  214  1  0.36109000  0.83489700  0.32495600  1
  H  215  1  0.51934100  0.85962800  0.35122300  1
  H  216  1  0.50299500  0.82827100  0.30692000  1
  H  219  1  0.34928800  0.93920600  0.27918600  1
  H  221  1  0.39674400  0.82123900  0.27245400  1
  H  223  1  0.39811200  0.92984600  0.47964400  1
  H  225  1  0.35073800  0.80901500  0.47197100  1
  H  250  1  0.74417000  0.92284300  0.80762600  1
  H  251  1  0.72715900  0.88968400  0.85047500  1
  H  252  1  0.72617800  0.85554300  0.89783300  1
  H  253  1  0.74153700  0.82102100  0.93985100  1
  H  254  1  0.88393500  0.83009500  0.92465400  1
  H  255  1  0.88565600  0.91630800  0.82695200  1
  H  256  1  0.86515500  0.83269500  0.82527400  1
  H  257  1  0.00741700  0.82654500  0.80841800  1
  H  258  1  0.02269700  0.85827800  0.85262200  1
  H  259  1  0.86320700  0.91520700  0.92640300  1
  H  260  1  0.02182600  0.89015800  0.90141100  1
  H  261  1  0.00493800  0.92260800  0.94482100  1
  H  264  1  0.85092200  0.80959400  0.97314500  1
  H  266  1  0.89807900  0.93039500  0.97859300  1
  H  268  1  0.90265000  0.81960000  0.77281800  1
  H  270  1  0.85112100  0.93072200  0.77446200  1
  H  295  1  0.00777600  0.32523000  0.31004700  1
  H  296  1  0.02257400  0.35901700  0.35275600  1
  H  297  1  0.02110600  0.39206200  0.40080600  1
  H  298  1  0.00367400  0.42421400  0.44433700  1
  H  299  1  0.86227100  0.41735100  0.42476300  1
  H  300  1  0.86521300  0.33323100  0.32516200  1
  H  301  1  0.88473800  0.41902700  0.32579300  1
  H  302  1  0.74276100  0.42750600  0.30857300  1
  H  303  1  0.72637400  0.39322000  0.35060200  1
  H  304  1  0.88392800  0.33373200  0.42442900  1
  H  305  1  0.72603400  0.35941300  0.39812100  1
  H  306  1  0.74181800  0.32667000  0.44149200  1
  H  309  1  0.89607700  0.43128000  0.47732000  1
  H  311  1  0.84711200  0.31938400  0.47660200  1
  H  313  1  0.85284500  0.43915000  0.27666300  1
  H  315  1  0.89979000  0.31422900  0.27578000  1
  H  340  1  0.50729800  0.42266900  0.94186300  1
  H  341  1  0.52377800  0.38943600  0.89898400  1
  H  342  1  0.52420600  0.35531500  0.85168100  1
  H  343  1  0.50844000  0.32100700  0.80956200  1
  H  344  1  0.36621000  0.32983100  0.82556500  1
  H  345  1  0.36551000  0.41583400  0.92355100  1
  H  346  1  0.38608700  0.33219600  0.92505500  1
  H  347  1  0.24405500  0.32613000  0.94279200  1
  H  348  1  0.22823800  0.35788400  0.89869600  1
  H  349  1  0.38676200  0.41485900  0.82406300  1
  H  350  1  0.22847500  0.38969500  0.84985200  1
  H  351  1  0.24481500  0.42225200  0.80642800  1
  H  354  1  0.39868100  0.30952500  0.77684700  1
  H  356  1  0.35103000  0.43004700  0.77201500  1
  H  358  1  0.34965100  0.31916700  0.97761100  1
  H  360  1  0.40121500  0.43042000  0.97594500  1
  H  368  1  0.04151800  0.96288400  0.02989500  1
  H  373  1  0.86424000  0.07239000  0.96583700  1
  H  374  1  0.85624000  0.03709300  0.98559300  1
  H  375  1  0.83425400  0.04858600  0.91800200  1
  H  376  1  0.79369700  0.04592100  0.94819700  1
  H  377  1  0.82643900  0.01334200  0.93761500  1
  H  379  1  0.06050500  0.01548400  0.06414900  1
  H  380  1  0.09989800  0.01107300  0.03385300  1
  H  382  1  0.92958100  0.98055300  0.94019700  1
  H  383  1  0.89051200  0.98126300  0.97119300  1
  H  391  1  0.53851500  0.78930400  0.21977100  1
  H  396  1  0.36219100  0.67872800  0.28207200  1
  H  397  1  0.35435600  0.71435100  0.26286900  1
  H  398  1  0.33120500  0.70162400  0.33006500  1
  H  399  1  0.29118100  0.70471100  0.29960000  1
  H  400  1  0.32353800  0.73718400  0.31100600  1
  H  402  1  0.55721600  0.73669700  0.18483800  1
  H  403  1  0.59699100  0.74157700  0.21484200  1
  H  405  1  0.42776200  0.77007300  0.30985700  1
  H  406  1  0.38829200  0.77024100  0.27907600  1
  H  414  1  0.71020000  0.28621300  0.53150900  1
  H  419  1  0.88257400  0.17621900  0.47042100  1
  H  420  1  0.88883200  0.21188200  0.48982800  1
  H  421  1  0.92058000  0.19839300  0.42436300  1
  H  422  1  0.95642500  0.20114400  0.45709600  1
  H  423  1  0.92673500  0.23396500  0.44364400  1
  H  425  1  0.69306600  0.23315700  0.56572400  1
  H  426  1  0.65183700  0.23825500  0.53662800  1
  H  428  1  0.81591600  0.26829000  0.43850200  1
  H  429  1  0.85728900  0.26859400  0.46816200  1
  H  437  1  0.20780000  0.46331600  0.72131400  1
  H  442  1  0.38627500  0.57210800  0.78402500  1
  H  443  1  0.39368500  0.53673800  0.76428900  1
  H  444  1  0.41784200  0.54850300  0.83150300  1
  H  445  1  0.45741800  0.54576600  0.80074200  1
  H  446  1  0.42509400  0.51319500  0.81190800  1
  H  448  1  0.18964000  0.51581800  0.68705800  1
  H  449  1  0.15005600  0.51230600  0.71739700  1
  H  451  1  0.32037200  0.48025300  0.81079400  1
  H  452  1  0.35937200  0.48084100  0.77975400  1
  H  460  1  0.46135800  0.21111100  0.77985900  1
  H  465  1  0.63568300  0.32246500  0.71870700  1
  H  466  1  0.64326800  0.28689800  0.73806100  1
  H  467  1  0.66981100  0.29995200  0.67149000  1
  H  468  1  0.70819700  0.29723700  0.70291500  1
  H  469  1  0.67724800  0.26445100  0.69070000  1
  H  471  1  0.44209400  0.26343500  0.81448600  1
  H  472  1  0.40228200  0.25881500  0.78446000  1
  H  474  1  0.57151500  0.23032100  0.68941100  1
  H  475  1  0.61108100  0.23065500  0.72012800  1
  H  483  1  0.28654500  0.71124000  0.46853700  1
  H  488  1  0.11487800  0.82275400  0.53130100  1
  H  489  1  0.10708200  0.78724400  0.51187400  1
  H  490  1  0.08024900  0.80031200  0.57839400  1
  H  491  1  0.04203000  0.79780100  0.54686000  1
  H  492  1  0.07260100  0.76487000  0.55911100  1
  H  494  1  0.30523300  0.76403700  0.43412800  1
  H  495  1  0.34587600  0.75855300  0.46350400  1
  H  497  1  0.17909400  0.73039000  0.56049600  1
  H  498  1  0.13868700  0.73071500  0.53027100  1
  H  506  1  0.79101900  0.53791200  0.28039400  1
  H  511  1  0.61340900  0.42808300  0.21851700  1
  H  512  1  0.60593100  0.46356500  0.23803500  1
  H  513  1  0.58156100  0.45132300  0.17094300  1
  H  514  1  0.54209500  0.45420300  0.20175200  1
  H  515  1  0.57425800  0.48674900  0.19031500  1
  H  517  1  0.81063200  0.48529300  0.31458200  1
  H  518  1  0.84956700  0.48986700  0.28404500  1
  H  520  1  0.67835900  0.51977300  0.19115800  1
  H  521  1  0.63952300  0.51947300  0.22228900  1
  H  529  1  0.54387400  0.96299800  0.52825200  1
  H  534  1  0.36104600  0.07151900  0.46733300  1
  H  535  1  0.35365300  0.03596000  0.48671500  1
  H  536  1  0.33248100  0.04780200  0.41907300  1
  H  537  1  0.29150900  0.04440000  0.44893800  1
  H  538  1  0.32526800  0.01229800  0.43831900  1
  H  540  1  0.56295300  0.01529300  0.56302500  1
  H  541  1  0.60116100  0.01201800  0.53189400  1
  H  543  1  0.42709600  0.98062600  0.44135500  1
  H  544  1  0.38959800  0.98074300  0.47320700  1
  H  552  1  0.04172000  0.78611100  0.71976200  1
  H  557  1  0.86363600  0.67733400  0.78141300  1
  H  558  1  0.85699400  0.71311200  0.76229700  1
  H  559  1  0.83163100  0.70022900  0.82910600  1
  H  560  1  0.79256900  0.70376100  0.79813500  1
  H  561  1  0.82511900  0.73593700  0.81013000  1
  H  563  1  0.05842200  0.73319400  0.68471200  1
  H  564  1  0.09896400  0.73766300  0.71435300  1
  H  566  1  0.93211800  0.76798600  0.81060100  1
  H  567  1  0.89188000  0.76878000  0.78025500  1
  H  575  1  0.20545300  0.28637600  0.02756000  1
  H  580  1  0.38816500  0.17743000  0.96852600  1
  H  581  1  0.39484100  0.21337300  0.98731300  1
  H  582  1  0.41762200  0.20035700  0.92011900  1
  H  583  1  0.45789100  0.20447100  0.95031900  1
  H  584  1  0.42411300  0.23623800  0.93876800  1
  H  586  1  0.18662600  0.23426500  0.06298500  1
  H  587  1  0.14822100  0.23776700  0.03200400  1
  H  589  1  0.32097700  0.26753900  0.94019400  1
  H  590  1  0.35901900  0.26821400  0.97176500  1
  H  598  1  0.95790000  0.21465600  0.27974700  1
  H  603  1  0.13420600  0.32377400  0.21999700  1
  H  604  1  0.14011800  0.28806000  0.23935600  1
  H  605  1  0.17097300  0.30129100  0.17365100  1
  H  606  1  0.20733100  0.29822400  0.20610200  1
  H  607  1  0.17678100  0.26566200  0.19287600  1
  H  609  1  0.94095400  0.26731700  0.31430000  1
  H  610  1  0.90034600  0.26336600  0.28462500  1
  H  612  1  0.06690200  0.23220500  0.18840900  1
  H  613  1  0.10728100  0.23180000  0.21867200  1
  H  621  1  0.78897900  0.71109800  0.97013300  1
  H  626  1  0.61257200  0.82195000  0.03128600  1
  H  627  1  0.60495000  0.78624100  0.01220800  1
  H  628  1  0.58062200  0.79935700  0.07914300  1
  H  629  1  0.54114500  0.79617800  0.04836900  1
  H  630  1  0.57316700  0.76371200  0.06020700  1
  H  632  1  0.80794400  0.76351500  0.93519100  1
  H  633  1  0.84759600  0.75889800  0.96531700  1
  H  635  1  0.67744000  0.73052300  0.05978500  1
  H  636  1  0.63829900  0.73042500  0.02882100  1
  H  644  1  0.53731100  0.46242500  0.03221000  1
  H  649  1  0.36703600  0.57329400  0.96821300  1
  H  650  1  0.35941000  0.53756600  0.98727100  1
  H  651  1  0.33268000  0.55122700  0.92085200  1
  H  652  1  0.29438700  0.54831800  0.95231000  1
  H  653  1  0.32516900  0.51558200  0.93977800  1
  H  655  1  0.55313900  0.51507400  0.06733200  1
  H  656  1  0.59558900  0.51033800  0.03894400  1
  H  658  1  0.43437300  0.48123000  0.93812700  1
  H  659  1  0.39206000  0.48124800  0.96720300  1
  H  667  1  0.70992600  0.96176200  0.72094100  1
  H  672  1  0.88411000  0.07331200  0.78238400  1
  H  673  1  0.89190700  0.03750600  0.76351500  1
  H  674  1  0.91675700  0.05118900  0.83025300  1
  H  675  1  0.95596300  0.04798800  0.79932800  1
  H  676  1  0.92440300  0.01545400  0.81152200  1
  H  678  1  0.69159800  0.01365600  0.68553400  1
  H  679  1  0.65125000  0.00969200  0.71534600  1
  H  681  1  0.81865600  0.98157400  0.81189700  1
  H  682  1  0.85889700  0.98170900  0.78155300  1
  H  690  1  0.28856400  0.03801700  0.28135800  1
  H  695  1  0.11463000  0.92710800  0.21976400  1
  H  696  1  0.10726100  0.96297100  0.23860800  1
  H  697  1  0.08119900  0.94915400  0.17210400  1
  H  698  1  0.04254700  0.95246800  0.20332600  1
  H  699  1  0.07396500  0.98494100  0.19080800  1
  H  701  1  0.30570400  0.98568700  0.31676500  1
  H  702  1  0.34676800  0.99001800  0.28743100  1
  H  704  1  0.18137000  0.01857900  0.18951300  1
  H  705  1  0.14047900  0.01887800  0.21947200  1
  H  713  1  0.04154400  0.46193100  0.52837800  1
  H  718  1  0.86268600  0.57343800  0.46876800  1
  H  719  1  0.85479000  0.53755500  0.48745600  1
  H  720  1  0.83311200  0.55096600  0.42017800  1
  H  721  1  0.79240800  0.54729900  0.45017700  1
  H  722  1  0.82542100  0.51513800  0.43872900  1
  H  724  1  0.06136700  0.51346200  0.56418300  1
  H  725  1  0.10000500  0.50994600  0.53333600  1
  H  727  1  0.92724200  0.48249100  0.44058300  1
  H  728  1  0.88915400  0.48237000  0.47212400  1
  C  1  1  0.09173600  0.10681900  0.10542500  1
  C  2  1  0.04615700  0.11404800  0.11247700  1
  C  3  1  0.04588300  0.13540400  0.13601600  1
  C  4  1  0.09127400  0.14319800  0.14305500  1
  C  5  1  0.10060600  0.16283000  0.16794800  1
  C  6  1  0.06391900  0.17381800  0.18607600  1
  C  7  1  0.01832200  0.16592500  0.17848000  1
  C  8  1  0.00894700  0.14702000  0.15316200  1
  C  9  1  0.00948300  0.10111900  0.09603800  1
  C  10  1  0.01924900  0.08134800  0.07145200  1
  C  11  1  0.06504200  0.07393900  0.06378600  1
  C  12  1  0.10147800  0.08653900  0.08114300  1
  C  13  1  0.15643200  0.14343400  0.10548300  1
  C  14  1  0.20193600  0.13623300  0.11278300  1
  C  15  1  0.20194900  0.11507000  0.13649500  1
  C  16  1  0.15648900  0.10722100  0.14328400  1
  C  17  1  0.23871700  0.10352000  0.15384600  1
  C  18  1  0.22908700  0.08475200  0.17922300  1
  C  19  1  0.18340400  0.07695200  0.18668500  1
  C  20  1  0.14690900  0.08782500  0.16831900  1
  C  21  1  0.14693800  0.16341900  0.08091700  1
  C  22  1  0.18355100  0.17571500  0.06351600  1
  C  23  1  0.22926200  0.16834200  0.07142000  1
  C  24  1  0.23878100  0.14890000  0.09630900  1
  C  37  1  0.12398900  0.12517500  0.12425400  1
  C  46  1  0.58918700  0.64455900  0.14446300  1
  C  47  1  0.54360000  0.63690500  0.13788700  1
  C  48  1  0.54329800  0.61464600  0.11518900  1
  C  49  1  0.58869000  0.60677600  0.10827300  1
  C  50  1  0.59796500  0.58592700  0.08439700  1
  C  51  1  0.56122500  0.57341500  0.06730300  1
  C  52  1  0.51560700  0.58139500  0.07484800  1
  C  53  1  0.50631400  0.60175200  0.09903400  1
  C  54  1  0.50701400  0.65005300  0.15423900  1
  C  55  1  0.51690300  0.67044600  0.17829600  1
  C  56  1  0.56272000  0.67822000  0.18553400  1
  C  57  1  0.59903800  0.66537800  0.16826100  1
  C  58  1  0.65397300  0.60810400  0.14570400  1
  C  59  1  0.69942300  0.61527100  0.13819300  1
  C  60  1  0.69930300  0.63547200  0.11366100  1
  C  61  1  0.65379100  0.64288400  0.10656100  1
  C  62  1  0.73602300  0.64675000  0.09608800  1
  C  63  1  0.72631600  0.66485400  0.07024600  1
  C  64  1  0.68059100  0.67232100  0.06254500  1
  C  65  1  0.64412800  0.66166300  0.08107700  1
  C  66  1  0.64460800  0.58910900  0.17107900  1
  C  67  1  0.68133900  0.57802500  0.18913200  1
  C  68  1  0.72698800  0.58529600  0.18104800  1
  C  69  1  0.73636600  0.60362400  0.15531100  1
  C  82  1  0.62141500  0.62557200  0.12626800  1
  C  91  1  0.65918500  0.14160800  0.60595000  1
  C  92  1  0.70465900  0.13382400  0.61273700  1
  C  93  1  0.70463100  0.11199500  0.63584700  1
  C  94  1  0.65911300  0.10463700  0.64295500  1
  C  95  1  0.64952200  0.08439400  0.66729000  1
  C  96  1  0.68604300  0.07207000  0.68473500  1
  C  97  1  0.73178100  0.07958300  0.67703200  1
  C  98  1  0.74139900  0.09929400  0.65237000  1
  C  99  1  0.74146500  0.14657200  0.59629000  1
  C  100  1  0.73192200  0.16682300  0.57206000  1
  C  101  1  0.68623500  0.17480500  0.56471200  1
  C  102  1  0.64966600  0.16234400  0.58202400  1
  C  103  1  0.59372400  0.10562400  0.60561300  1
  C  104  1  0.54841400  0.11311200  0.61316900  1
  C  105  1  0.54899000  0.13400100  0.63712900  1
  C  106  1  0.59465600  0.14123400  0.64396200  1
  C  107  1  0.51258600  0.14595300  0.65455100  1
  C  108  1  0.52275600  0.16465700  0.67989100  1
  C  109  1  0.56865200  0.17197500  0.68728900  1
  C  110  1  0.60480600  0.16058600  0.66892400  1
  C  111  1  0.60265300  0.08570300  0.58089400  1
  C  112  1  0.56566500  0.07388300  0.56352400  1
  C  113  1  0.52016400  0.08161600  0.57160000  1
  C  114  1  0.51121400  0.10096400  0.59666100  1
  C  127  1  0.62666500  0.12327900  0.62457600  1
  C  136  1  0.15702900  0.60585400  0.64457100  1
  C  137  1  0.20225800  0.61354500  0.63699400  1
  C  138  1  0.20147200  0.63435000  0.61297000  1
  C  139  1  0.15573200  0.64136600  0.60613500  1
  C  140  1  0.14539700  0.66061000  0.58112300  1
  C  141  1  0.18143600  0.67208800  0.56271600  1
  C  142  1  0.22740300  0.66497300  0.57011400  1
  C  143  1  0.23776400  0.64641600  0.59552300  1
  C  144  1  0.23960600  0.60155500  0.65347100  1
  C  145  1  0.23087900  0.58222600  0.67857500  1
  C  146  1  0.18546100  0.57431700  0.68668700  1
  C  147  1  0.14832400  0.58594800  0.66933900  1
  C  148  1  0.09123900  0.64160000  0.64414300  1
  C  149  1  0.04583700  0.63358800  0.63739900  1
  C  150  1  0.04605800  0.61174300  0.61429600  1
  C  151  1  0.09163700  0.60448000  0.60727100  1
  C  152  1  0.00942000  0.59897000  0.59769300  1
  C  153  1  0.01923500  0.57934600  0.57299200  1
  C  154  1  0.06504100  0.57199100  0.56531200  1
  C  155  1  0.10141900  0.58439100  0.58283900  1
  C  156  1  0.10056600  0.66234800  0.66809600  1
  C  157  1  0.06388800  0.67466500  0.68539600  1
  C  158  1  0.01827200  0.66652100  0.67803900  1
  C  159  1  0.00890700  0.64626700  0.65377700  1
  C  172  1  0.12390700  0.62333100  0.62557800  1
  C  181  1  0.40401300  0.85781300  0.35659700  1
  C  182  1  0.44954200  0.86505800  0.36381500  1
  C  183  1  0.44968900  0.88526100  0.38834900  1
  C  184  1  0.40425300  0.89257000  0.39576600  1
  C  185  1  0.39491600  0.91147400  0.42121300  1
  C  186  1  0.43163600  0.92242200  0.43935600  1
  C  187  1  0.47726800  0.91503100  0.43134700  1
  C  188  1  0.48663200  0.89673700  0.40558100  1
  C  189  1  0.48625500  0.85373600  0.34626200  1
  C  190  1  0.47655100  0.83560500  0.32043700  1
  C  191  1  0.43081300  0.82828000  0.31264300  1
  C  192  1  0.39433300  0.83907000  0.33108800  1
  C  193  1  0.33927600  0.85627500  0.39438100  1
  C  194  1  0.29375400  0.86398200  0.38768300  1
  C  195  1  0.29365800  0.88622700  0.36496600  1
  C  196  1  0.33911500  0.89410600  0.35823900  1
  C  197  1  0.25682400  0.89906000  0.34861100  1
  C  198  1  0.26633600  0.91932500  0.32438600  1
  C  199  1  0.31202300  0.92724100  0.31696200  1
  C  200  1  0.34859900  0.91482500  0.33428800  1
  C  201  1  0.34893800  0.83532500  0.41809500  1
  C  202  1  0.31248200  0.82238300  0.43516300  1
  C  203  1  0.26672600  0.83018700  0.42778000  1
  C  204  1  0.25703600  0.85073500  0.40382100  1
  C  217  1  0.37166800  0.87520300  0.37626000  1
  C  226  1  0.90652100  0.89144600  0.89563800  1
  C  227  1  0.95214600  0.88412400  0.88878900  1
  C  228  1  0.95263700  0.86345800  0.86465300  1
  C  229  1  0.90730300  0.85602500  0.85709000  1
  C  230  1  0.89824100  0.83689800  0.83175900  1
  C  231  1  0.93514900  0.82624000  0.81363000  1
  C  232  1  0.98068100  0.83379200  0.82173300  1
  C  233  1  0.98977100  0.85210700  0.84752200  1
  C  234  1  0.98866100  0.89607500  0.90610300  1
  C  235  1  0.97863400  0.91481800  0.93143000  1
  C  236  1  0.93279300  0.92225000  0.93885800  1
  C  237  1  0.89652900  0.91089900  0.92055200  1
  C  238  1  0.84227700  0.89212200  0.85733000  1
  C  239  1  0.79668300  0.88427300  0.86371000  1
  C  240  1  0.79628900  0.86257000  0.88693500  1
  C  241  1  0.84166400  0.85509400  0.89430600  1
  C  242  1  0.75920600  0.84960500  0.90292800  1
  C  243  1  0.76834700  0.82956600  0.92740800  1
  C  244  1  0.81393800  0.82195500  0.93541500  1
  C  245  1  0.85079100  0.83457500  0.91848700  1
  C  246  1  0.85232100  0.91199500  0.83275700  1
  C  247  1  0.81617300  0.92315700  0.81425900  1
  C  248  1  0.77034300  0.91533100  0.82128400  1
  C  249  1  0.76023800  0.89616900  0.84628800  1
  C  262  1  0.87443700  0.87367900  0.87612800  1
  C  271  1  0.84140000  0.35757300  0.39323600  1
  C  272  1  0.79597400  0.36509700  0.38600000  1
  C  273  1  0.79619000  0.38648600  0.36249200  1
  C  274  1  0.84173600  0.39402400  0.35567700  1
  C  275  1  0.85144600  0.41440300  0.33147500  1
  C  276  1  0.81501800  0.42682100  0.31398200  1
  C  277  1  0.76925600  0.41909300  0.32140100  1
  C  278  1  0.75951100  0.39918300  0.34587800  1
  C  279  1  0.75903400  0.35321000  0.40295600  1
  C  280  1  0.76841200  0.33427200  0.42824700  1
  C  281  1  0.81405100  0.32669300  0.43605500  1
  C  282  1  0.85076700  0.33790500  0.41809500  1
  C  283  1  0.90705600  0.35790200  0.35606400  1
  C  284  1  0.95233500  0.36545100  0.36366100  1
  C  285  1  0.95165600  0.38653100  0.38744500  1
  C  286  1  0.90597300  0.39402800  0.39393400  1
  C  287  1  0.98794000  0.39824500  0.40513900  1
  C  288  1  0.97758900  0.41681400  0.43054300  1
  C  289  1  0.93166200  0.42425300  0.43771300  1
  C  290  1  0.89567600  0.41324700  0.41897700  1
  C  291  1  0.89826500  0.33778400  0.33148900  1
  C  292  1  0.93536200  0.32573400  0.31439200  1
  C  293  1  0.98082500  0.33344800  0.32257700  1
  C  294  1  0.98964100  0.35299900  0.34749400  1
  C  307  1  0.87405000  0.37587600  0.37466000  1
  C  316  1  0.34384600  0.39100900  0.85500900  1
  C  317  1  0.29830400  0.38369500  0.86211700  1
  C  318  1  0.29812500  0.36293300  0.88617700  1
  C  319  1  0.34355100  0.35539300  0.89339700  1
  C  320  1  0.35290900  0.33640300  0.91878200  1
  C  321  1  0.31624500  0.32572900  0.93712700  1
  C  322  1  0.27062000  0.33333333  0.92929200  1
  C  323  1  0.26121300  0.35163200  0.90355600  1
  C  324  1  0.26157700  0.39564400  0.84500400  1
  C  325  1  0.27128100  0.41445100  0.81966800  1
  C  326  1  0.31702200  0.42192300  0.81202300  1
  C  327  1  0.35351900  0.41053700  0.83009500  1
  C  328  1  0.40852900  0.39158800  0.89296900  1
  C  329  1  0.45404800  0.38376200  0.88632800  1
  C  330  1  0.45420500  0.36218700  0.86299600  1
  C  331  1  0.40875900  0.35470200  0.85584000  1
  C  332  1  0.49113800  0.34936400  0.84673200  1
  C  333  1  0.48175600  0.32945100  0.82219500  1
  C  334  1  0.43609400  0.32182400  0.81439400  1
  C  335  1  0.39940800  0.33426500  0.83162200  1
  C  336  1  0.39877400  0.41142700  0.91762000  1
  C  337  1  0.43518200  0.42276700  0.93577200  1
  C  338  1  0.48093000  0.41499600  0.92845800  1
  C  339  1  0.49071600  0.39577900  0.90345000  1
  C  352  1  0.37616700  0.37317900  0.87427900  1
  C  361  1  0.95991300  0.98770900  0.98333000  1
  C  363  1  0.02214400  0.97855000  0.01830500  1
  C  364  1  0.03051400  0.01013700  0.02077200  1
  C  366  1  0.96783300  0.01986700  0.98560900  1
  C  367  1  0.94296400  0.04319800  0.97141500  1
  C  371  1  0.86450700  0.04744200  0.96343300  1
  C  372  1  0.82723500  0.03818800  0.94023800  1
  C  378  1  0.06774400  0.02215500  0.04048400  1
  C  381  1  0.92418000  0.97312700  0.96384500  1
  C  384  1  0.45751800  0.76378800  0.26643800  1
  C  386  1  0.51930300  0.77347000  0.23125300  1
  C  387  1  0.52780300  0.74193200  0.22841200  1
  C  389  1  0.46546900  0.73167400  0.26368700  1
  C  390  1  0.44085300  0.70812700  0.27769800  1
  C  394  1  0.36227000  0.70363100  0.28490800  1
  C  395  1  0.32452700  0.71238900  0.30795700  1
  C  401  1  0.56495200  0.73019100  0.20847700  1
  C  404  1  0.42213100  0.77806000  0.28641700  1
  C  407  1  0.78886200  0.26164900  0.48262000  1
  C  409  1  0.72885600  0.27061800  0.51931800  1
  C  410  1  0.72045900  0.23902000  0.52169200  1
  C  412  1  0.78101700  0.22952000  0.48495900  1
  C  413  1  0.80457000  0.20635600  0.46972800  1
  C  417  1  0.88362300  0.20110100  0.46746100  1
  C  418  1  0.92457800  0.20920900  0.44673400  1
  C  424  1  0.68425300  0.22692600  0.54217600  1
  C  427  1  0.82289400  0.27618900  0.46181400  1
  C  430  1  0.28997900  0.48760300  0.76772300  1
  C  432  1  0.22740700  0.47884700  0.73290800  1
  C  433  1  0.21951900  0.51049100  0.73044100  1
  C  435  1  0.28242400  0.51979600  0.76551100  1
  C  436  1  0.30744400  0.54297100  0.77973800  1
  C  440  1  0.38612800  0.54716700  0.78652300  1
  C  441  1  0.42416100  0.53803100  0.80920700  1
  C  447  1  0.18259000  0.52280200  0.71065800  1
  C  450  1  0.32564000  0.47284500  0.78712500  1
  C  453  1  0.54183800  0.23673000  0.73286500  1
  C  455  1  0.48032000  0.22696600  0.76822400  1
  C  456  1  0.47148700  0.25848300  0.77089300  1
  C  458  1  0.53346800  0.26880500  0.73540600  1
  C  459  1  0.55752800  0.29236600  0.72111000  1
  C  463  1  0.63633100  0.29756900  0.71585000  1
  C  464  1  0.67551700  0.28922800  0.69373800  1
  C  470  1  0.43435200  0.27012300  0.79089700  1
  C  473  1  0.57733400  0.22255500  0.71290600  1
  C  476  1  0.20759700  0.73678600  0.51671300  1
  C  478  1  0.26802300  0.72707100  0.48051400  1
  C  479  1  0.27710600  0.75857300  0.47803000  1
  C  481  1  0.21617100  0.76884200  0.51430900  1
  C  482  1  0.19276700  0.79237800  0.52909900  1
  C  486  1  0.11397700  0.79785600  0.53411900  1
  C  487  1  0.07458100  0.78964300  0.55611200  1
  C  493  1  0.31383800  0.77024300  0.45771700  1
  C  496  1  0.17262800  0.72261700  0.53707900  1
  C  499  1  0.70900700  0.51295700  0.23422600  1
  C  501  1  0.77153600  0.52221300  0.26893100  1
  C  502  1  0.78002200  0.49063600  0.27138200  1
  C  504  1  0.71701300  0.48081600  0.23653600  1
  C  505  1  0.69214300  0.45744900  0.22250200  1
  C  509  1  0.61344300  0.45300600  0.21585700  1
  C  510  1  0.57529000  0.46193300  0.19317800  1
  C  516  1  0.81757600  0.47868500  0.29085800  1
  C  519  1  0.67318500  0.52744600  0.21475000  1
  C  522  1  0.45943100  0.98761700  0.48386500  1
  C  524  1  0.52358200  0.97861600  0.51731900  1
  C  525  1  0.53122500  0.01025200  0.52016000  1
  C  527  1  0.46666200  0.01982700  0.48647700  1
  C  528  1  0.44043100  0.04309900  0.47328500  1
  C  532  1  0.36200900  0.04660100  0.46471000  1
  C  533  1  0.32537000  0.03712600  0.44116200  1
  C  539  1  0.56893300  0.02245400  0.53934700  1
  C  542  1  0.42301300  0.97293300  0.46503300  1
  C  545  1  0.96069400  0.76148500  0.76689400  1
  C  547  1  0.02224700  0.77049200  0.73134000  1
  C  548  1  0.02995000  0.73886400  0.72848100  1
  C  550  1  0.96780900  0.72929800  0.76408500  1
  C  551  1  0.94291600  0.70601900  0.77829600  1
  C  555  1  0.86405800  0.70222100  0.78438000  1
  C  556  1  0.82578800  0.71115100  0.80697100  1
  C  562  1  0.06648000  0.72668400  0.70830300  1
  C  565  1  0.92612400  0.77611200  0.78724800  1
  C  568  1  0.28940100  0.26123000  0.98305900  1
  C  570  1  0.22566800  0.27062700  0.01675200  1
  C  571  1  0.21802800  0.23902900  0.01997400  1
  C  573  1  0.28230400  0.22905800  0.98617500  1
  C  574  1  0.30843300  0.20564600  0.97315200  1
  C  578  1  0.38706100  0.20229100  0.96543100  1
  C  579  1  0.42415100  0.21146900  0.94207600  1
  C  585  1  0.18034200  0.22709800  0.03934400  1
  C  588  1  0.32538000  0.27569500  0.96369400  1
  C  591  1  0.03848500  0.23897800  0.23214100  1
  C  593  1  0.97717700  0.23020000  0.26792100  1
  C  594  1  0.96937300  0.26184400  0.27052200  1
  C  596  1  0.03114400  0.27115800  0.23462500  1
  C  597  1  0.05562600  0.29426600  0.21994000  1
  C  601  1  0.13472400  0.29888500  0.21703100  1
  C  602  1  0.17515600  0.29043400  0.19598600  1
  C  608  1  0.93297900  0.27409000  0.29076800  1
  C  611  1  0.07305100  0.22430200  0.21182300  1
  C  614  1  0.70766600  0.73672600  0.01648900  1
  C  616  1  0.76972200  0.72695700  0.98154400  1
  C  617  1  0.77829800  0.75848800  0.97869900  1
  C  619  1  0.71574800  0.76882100  0.01375800  1
  C  620  1  0.69117600  0.79239200  0.02767800  1
  C  624  1  0.61250000  0.79706400  0.03425500  1
  C  625  1  0.57430600  0.78848900  0.05703900  1
  C  631  1  0.81553600  0.77017400  0.95880900  1
  C  634  1  0.67202600  0.72253400  0.03632200  1
  C  637  1  0.46013000  0.48769200  0.98261800  1
  C  639  1  0.51910400  0.47819200  0.01993500  1
  C  640  1  0.52752500  0.50974000  0.02278200  1
  C  642  1  0.46809200  0.51978200  0.98536000  1
  C  643  1  0.44510800  0.54322500  0.97016300  1
  C  647  1  0.36629500  0.54842100  0.96514300  1
  C  648  1  0.32700800  0.54032900  0.94301900  1
  C  654  1  0.56292500  0.52156800  0.04403000  1
  C  657  1  0.42652400  0.47340400  0.96133800  1
  C  660  1  0.78989400  0.98773600  0.76813900  1
  C  662  1  0.72881900  0.97770500  0.73250500  1
  C  663  1  0.72026000  0.00920900  0.72939200  1
  C  665  1  0.78176400  0.01979800  0.76517500  1
  C  666  1  0.80577700  0.04346000  0.77934400  1
  C  670  1  0.88446300  0.04844500  0.78552000  1
  C  671  1  0.92297000  0.04020200  0.80819300  1
  C  677  1  0.68355700  0.02071900  0.70896900  1
  C  680  1  0.82497900  0.97368800  0.78850000  1
  C  683  1  0.20916600  0.01243600  0.23351700  1
  C  685  1  0.26972700  0.02217000  0.26962200  1
  C  686  1  0.27804200  0.99062900  0.27268500  1
  C  688  1  0.21701000  0.98034500  0.23647000  1
  C  689  1  0.19309300  0.95679200  0.22207100  1
  C  693  1  0.11428400  0.95196900  0.21657200  1
  C  694  1  0.07540000  0.96020100  0.19418300  1
  C  700  1  0.31431500  0.97891900  0.29333400  1
  C  703  1  0.17466600  0.02662300  0.21280800  1
  C  706  1  0.95887400  0.48831900  0.48353700  1
  C  708  1  0.02191500  0.47797500  0.51752100  1
  C  709  1  0.03034600  0.50945900  0.52095900  1
  C  711  1  0.96686000  0.52038200  0.48679900  1
  C  712  1  0.94154100  0.54417700  0.47375400  1
  C  716  1  0.86312200  0.54857200  0.46563200  1
  C  717  1  0.82604200  0.53989900  0.44208000  1
  C  723  1  0.06803200  0.52083100  0.54065200  1
  C  726  1  0.92254800  0.47439300  0.46407600  1
  N  38  1  0.17558500  0.06063000  0.21404000  1
  N  40  1  0.07293700  0.05590800  0.03741100  1
  N  42  1  0.07140300  0.19032100  0.21336100  1
  N  44  1  0.17588900  0.19326400  0.03680500  1
  N  83  1  0.67275300  0.68850300  0.03508700  1
  N  85  1  0.57086000  0.69651200  0.21169600  1
  N  87  1  0.56865800  0.55524900  0.04099800  1
  N  89  1  0.67392900  0.56146600  0.21642400  1
  N  128  1  0.57702200  0.18853800  0.71444900  1
  N  130  1  0.67853400  0.19327500  0.53864700  1
  N  132  1  0.67819800  0.05449000  0.71140000  1
  N  134  1  0.57276600  0.05631100  0.53677400  1
  N  173  1  0.07316000  0.55464700  0.53850900  1
  N  175  1  0.17866300  0.55663400  0.71338500  1
  N  177  1  0.17293000  0.68859900  0.53554300  1
  N  179  1  0.07144900  0.69296400  0.71158600  1
  N  218  1  0.31976000  0.94518900  0.29054200  1
  N  220  1  0.42300600  0.81209100  0.28518300  1
  N  222  1  0.42418900  0.93891500  0.46668800  1
  N  224  1  0.32039100  0.80384600  0.46118900  1
  N  263  1  0.82123400  0.80388500  0.96183300  1
  N  265  1  0.92465300  0.93912500  0.96585900  1
  N  267  1  0.92803400  0.81010700  0.78607600  1
  N  269  1  0.82461500  0.93968200  0.78710200  1
  N  308  1  0.92294600  0.44035700  0.46510800  1
  N  310  1  0.82150200  0.31017300  0.46333400  1
  N  312  1  0.82295200  0.44495500  0.28768500  1
  N  314  1  0.92852800  0.30787500  0.28781600  1
  N  353  1  0.42855000  0.30383400  0.78795100  1
  N  355  1  0.32480500  0.43885700  0.78501600  1
  N  357  1  0.32381100  0.30971700  0.96471700  1
  N  359  1  0.42725400  0.43942000  0.96290700  1
  N  362  1  0.98779000  0.96889900  0.99986800  1
  N  365  1  0.00265400  0.02895400  0.00440300  1
  N  385  1  0.48514800  0.78284400  0.24999300  1
  N  388  1  0.50016300  0.72287100  0.24466400  1
  N  408  1  0.76205500  0.28037800  0.50001600  1
  N  411  1  0.74727000  0.22025200  0.50448700  1
  N  431  1  0.26174800  0.46897200  0.75124600  1
  N  434  1  0.24770000  0.52912600  0.74677500  1
  N  454  1  0.51451300  0.21764100  0.74948800  1
  N  457  1  0.49879500  0.27759500  0.75443900  1
  N  477  1  0.23428600  0.71772200  0.49960400  1
  N  480  1  0.25042400  0.77766200  0.49496000  1
  N  500  1  0.73700400  0.53181600  0.25061400  1
  N  503  1  0.75204300  0.47176500  0.25516200  1
  N  523  1  0.48857300  0.96887200  0.49948300  1
  N  526  1  0.50210700  0.02898600  0.50470700  1
  N  546  1  0.98858800  0.78023500  0.75029400  1
  N  549  1  0.00203000  0.72010800  0.74487800  1
  N  569  1  0.26042300  0.28015900  0.99859100  1
  N  572  1  0.24701500  0.22010200  0.00463800  1
  N  592  1  0.01079700  0.22033100  0.24900000  1
  N  595  1  0.99704800  0.28052000  0.25383900  1
  N  615  1  0.73538200  0.71762900  0.00016200  1
  N  618  1  0.75058500  0.77759500  0.99484600  1
  N  638  1  0.48638200  0.46872000  0.00013100  1
  N  641  1  0.50128700  0.52874400  0.00544200  1
  N  661  1  0.76267900  0.96852200  0.75157300  1
  N  664  1  0.74744800  0.02844300  0.74579300  1
  N  684  1  0.23626200  0.03151800  0.25032300  1
  N  687  1  0.25096100  0.97152700  0.25605200  1
  N  707  1  0.98711400  0.46896300  0.49914400  1
  N  710  1  0.00212000  0.52881300  0.50552600  1
  O  369  1  0.96329000  0.06694600  0.96528900  1
  O  370  1  0.90832100  0.03691100  0.95241100  1
  O  392  1  0.46153600  0.68453600  0.28388500  1
  O  393  1  0.40581000  0.71407800  0.29647500  1
  O  415  1  0.78137700  0.18532700  0.45955900  1
  O  416  1  0.84217800  0.21203400  0.45325500  1
  O  438  1  0.28683100  0.56623400  0.78717000  1
  O  439  1  0.34270900  0.53663900  0.79822000  1
  O  461  1  0.53576500  0.31493900  0.71305700  1
  O  462  1  0.59370700  0.28669400  0.70321400  1
  O  484  1  0.21518700  0.81447700  0.53763900  1
  O  485  1  0.15641200  0.78678400  0.54686000  1
  O  507  1  0.71287800  0.43417800  0.21525000  1
  O  508  1  0.65678100  0.46352600  0.20401500  1
  O  530  1  0.45927300  0.06764200  0.46825100  1
  O  531  1  0.40629000  0.03669000  0.45391900  1
  O  553  1  0.96355800  0.68260600  0.78517200  1
  O  554  1  0.90740900  0.71228400  0.79657400  1
  O  576  1  0.28938400  0.18118900  0.96806100  1
  O  577  1  0.34295500  0.21183000  0.95401600  1
  O  599  1  0.03340300  0.31609700  0.21050600  1
  O  600  1  0.09282100  0.28830800  0.20315200  1
  O  622  1  0.71219900  0.81559800  0.03476400  1
  O  623  1  0.65578700  0.78661000  0.04623300  1
  O  645  1  0.46794500  0.56503500  0.96139100  1
  O  646  1  0.40883100  0.53758900  0.95234900  1
  O  668  1  0.78414100  0.06630700  0.78675200  1
  O  669  1  0.84140300  0.03787400  0.79775500  1
  O  691  1  0.21493900  0.93420400  0.21417100  1
  O  692  1  0.15714200  0.96246700  0.20397300  1
  O  714  1  0.96134900  0.56840200  0.46885500  1
  O  715  1  0.90707700  0.53850500  0.45441600  1
