# generated using pymatgen
data_Zn2H43C55N3O8
_symmetry_space_group_name_H-M   'P 1'
_cell_length_a   15.37442000
_cell_length_b   15.37375000
_cell_length_c   48.58059000
_cell_angle_alpha   94.38102000
_cell_angle_beta   94.45849000
_cell_angle_gamma   96.36575000
_symmetry_Int_Tables_number   1
_chemical_formula_structural   Zn2H43C55N3O8
_chemical_formula_sum   'Zn8 H172 C220 N12 O32'
_cell_volume   11335.34838326
_cell_formula_units_Z   4
loop_
 _symmetry_equiv_pos_site_id
 _symmetry_equiv_pos_as_xyz
  1  'x, y, z'
loop_
 _atom_site_type_symbol
 _atom_site_label
 _atom_site_symmetry_multiplicity
 _atom_site_fract_x
 _atom_site_fract_y
 _atom_site_fract_z
 _atom_site_occupancy
  Zn  Zn0  1  0.62474000  0.85112000  0.38135000  1
  Zn  Zn1  1  0.75491000  0.72015000  0.82394000  1
  Zn  Zn2  1  0.76931000  0.73430000  0.88230000  1
  Zn  Zn3  1  0.60807000  0.83732000  0.32309000  1
  Zn  Zn4  1  0.26561000  0.23085000  0.11774000  1
  Zn  Zn5  1  0.16281000  0.39174000  0.67691000  1
  Zn  Zn6  1  0.14868000  0.37522000  0.61863000  1
  Zn  Zn7  1  0.27983000  0.24513000  0.17612000  1
  H  H8  1  0.81577000  0.73430000  0.23503000  1
  H  H9  1  0.74217000  0.58878000  0.66241000  1
  H  H10  1  0.72248000  0.97400000  0.42714000  1
  H  H11  1  0.57170000  0.67510000  0.72990000  1
  H  H12  1  0.85611000  0.79563000  0.77897000  1
  H  H13  1  0.64594000  0.86213000  0.99007000  1
  H  H14  1  0.54583000  0.75965000  0.47633000  1
  H  H15  1  0.58732000  0.70140000  0.13083000  1
  H  H16  1  0.80794000  0.63911000  0.06860000  1
  H  H17  1  0.15725000  0.79562000  0.30971000  1
  H  H18  1  0.72728000  0.17413000  0.89517000  1
  H  H19  1  0.75075000  0.61744000  0.69874000  1
  H  H20  1  0.70952000  0.26718000  0.80975000  1
  H  H21  1  0.73764000  0.98780000  0.47938000  1
  H  H22  1  0.59919000  0.92763000  0.65831000  1
  H  H23  1  0.64990000  0.56770000  0.68135000  1
  H  H24  1  0.48663000  0.67482000  0.89386000  1
  H  H25  1  0.02028000  0.67073000  0.81044000  1
  H  H26  1  0.81073000  0.30641000  0.89543000  1
  H  H27  1  0.77373000  0.79583000  0.56479000  1
  H  H28  1  0.53683000  0.98384000  0.49443000  1
  H  H29  1  0.70040000  0.80772000  0.10676000  1
  H  H30  1  0.57928000  0.39051000  0.30776000  1
  H  H31  1  0.19734000  0.90015000  0.39509000  1
  H  H32  1  0.54700000  0.85515000  0.60957000  1
  H  H33  1  0.48601000  0.69963000  0.19177000  1
  H  H34  1  0.59178000  0.75929000  0.59790000  1
  H  H35  1  0.67846000  0.62395000  0.97309000  1
  H  H36  1  0.61116000  0.65574000  0.78013000  1
  H  H37  1  0.73122000  0.94047000  0.00594000  1
  H  H38  1  0.84964000  0.86808000  0.98264000  1
  H  H39  1  0.85666000  0.73077000  0.16468000  1
  H  H40  1  0.47338000  0.73158000  0.15761000  1
  H  H41  1  0.87266000  0.58216000  0.03056000  1
  H  H42  1  0.69357000  0.93277000  0.61057000  1
  H  H43  1  0.66344000  0.67296000  0.63002000  1
  H  H44  1  0.35762000  0.88984000  0.39430000  1
  H  H45  1  0.73865000  0.72859000  0.49430000  1
  H  H46  1  0.68522000  0.92231000  0.22705000  1
  H  H47  1  0.56704000  0.95978000  0.57064000  1
  H  H48  1  0.70621000  0.42884000  0.80888000  1
  H  H49  1  0.63222000  0.92141000  0.02204000  1
  H  H50  1  0.82304000  0.68245000  0.11737000  1
  H  H51  1  0.65158000  0.94826000  0.27675000  1
  H  H52  1  0.78535000  0.55968000  0.00409000  1
  H  H53  1  0.56955000  0.68521000  0.28124000  1
  H  H54  1  0.89611000  0.76507000  0.21202000  1
  H  H55  1  0.65161000  0.41860000  0.39573000  1
  H  H56  1  0.61117000  0.89564000  0.73098000  1
  H  H57  1  0.82662000  0.82233000  0.72882000  1
  H  H58  1  0.82342000  0.75141000  0.52181000  1
  H  H59  1  0.69142000  0.62167000  0.92181000  1
  H  H60  1  0.59879000  0.12853000  0.39441000  1
  H  H61  1  0.46184000  0.93109000  0.51540000  1
  H  H62  1  0.71628000  0.62849000  0.10690000  1
  H  H63  1  0.85414000  0.85659000  0.93094000  1
  H  H64  1  0.53855000  0.75526000  0.42422000  1
  H  H65  1  0.50159000  0.81218000  0.18601000  1
  H  H66  1  0.52128000  0.03357000  0.52770000  1
  H  H67  1  0.70705000  0.95368000  0.72075000  1
  H  H68  1  0.31481000  0.75314000  0.81041000  1
  H  H69  1  0.64249000  0.11569000  0.30834000  1
  H  H70  1  0.06732000  0.82472000  0.39620000  1
  H  H71  1  0.31864000  0.79245000  0.30882000  1
  H  H72  1  0.64508000  0.57949000  0.39596000  1
  H  H73  1  0.67683000  0.87225000  0.06467000  1
  H  H74  1  0.32395000  0.67437000  0.89354000  1
  H  H75  1  0.60288000  0.97255000  0.70563000  1
  H  H76  1  0.73555000  0.01330000  0.89623000  1
  H  H77  1  0.47691000  0.74980000  0.81072000  1
  H  H78  1  0.88540000  0.87766000  0.31158000  1
  H  H79  1  0.18130000  0.66151000  0.81015000  1
  H  H80  1  0.87641000  0.63608000  0.99948000  1
  H  H81  1  0.83455000  0.84441000  0.22717000  1
  H  H82  1  0.59034000  0.28901000  0.39458000  1
  H  H83  1  0.80603000  0.99886000  0.81268000  1
  H  H84  1  0.22053000  0.77856000  0.89412000  1
  H  H85  1  0.04721000  0.87878000  0.31043000  1
  H  H86  1  0.80289000  0.46729000  0.89445000  1
  H  H87  1  0.64266000  0.27707000  0.30857000  1
  H  H88  1  0.05886000  0.78462000  0.89432000  1
  H  H89  1  0.80277000  0.16045000  0.81162000  1
  H  H90  1  0.81340000  0.82447000  0.49537000  1
  H  H91  1  0.59857000  0.64771000  0.23168000  1
  H  H92  1  0.90609000  0.82953000  0.39730000  1
  H  H93  1  0.57805000  0.55178000  0.30836000  1
  H  H94  1  0.24868000  0.17672000  0.47825000  1
  H  H95  1  0.17754000  0.17317000  0.27116000  1
  H  H96  1  0.12229000  0.11429000  0.68843000  1
  H  H97  1  0.36387000  0.12352000  0.00068000  1
  H  H98  1  0.21528000  0.94136000  0.10573000  1
  H  H99  1  0.36090000  0.19193000  0.93152000  1
  H  H100  1  0.32523000  0.51374000  0.10619000  1
  H  H101  1  0.01610000  0.46316000  0.50542000  1
  H  H102  1  0.26934000  0.14331000  0.83542000  1
  H  H103  1  0.19230000  0.29945000  0.89322000  1
  H  H104  1  0.07862000  0.36777000  0.97785000  1
  H  H105  1  0.71097000  0.40990000  0.60544000  1
  H  H106  1  0.20757000  0.68113000  0.69116000  1
  H  H107  1  0.30043000  0.51397000  0.80824000  1
  H  H108  1  0.02745000  0.39700000  0.29427000  1
  H  H109  1  0.04626000  0.29286000  0.27917000  1
  H  H110  1  0.44027000  0.21459000  0.99607000  1
  H  H111  1  0.37160000  0.28365000  0.89320000  1
  H  H112  1  0.26854000  0.52657000  0.84238000  1
  H  H113  1  0.24477000  0.46161000  0.57573000  1
  H  H114  1  0.20435000  0.84249000  0.69027000  1
  H  H115  1  0.14534000  0.45302000  0.39037000  1
  H  H116  1  0.32492000  0.42807000  0.27009000  1
  H  H117  1  0.24693000  0.68505000  0.18965000  1
  H  H118  1  0.35244000  0.40140000  0.76841000  1
  H  H119  1  0.31503000  0.43034000  0.71881000  1
  H  H120  1  0.73295000  0.29053000  0.19020000  1
  H  H121  1  0.41136000  0.25775000  0.33761000  1
  H  H122  1  0.04008000  0.43295000  0.42924000  1
  H  H123  1  0.69324000  0.18944000  0.10454000  1
  H  H124  1  0.42050000  0.35470000  0.60402000  1
  H  H125  1  0.72322000  0.35740000  0.69145000  1
  H  H126  1  0.12157000  0.95252000  0.68957000  1
  H  H127  1  0.13187000  0.15025000  0.01738000  1
  H  H128  1  0.26576000  0.18436000  0.76505000  1
  H  H129  1  0.07777000  0.31487000  0.77292000  1
  H  H130  1  0.88463000  0.35758000  0.69170000  1
  H  H131  1  0.98645000  0.26455000  0.10373000  1
  H  H132  1  0.83956000  0.19731000  0.18835000  1
  H  H133  1  0.05943000  0.26882000  0.99399000  1
  H  H134  1  0.53237000  0.19714000  0.10556000  1
  H  H135  1  0.13783000  0.35405000  0.00985000  1
  H  H136  1  0.82562000  0.27287000  0.10478000  1
  H  H137  1  0.43228000  0.35009000  0.31867000  1
  H  H138  1  0.24095000  0.40776000  0.40206000  1
  H  H139  1  0.01224000  0.26250000  0.52056000  1
  H  H140  1  0.37818000  0.30864000  0.07824000  1
  H  H141  1  0.29873000  0.41258000  0.86921000  1
  H  H142  1  0.37595000  0.32149000  0.02695000  1
  H  H143  1  0.20420000  0.22639000  0.43523000  1
  H  H144  1  0.09977000  0.80277000  0.60486000  1
  H  H145  1  0.87151000  0.40156000  0.60563000  1
  H  H146  1  0.96638000  0.47872000  0.47212000  1
  H  H147  1  0.11012000  0.64245000  0.60566000  1
  H  H148  1  0.27148000  0.26144000  0.50575000  1
  H  H149  1  0.10437000  0.38875000  0.26895000  1
  H  H150  1  0.20435000  0.14376000  0.22104000  1
  H  H151  1  0.32718000  0.33644000  0.36997000  1
  H  H152  1  0.17568000  0.93306000  0.60382000  1
  H  H153  1  0.18788000  0.49838000  0.81397000  1
  H  H154  1  0.34436000  0.38863000  0.21989000  1
  H  H155  1  0.05192000  0.34846000  0.72319000  1
  H  H156  1  0.25024000  0.52289000  0.18930000  1
  H  H157  1  0.24041000  0.45426000  0.52363000  1
  H  H158  1  0.12776000  0.32308000  0.93527000  1
  H  H159  1  0.31767000  0.17688000  0.88274000  1
  H  H160  1  0.58141000  0.34840000  0.60428000  1
  H  H161  1  0.22144000  0.77972000  0.10593000  1
  H  H162  1  0.44839000  0.42165000  0.69161000  1
  H  H163  1  0.06885000  0.53817000  0.48445000  1
  H  H164  1  0.38261000  0.24924000  0.30128000  1
  H  H165  1  0.15564000  0.16555000  0.77288000  1
  H  H166  1  0.06701000  0.30687000  0.38938000  1
  H  H167  1  0.23499000  0.10395000  0.78805000  1
  H  H168  1  0.07242000  0.40061000  0.34160000  1
  H  H169  1  0.32567000  0.67640000  0.10655000  1
  H  H170  1  0.00112000  0.19400000  0.18732000  1
  H  H171  1  0.60967000  0.42079000  0.69223000  1
  H  H172  1  0.17559000  0.18668000  0.50464000  1
  H  H173  1  0.57125000  0.29372000  0.19111000  1
  H  H174  1  0.33845000  0.81872000  0.18995000  1
  H  H175  1  0.17004000  0.09413000  0.60271000  1
  H  H176  1  0.41784000  0.12726000  0.96964000  1
  H  H177  1  0.32910000  0.97965000  0.18965000  1
  H  H178  1  0.02605000  0.27762000  0.57280000  1
  H  H179  1  0.14331000  0.14584000  0.06909000  1
  C  C180  1  0.35748000  0.69224000  0.87551000  1
  C  C181  1  0.63235000  0.15466000  0.32719000  1
  C  C182  1  0.81652000  0.80662000  0.94134000  1
  C  C183  1  0.69605000  0.75133000  0.72519000  1
  C  C184  1  0.01656000  0.86615000  0.32940000  1
  C  C185  1  0.61047000  0.71528000  0.24082000  1
  C  C186  1  0.74170000  0.75637000  0.07043000  1
  C  C187  1  0.65780000  0.72247000  0.64684000  1
  C  C188  1  0.52616000  0.97081000  0.51586000  1
  C  C189  1  0.83089000  0.77608000  0.21824000  1
  C  C190  1  0.78841000  0.68512000  0.02827000  1
  C  C191  1  0.67249000  0.76042000  0.19717000  1
  C  C192  1  0.63120000  0.24507000  0.32738000  1
  C  C193  1  0.59382000  0.73530000  0.26816000  1
  C  C194  1  0.58985000  0.71666000  0.85295000  1
  C  C195  1  0.72845000  0.40099000  0.82773000  1
  C  C196  1  0.78855000  0.85324000  0.35511000  1
  C  C197  1  0.74641000  0.13646000  0.87721000  1
  C  C198  1  0.78944000  0.03834000  0.83062000  1
  C  C199  1  0.67938000  0.88922000  0.01019000  1
  C  C200  1  0.76451000  0.17930000  0.85331000  1
  C  C201  1  0.72524000  0.71321000  0.14466000  1
  C  C202  1  0.65231000  0.87686000  0.51292000  1
  C  C203  1  0.75639000  0.75052000  0.01266000  1
  C  C204  1  0.60888000  0.67264000  0.35265000  1
  C  C205  1  0.60887000  0.92367000  0.55801000  1
  C  C206  1  0.58130000  0.80551000  0.43743000  1
  C  C207  1  0.64285000  0.87429000  0.48212000  1
  C  C208  1  0.63639000  0.71710000  0.14843000  1
  C  C209  1  0.72535000  0.67453000  0.93624000  1
  C  C210  1  0.62850000  0.80223000  0.64074000  1
  C  C211  1  0.78738000  0.73334000  0.16744000  1
  C  C212  1  0.17667000  0.75344000  0.87592000  1
  C  C213  1  0.75279000  0.69119000  0.11606000  1
  C  C214  1  0.64588000  0.78208000  0.22543000  1
  C  C215  1  0.64602000  0.85057000  0.69017000  1
  C  C216  1  0.49171000  0.71275000  0.85236000  1
  C  C217  1  0.78603000  0.33259000  0.87656000  1
  C  C218  1  0.44496000  0.83684000  0.35138000  1
  C  C219  1  0.51257000  0.74623000  0.17760000  1
  C  C220  1  0.02991000  0.72810000  0.85241000  1
  C  C221  1  0.59307000  0.52155000  0.32740000  1
  C  C222  1  0.77141000  0.99631000  0.85453000  1
  C  C223  1  0.61028000  0.57540000  0.35225000  1
  C  C224  1  0.71894000  0.67630000  0.96463000  1
  C  C225  1  0.35199000  0.73431000  0.82854000  1
  C  C226  1  0.44810000  0.69155000  0.87571000  1
  C  C227  1  0.60656000  0.82115000  0.61112000  1
  C  C228  1  0.73138000  0.31084000  0.82827000  1
  C  C229  1  0.75372000  0.45789000  0.85167000  1
  C  C230  1  0.77253000  0.89890000  0.85473000  1
  C  C231  1  0.78126000  0.68887000  0.05683000  1
  C  C232  1  0.79420000  0.77015000  0.76716000  1
  C  C233  1  0.75025000  0.04651000  0.87788000  1
  C  C234  1  0.02819000  0.83810000  0.37771000  1
  C  C235  1  0.67161000  0.87716000  0.57087000  1
  C  C236  1  0.63330000  0.44681000  0.37657000  1
  C  C237  1  0.20088000  0.81811000  0.32819000  1
  C  C238  1  0.29097000  0.81505000  0.32763000  1
  C  C239  1  0.78653000  0.12841000  0.83007000  1
  C  C240  1  0.63561000  0.70261000  0.73995000  1
  C  C241  1  0.62265000  0.86535000  0.66263000  1
  C  C242  1  0.08668000  0.75777000  0.87607000  1
  C  C243  1  0.61682000  0.29586000  0.35163000  1
  C  C244  1  0.69269000  0.93544000  0.46791000  1
  C  C245  1  0.83314000  0.61208000  0.01490000  1
  C  C246  1  0.65916000  0.86796000  0.23827000  1
  C  C247  1  0.76243000  0.75673000  0.19388000  1
  C  C248  1  0.67982000  0.70385000  0.67413000  1
  C  C249  1  0.22308000  0.87437000  0.37630000  1
  C  C250  1  0.70773000  0.61528000  0.67956000  1
  C  C251  1  0.65697000  0.69097000  0.76770000  1
  C  C252  1  0.70910000  0.82057000  0.05451000  1
  C  C253  1  0.16501000  0.84803000  0.35251000  1
  C  C254  1  0.21241000  0.71907000  0.85217000  1
  C  C255  1  0.78239000  0.42255000  0.87610000  1
  C  C256  1  0.76307000  0.74665000  0.98237000  1
  C  C257  1  0.77722000  0.78481000  0.73942000  1
  C  C258  1  0.88593000  0.85384000  0.35455000  1
  C  C259  1  0.77628000  0.78116000  0.50843000  1
  C  C260  1  0.06942000  0.85111000  0.35319000  1
  C  C261  1  0.60428000  0.25216000  0.37574000  1
  C  C262  1  0.58585000  0.80848000  0.46622000  1
  C  C263  1  0.75199000  0.55523000  0.85127000  1
  C  C264  1  0.59769000  0.92362000  0.52905000  1
  C  C265  1  0.44248000  0.73304000  0.82867000  1
  C  C266  1  0.60781000  0.16211000  0.37576000  1
  C  C267  1  0.71651000  0.81899000  0.02611000  1
  C  C268  1  0.30792000  0.71487000  0.85206000  1
  C  C269  1  0.92620000  0.86669000  0.33000000  1
  C  C270  1  0.62314000  0.01495000  0.35131000  1
  C  C271  1  0.61484000  0.39171000  0.35179000  1
  C  C272  1  0.64075000  0.88307000  0.26571000  1
  C  C273  1  0.59476000  0.43123000  0.32720000  1
  C  C274  1  0.60859000  0.74082000  0.17442000  1
  C  C275  1  0.34791000  0.84011000  0.35158000  1
  C  C276  1  0.93274000  0.73089000  0.85265000  1
  C  C277  1  0.62167000  0.11225000  0.35146000  1
  C  C278  1  0.31285000  0.86967000  0.37593000  1
  C  C279  1  0.64117000  0.92160000  0.71306000  1
  C  C280  1  0.15491000  0.68970000  0.82850000  1
  C  C281  1  0.68477000  0.92836000  0.43906000  1
  C  C282  1  0.93806000  0.83999000  0.37844000  1
  C  C283  1  0.71688000  0.83058000  0.52556000  1
  C  C284  1  0.76051000  0.27480000  0.85268000  1
  C  C285  1  0.67391000  0.76872000  0.69585000  1
  C  C286  1  0.72489000  0.83102000  0.55443000  1
  C  C287  1  0.06498000  0.69425000  0.82858000  1
  C  C288  1  0.63046000  0.53698000  0.37685000  1
  C  C289  1  0.81300000  0.81267000  0.96993000  1
  C  C290  1  0.59902000  0.27153000  0.17226000  1
  C  C291  1  0.75516000  0.36886000  0.67264000  1
  C  C292  1  0.23966000  0.32752000  0.80287000  1
  C  C293  1  0.14940000  0.35377000  0.30977000  1
  C  C294  1  0.54200000  0.24628000  0.14833000  1
  C  C295  1  0.14538000  0.11394000  0.64542000  1
  C  C296  1  0.29618000  0.32000000  0.32586000  1
  C  C297  1  0.11709000  0.35929000  0.73426000  1
  C  C298  1  0.15989000  0.65197000  0.64839000  1
  C  C299  1  0.70429000  0.38330000  0.64838000  1
  C  C300  1  0.32716000  0.38940000  0.64736000  1
  C  C301  1  0.68917000  0.26865000  0.17170000  1
  C  C302  1  0.66717000  0.21407000  0.12342000  1
  C  C303  1  0.21803000  0.35416000  0.77460000  1
  C  C304  1  0.13028000  0.68714000  0.62404000  1
  C  C305  1  0.07625000  0.39115000  0.44190000  1
  C  C306  1  0.02913000  0.47385000  0.48399000  1
  C  C307  1  0.13394000  0.98324000  0.67058000  1
  C  C308  1  0.26489000  0.40615000  0.73187000  1
  C  C309  1  0.87155000  0.21356000  0.16990000  1
  C  C310  1  0.19157000  0.41427000  0.53374000  1
  C  C311  1  0.47854000  0.40669000  0.67257000  1
  C  C312  1  0.32533000  0.27470000  0.06381000  1
  C  C313  1  0.16343000  0.55494000  0.64860000  1
  C  C314  1  0.96162000  0.21065000  0.16936000  1
  C  C315  1  0.18493000  0.70885000  0.67234000  1
  C  C316  1  0.07837000  0.35870000  0.28686000  1
  C  C317  1  0.17942000  0.29080000  0.94546000  1
  C  C318  1  0.14503000  0.21123000  0.64488000  1
  C  C319  1  0.11076000  0.32059000  0.98974000  1
  C  C320  1  0.55327000  0.36672000  0.62343000  1
  C  C321  1  0.10101000  0.22755000  0.14526000  1
  C  C322  1  0.82058000  0.23562000  0.14665000  1
  C  C323  1  0.83795000  0.39241000  0.62427000  1
  C  C324  1  0.15956000  0.06205000  0.62155000  1
  C  C325  1  0.31113000  0.21862000  0.94325000  1
  C  C326  1  0.13468000  0.37713000  0.33730000  1
  C  C327  1  0.28301000  0.36354000  0.85161000  1
  C  C328  1  0.00358000  0.22869000  0.14545000  1
  C  C329  1  0.30891000  0.24712000  0.88402000  1
  C  C330  1  0.12553000  0.77693000  0.62366000  1
  C  C331  1  0.28724000  0.50834000  0.14768000  1
  C  C332  1  0.14893000  0.93054000  0.64678000  1
  C  C333  1  0.24365000  0.25819000  0.92960000  1
  C  C334  1  0.17905000  0.39328000  0.38883000  1
  C  C335  1  0.21509000  0.22260000  0.26057000  1
  C  C336  1  0.28487000  0.38954000  0.75923000  1
  C  C337  1  0.21892000  0.22384000  0.49159000  1
  C  C338  1  0.98516000  0.37713000  0.64869000  1
  C  C339  1  0.28329000  0.41020000  0.14712000  1
  C  C340  1  0.22398000  0.16918000  0.78183000  1
  C  C341  1  0.38789000  0.16678000  0.98525000  1
  C  C342  1  0.25927000  0.39138000  0.82560000  1
  C  C343  1  0.18183000  0.79894000  0.67178000  1
  C  C344  1  0.31485000  0.21148000  0.97182000  1
  C  C345  1  0.16901000  0.27523000  0.44556000  1
  C  C346  1  0.19326000  0.18348000  0.05870000  1
  C  C347  1  0.42455000  0.38902000  0.64772000  1
  C  C348  1  0.06460000  0.30745000  0.53203000  1
  C  C349  1  0.26676000  0.21259000  0.83264000  1
  C  C350  1  0.23124000  0.32588000  0.30413000  1
  C  C351  1  0.30562000  0.93503000  0.17150000  1
  C  C352  1  0.28090000  0.78767000  0.14791000  1
  C  C353  1  0.22982000  0.20564000  0.23285000  1
  C  C354  1  0.30846000  0.55209000  0.12435000  1
  C  C355  1  0.25326000  0.23687000  0.01767000  1
  C  C356  1  0.16195000  0.97198000  0.62229000  1
  C  C357  1  0.12319000  0.34779000  0.48703000  1
  C  C358  1  0.12279000  0.32846000  0.42908000  1
  C  C359  1  0.24858000  0.30374000  0.27480000  1
  C  C360  1  0.13215000  0.34090000  0.76172000  1
  C  C361  1  0.57721000  0.21764000  0.12390000  1
  C  C362  1  0.95331000  0.24988000  0.12209000  1
  C  C363  1  0.18097000  0.28340000  0.97387000  1
  C  C364  1  0.86335000  0.25372000  0.12275000  1
  C  C365  1  0.12576000  0.35726000  0.51783000  1
  C  C366  1  0.25385000  0.48740000  0.82240000  1
  C  C367  1  0.31020000  0.84510000  0.17158000  1
  C  C368  1  0.07635000  0.40235000  0.47086000  1
  C  C369  1  0.38477000  0.29220000  0.32046000  1
  C  C370  1  0.19451000  0.41884000  0.56252000  1
  C  C371  1  0.15189000  0.83492000  0.64746000  1
  C  C372  1  0.88789000  0.37854000  0.64858000  1
  C  C373  1  0.46306000  0.36936000  0.62313000  1
  C  C374  1  0.24335000  0.23758000  0.80618000  1
  C  C375  1  0.30907000  0.34284000  0.23232000  1
  C  C376  1  0.28691000  0.27469000  0.85540000  1
  C  C377  1  0.24215000  0.91350000  0.12400000  1
  C  C378  1  0.26573000  0.64796000  0.17152000  1
  C  C379  1  0.19786000  0.37129000  0.35921000  1
  C  C380  1  0.32360000  0.28104000  0.03541000  1
  C  C381  1  0.27174000  0.97020000  0.14766000  1
  C  C382  1  0.44467000  0.24797000  0.14873000  1
  C  C383  1  0.26894000  0.06738000  0.14741000  1
  C  C384  1  0.13303000  0.07355000  0.66999000  1
  C  C385  1  0.60841000  0.38521000  0.64821000  1
  C  C386  1  0.27761000  0.34202000  0.35314000  1
  C  C387  1  0.72508000  0.23961000  0.14728000  1
  C  C388  1  0.30778000  0.64272000  0.12457000  1
  C  C389  1  0.24651000  0.82352000  0.12415000  1
  C  C390  1  0.29737000  0.36419000  0.26005000  1
  C  C391  1  0.16950000  0.28325000  0.47443000  1
  C  C392  1  0.26698000  0.55747000  0.17138000  1
  C  C393  1  0.18725000  0.18693000  0.03010000  1
  C  C394  1  0.24942000  0.24352000  0.98737000  1
  C  C395  1  0.56891000  0.40527000  0.67279000  1
  C  C396  1  0.28516000  0.69216000  0.14801000  1
  C  C397  1  0.84557000  0.36771000  0.67284000  1
  C  C398  1  0.07167000  0.31536000  0.56089000  1
  C  C399  1  0.74790000  0.39590000  0.62427000  1
  N  N400  1  0.60989000  0.81766000  0.28061000  1
  N  N401  1  0.63022000  0.86424000  0.42408000  1
  N  N402  1  0.77334000  0.73871000  0.92468000  1
  N  N403  1  0.73595000  0.76187000  0.09865000  1
  N  N404  1  0.68281000  0.87151000  0.60034000  1
  N  N405  1  0.73492000  0.72437000  0.78122000  1
  N  N406  1  0.18254000  0.39011000  0.71939000  1
  N  N407  1  0.26112000  0.22675000  0.07537000  1
  N  N408  1  0.12832000  0.31723000  0.39961000  1
  N  N409  1  0.23819000  0.26396000  0.90138000  1
  N  N410  1  0.13578000  0.36992000  0.57588000  1
  N  N411  1  0.27568000  0.26492000  0.21881000  1
  O  O412  1  0.73582000  0.58488000  0.82785000  1
  O  O413  1  0.77907000  0.85634000  0.83158000  1
  O  O414  1  0.61467000  0.97175000  0.32758000  1
  O  O415  1  0.76777000  0.60064000  0.87466000  1
  O  O416  1  0.60348000  0.70505000  0.32926000  1
  O  O417  1  0.74413000  0.85228000  0.33180000  1
  O  O418  1  0.75767000  0.85319000  0.37879000  1
  O  O419  1  0.62325000  0.72378000  0.82983000  1
  O  O420  1  0.61422000  0.71523000  0.37639000  1
  O  O421  1  0.47564000  0.82742000  0.32783000  1
  O  O422  1  0.63207000  0.71401000  0.87641000  1
  O  O423  1  0.63201000  0.98326000  0.37475000  1
  O  O424  1  0.88741000  0.71380000  0.82926000  1
  O  O425  1  0.90333000  0.74918000  0.87595000  1
  O  O426  1  0.76586000  0.86597000  0.87793000  1
  O  O427  1  0.48931000  0.84444000  0.37497000  1
  O  O428  1  0.01652000  0.36843000  0.62523000  1
  O  O429  1  0.25081000  0.09683000  0.12408000  1
  O  O430  1  0.28589000  0.36802000  0.12368000  1
  O  O431  1  0.14360000  0.22093000  0.16842000  1
  O  O432  1  0.13393000  0.23422000  0.12206000  1
  O  O433  1  0.28608000  0.11267000  0.17078000  1
  O  O434  1  0.02867000  0.38543000  0.67240000  1
  O  O435  1  0.29485000  0.39350000  0.67075000  1
  O  O436  1  0.14748000  0.25563000  0.66821000  1
  O  O437  1  0.39920000  0.23222000  0.12534000  1
  O  O438  1  0.17318000  0.52420000  0.67216000  1
  O  O439  1  0.15563000  0.51065000  0.62502000  1
  O  O440  1  0.28442000  0.38505000  0.62364000  1
  O  O441  1  0.14309000  0.24208000  0.62115000  1
  O  O442  1  0.27623000  0.37678000  0.17027000  1
  O  O443  1  0.41509000  0.26411000  0.17215000  1
