# generated using pymatgen
data_U2H10C16O9
_symmetry_space_group_name_H-M   'P 1'
_cell_length_a   9.01588000
_cell_length_b   10.87873000
_cell_length_c   14.10544000
_cell_angle_alpha   105.21121000
_cell_angle_beta   102.04138000
_cell_angle_gamma   107.09214000
_symmetry_Int_Tables_number   1
_chemical_formula_structural   U2H10C16O9
_chemical_formula_sum   'U4 H20 C32 O18'
_cell_volume   1213.27224057
_cell_formula_units_Z   2
loop_
 _symmetry_equiv_pos_site_id
 _symmetry_equiv_pos_as_xyz
  1  'x, y, z'
loop_
 _atom_site_type_symbol
 _atom_site_label
 _atom_site_symmetry_multiplicity
 _atom_site_fract_x
 _atom_site_fract_y
 _atom_site_fract_z
 _atom_site_occupancy
  U  U0  1  0.86010000  0.17970000  0.09000000  1
  U  U1  1  0.11020000  0.68717000  0.49240000  1
  U  U2  1  0.14122000  0.82044000  0.91076000  1
  U  U3  1  0.88989000  0.31307000  0.50786000  1
  H  H4  1  0.95429000  0.63546000  0.07940000  1
  H  H5  1  0.87437000  0.97123000  0.27695000  1
  H  H6  1  0.83235000  0.84442000  0.39853000  1
  H  H7  1  0.82009000  0.60710000  0.35148000  1
  H  H8  1  0.89650000  0.42505000  0.31711000  1
  H  H9  1  0.74029000  0.43773000  0.38435000  1
  H  H10  1  0.52635000  0.99741000  0.39670000  1
  H  H11  1  0.23981000  0.58364000  0.18471000  1
  H  H12  1  0.32804000  0.64615000  0.04069000  1
  H  H13  1  0.52272000  0.88245000  0.07511000  1
  H  H14  1  0.04568000  0.36445000  0.92060000  1
  H  H15  1  0.12590000  0.02890000  0.72299000  1
  H  H16  1  0.16768000  0.15562000  0.60136000  1
  H  H17  1  0.17991000  0.39294000  0.64849000  1
  H  H18  1  0.10363000  0.57492000  0.68289000  1
  H  H19  1  0.25998000  0.56250000  0.61570000  1
  H  H20  1  0.47383000  0.00285000  0.60356000  1
  H  H21  1  0.76028000  0.41637000  0.81544000  1
  H  H22  1  0.67183000  0.35360000  0.95924000  1
  H  H23  1  0.47738000  0.11756000  0.92496000  1
  C  C24  1  0.92639000  0.48002000  0.19073000  1
  C  C25  1  0.90881000  0.60823000  0.21837000  1
  C  C26  1  0.92816000  0.68084000  0.14917000  1
  C  C27  1  0.91907000  0.81049000  0.17067000  1
  C  C28  1  0.88624000  0.87163000  0.26308000  1
  C  C29  1  0.86424000  0.80099000  0.33022000  1
  C  C30  1  0.87543000  0.67060000  0.31115000  1
  C  C31  1  0.94233000  0.88059000  0.09696000  1
  C  C32  1  0.66074000  0.08573000  0.25595000  1
  C  C33  1  0.53964000  0.95784000  0.23778000  1
  C  C34  1  0.48478000  0.92310000  0.31830000  1
  C  C35  1  0.37487000  0.79119000  0.29691000  1
  C  C36  1  0.31864000  0.68784000  0.19718000  1
  C  C37  1  0.36994000  0.72370000  0.11736000  1
  C  C38  1  0.47401000  0.85702000  0.13519000  1
  C  C39  1  0.30750000  0.76230000  0.37833000  1
  C  C40  1  0.07353000  0.51993000  0.80926000  1
  C  C41  1  0.09114000  0.39160000  0.78159000  1
  C  C42  1  0.07192000  0.31909000  0.85083000  1
  C  C43  1  0.08140000  0.18966000  0.82936000  1
  C  C44  1  0.11399000  0.12839000  0.73690000  1
  C  C45  1  0.13585000  0.19905000  0.66973000  1
  C  C46  1  0.12464000  0.32939000  0.68882000  1
  C  C47  1  0.05826000  0.11965000  0.90335000  1
  C  C48  1  0.33954000  0.91439000  0.74419000  1
  C  C49  1  0.46047000  0.04235000  0.76232000  1
  C  C50  1  0.51536000  0.07720000  0.68191000  1
  C  C51  1  0.62521000  0.20884000  0.70301000  1
  C  C52  1  0.68126000  0.31224000  0.80282000  1
  C  C53  1  0.63000000  0.27619000  0.88255000  1
  C  C54  1  0.52614000  0.14299000  0.86489000  1
  C  C55  1  0.69252000  0.23762000  0.62162000  1
  O  O56  1  0.93916000  0.40469000  0.25661000  1
  O  O57  1  0.92883000  0.41421000  0.10080000  1
  O  O58  1  0.91612000  0.99359000  0.11152000  1
  O  O59  1  0.98697000  0.82910000  0.01929000  1
  O  O60  1  0.85122000  0.47344000  0.42988000  1
  O  O61  1  0.26657000  0.64051000  0.38568000  1
  O  O62  1  0.27774000  0.85575000  0.44159000  1
  O  O63  1  0.69000000  0.12054000  0.17663000  1
  O  O64  1  0.75433000  0.16969000  0.35037000  1
  O  O65  1  0.06114000  0.59548000  0.74359000  1
  O  O66  1  0.07088000  0.58551000  0.89915000  1
  O  O67  1  0.08421000  0.00639000  0.88917000  1
  O  O68  1  0.01288000  0.17078000  0.98059000  1
  O  O69  1  0.14868000  0.52630000  0.57010000  1
  O  O70  1  0.73329000  0.35944000  0.61429000  1
  O  O71  1  0.72261000  0.14428000  0.55830000  1
  O  O72  1  0.31075000  0.87931000  0.82353000  1
  O  O73  1  0.24586000  0.83042000  0.64979000  1
