# generated using pymatgen
data_H44C55N8
_symmetry_space_group_name_H-M   'P 1'
_cell_length_a   35.28880000
_cell_length_b   35.28880000
_cell_length_c   35.28880000
_cell_angle_alpha   90.00000000
_cell_angle_beta   90.00000000
_cell_angle_gamma   90.00000000
_symmetry_Int_Tables_number   1
_chemical_formula_structural   H44C55N8
_chemical_formula_sum   'H264 C330 N48'
_cell_volume   43945.12165869
_cell_formula_units_Z   6
loop_
 _symmetry_equiv_pos_site_id
 _symmetry_equiv_pos_as_xyz
  1  'x, y, z'
loop_
 _atom_site_type_symbol
 _atom_site_label
 _atom_site_symmetry_multiplicity
 _atom_site_fract_x
 _atom_site_fract_y
 _atom_site_fract_z
 _atom_site_occupancy
  H  25  1  0.09226600  0.63616000  0.51056200  1
  H  26  1  0.12192900  0.57597400  0.51093000  1
  H  27  1  0.12137100  0.43871800  0.51292500  1
  H  28  1  0.09123600  0.37893100  0.51417800  1
  H  29  1  0.98456600  0.43173000  0.50877100  1
  H  30  1  0.98505300  0.58402700  0.50800600  1
  H  31  1  0.03247100  0.50768900  0.58460800  1
  H  32  1  0.92579600  0.50247700  0.63741000  1
  H  33  1  0.89566500  0.50362800  0.57762000  1
  H  34  1  0.03202000  0.50817300  0.43233000  1
  H  35  1  0.89514100  0.50530800  0.44034400  1
  H  36  1  0.92482700  0.50552100  0.38016900  1
  H  39  1  0.11163800  0.50724100  0.48552600  1
  H  40  1  0.11039700  0.50753300  0.53578200  1
  H  42  1  0.90663400  0.48061200  0.50884800  1
  H  43  1  0.90542400  0.53087200  0.50902600  1
  H  72  1  0.50359400  0.08959800  0.63747800  1
  H  73  1  0.50405300  0.12065600  0.57807400  1
  H  74  1  0.50601100  0.12274100  0.44062200  1
  H  75  1  0.50732900  0.09327600  0.38021500  1
  H  76  1  0.50815900  0.98580100  0.43172100  1
  H  77  1  0.50740000  0.98364500  0.58298200  1
  H  78  1  0.58321100  0.03278600  0.50807700  1
  H  79  1  0.63640400  0.92642200  0.50040600  1
  H  80  1  0.57676200  0.89604700  0.50117700  1
  H  81  1  0.43076900  0.03146400  0.50863500  1
  H  82  1  0.43965800  0.89472100  0.50329600  1
  H  83  1  0.37929900  0.92400800  0.50408400  1
  H  86  1  0.48030300  0.11058100  0.50909100  1
  H  87  1  0.53057100  0.11183400  0.50937500  1
  H  89  1  0.50798000  0.90711900  0.47869300  1
  H  90  1  0.50827800  0.90495400  0.52892200  1
  H  119  1  0.63770700  0.50331600  0.09065800  1
  H  120  1  0.57829200  0.50380100  0.12170100  1
  H  121  1  0.44082900  0.50594000  0.12373700  1
  H  122  1  0.38043600  0.50736300  0.09424200  1
  H  123  1  0.43199000  0.50804600  0.98679300  1
  H  124  1  0.58324200  0.50713900  0.98468700  1
  H  125  1  0.50840600  0.58295900  0.03379700  1
  H  126  1  0.50092400  0.63616000  0.92742600  1
  H  127  1  0.50164100  0.57650900  0.89705300  1
  H  128  1  0.50874600  0.43055900  0.03254500  1
  H  129  1  0.50346600  0.43936100  0.89579500  1
  H  130  1  0.50411200  0.37902200  0.92513000  1
  H  133  1  0.50927300  0.48009900  0.11160600  1
  H  134  1  0.50963000  0.53036700  0.11285400  1
  H  136  1  0.47900800  0.50775100  0.90812800  1
  H  137  1  0.52923900  0.50795500  0.90600000  1
  H  166  1  0.59074300  0.13816900  0.01225000  1
  H  167  1  0.62081500  0.07824800  0.01138000  1
  H  168  1  0.62195200  0.94142700  0.00705700  1
  H  169  1  0.59272700  0.88102000  0.00677900  1
  H  170  1  0.48511500  0.93239600  0.00927700  1
  H  171  1  0.48387600  0.08519500  0.00887300  1
  H  172  1  0.53093100  0.00900300  0.08457500  1
  H  173  1  0.42384300  0.99979100  0.13613100  1
  H  174  1  0.39421300  0.00153100  0.07605300  1
  H  175  1  0.53237100  0.00987200  0.93328000  1
  H  176  1  0.39533300  0.00953400  0.93899300  1
  H  177  1  0.42603700  0.01149600  0.87942400  1
  H  180  1  0.61052600  0.01036200  0.98381200  1
  H  181  1  0.61061900  0.00923000  0.03408500  1
  H  183  1  0.40587400  0.98130400  0.00683300  1
  H  184  1  0.40462500  0.03155400  0.00848800  1
  H  213  1  0.01263400  0.59071200  0.13967600  1
  H  214  1  0.01184900  0.62079500  0.07976300  1
  H  215  1  0.00729500  0.62199100  0.94295200  1
  H  216  1  0.00669400  0.59280100  0.88253000  1
  H  217  1  0.00916200  0.48516000  0.93384700  1
  H  218  1  0.00900500  0.48386500  0.08668000  1
  H  219  1  0.08477800  0.53097100  0.01037300  1
  H  220  1  0.13635300  0.42390000  0.00108600  1
  H  221  1  0.07628700  0.39425300  0.00290600  1
  H  222  1  0.93348100  0.53236500  0.01133900  1
  H  223  1  0.93923100  0.39532700  0.01102300  1
  H  224  1  0.87965100  0.42602000  0.01293700  1
  H  227  1  0.98424500  0.61062200  0.01191400  1
  H  228  1  0.03451400  0.61054000  0.01070500  1
  H  230  1  0.00704900  0.40587700  0.98278600  1
  H  231  1  0.00875300  0.40465000  0.03303500  1
  H  260  1  0.13816300  0.00875800  0.59155900  1
  H  261  1  0.07808500  0.00741400  0.62132500  1
  H  262  1  0.94125700  0.00343800  0.62164600  1
  H  263  1  0.88102000  0.00388600  0.59209500  1
  H  264  1  0.93302200  0.00733500  0.48478600  1
  H  265  1  0.08574500  0.00601700  0.48441800  1
  H  266  1  0.00834000  0.08215800  0.53133100  1
  H  267  1  0.01155600  0.13409700  0.42397900  1
  H  268  1  0.01150300  0.07384600  0.39445700  1
  H  269  1  0.00932800  0.92938400  0.53173300  1
  H  270  1  0.00716200  0.93703800  0.39484000  1
  H  271  1  0.00605100  0.87696200  0.42461100  1
  H  274  1  0.01011600  0.97988100  0.61034200  1
  H  275  1  0.00923300  0.03015500  0.61103000  1
  H  277  1  0.98448900  0.00594900  0.40529300  1
  H  278  1  0.03476300  0.00493800  0.40561100  1
  H  293  1  0.05530300  0.53663000  0.21871000  1
  H  294  1  0.06051600  0.54252700  0.28565500  1
  H  297  1  0.92327700  0.41933200  0.34588100  1
  H  298  1  0.90187600  0.39300900  0.30960000  1
  H  299  1  0.87741300  0.47236900  0.33628300  1
  H  300  1  0.85418400  0.42915900  0.34690100  1
  H  301  1  0.85470000  0.44636900  0.29977500  1
  H  304  1  0.89474100  0.42614100  0.20380200  1
  H  305  1  0.87718000  0.40855800  0.24677300  1
  H  306  1  0.94554200  0.37645400  0.20362300  1
  H  307  1  0.89973700  0.35605100  0.20638100  1
  H  308  1  0.92834400  0.35880800  0.24756000  1
  H  310  1  0.99960200  0.46948700  0.16727100  1
  H  312  1  0.04579500  0.51589800  0.35003500  1
  H  323  1  0.96595600  0.54666400  0.80718100  1
  H  324  1  0.95631900  0.55698500  0.74189600  1
  H  327  1  0.07349000  0.42065000  0.66524000  1
  H  328  1  0.10193500  0.39672400  0.69812900  1
  H  329  1  0.11807100  0.47580900  0.66543900  1
  H  330  1  0.14160400  0.43315500  0.65323900  1
  H  331  1  0.14702100  0.45234500  0.69933000  1
  H  334  1  0.11589900  0.42304700  0.80359900  1
  H  335  1  0.13093700  0.40945600  0.75830100  1
  H  336  1  0.07906600  0.35987700  0.75649600  1
  H  337  1  0.06477800  0.37407900  0.80264700  1
  H  338  1  0.11008000  0.35362300  0.79548600  1
  H  340  1  0.02138200  0.47295800  0.85079800  1
  H  342  1  0.96590500  0.54203100  0.67830700  1
  H  353  1  0.21711800  0.05288700  0.53760500  1
  H  354  1  0.28403900  0.05858500  0.54327800  1
  H  357  1  0.34485500  0.92318900  0.41842500  1
  H  358  1  0.30863100  0.90207500  0.39179600  1
  H  359  1  0.33577500  0.87629600  0.47059500  1
  H  360  1  0.34633100  0.85392600  0.42692100  1
  H  361  1  0.29928800  0.85382700  0.44435400  1
  H  364  1  0.20348800  0.89258200  0.42615600  1
  H  365  1  0.24636300  0.87665900  0.40686300  1
  H  366  1  0.24441600  0.92893600  0.35845700  1
  H  367  1  0.20052700  0.94452700  0.37766400  1
  H  368  1  0.20394300  0.89929500  0.35611600  1
  H  370  1  0.16586400  0.99745400  0.47013000  1
  H  372  1  0.34842000  0.04463900  0.51626100  1
  H  383  1  0.80572100  0.96503000  0.54594400  1
  H  384  1  0.74037700  0.95596200  0.55630500  1
  H  387  1  0.66454900  0.07452700  0.42076000  1
  H  388  1  0.69772900  0.10240600  0.39656500  1
  H  389  1  0.66572500  0.11921200  0.47579700  1
  H  390  1  0.65363900  0.14283400  0.43316100  1
  H  391  1  0.69990300  0.14761300  0.45209000  1
  H  394  1  0.80345100  0.11535300  0.42277200  1
  H  395  1  0.75828400  0.13093800  0.40935700  1
  H  396  1  0.75575300  0.07925200  0.35962700  1
  H  397  1  0.80177100  0.06438800  0.37365700  1
  H  398  1  0.79507800  0.10983300  0.35335900  1
  H  400  1  0.84976100  0.02049500  0.47242000  1
  H  402  1  0.67692100  0.96589100  0.54118400  1
  H  413  1  0.53678000  0.21708900  0.05513700  1
  H  414  1  0.54272200  0.28401700  0.06040100  1
  H  417  1  0.41919600  0.34443800  0.92352100  1
  H  418  1  0.39268600  0.30819200  0.90229000  1
  H  419  1  0.47199200  0.33466200  0.87741300  1
  H  420  1  0.42869700  0.34537100  0.85438500  1
  H  421  1  0.44579100  0.29820500  0.85485600  1
  H  424  1  0.42574200  0.20236300  0.89493100  1
  H  425  1  0.40804800  0.24534300  0.87750900  1
  H  426  1  0.37627800  0.20210000  0.94596100  1
  H  427  1  0.35567100  0.20489700  0.90025000  1
  H  428  1  0.35853600  0.24604700  0.92888800  1
  H  430  1  0.46945300  0.16572000  0.99961000  1
  H  432  1  0.51626600  0.34839400  0.04583000  1
  H  443  1  0.54672900  0.80552600  0.96684900  1
  H  444  1  0.55703600  0.74020500  0.95754600  1
  H  447  1  0.42037700  0.66411200  0.07460600  1
  H  448  1  0.39608900  0.69718500  0.10252800  1
  H  449  1  0.47504900  0.66471600  0.11974100  1
  H  450  1  0.43216900  0.65263600  0.14292400  1
  H  451  1  0.45125700  0.69878300  0.14820800  1
  H  454  1  0.42277800  0.80259800  0.11662000  1
  H  455  1  0.40873600  0.75739100  0.13151200  1
  H  456  1  0.35954200  0.75595700  0.07930800  1
  H  457  1  0.37415300  0.80201700  0.06513600  1
  H  458  1  0.35333100  0.79497800  0.11029100  1
  H  460  1  0.47291000  0.84944000  0.02197700  1
  H  462  1  0.54149800  0.67675100  0.96688600  1
  H  473  1  0.53797300  0.04217800  0.80837400  1
  H  474  1  0.55172200  0.05639400  0.74431600  1
  H  477  1  0.42922700  0.93746800  0.65118800  1
  H  478  1  0.40064000  0.90972000  0.68082300  1
  H  479  1  0.48184700  0.89048800  0.65561400  1
  H  480  1  0.43963600  0.86925700  0.63860300  1
  H  481  1  0.45396300  0.86175000  0.68612800  1
  H  484  1  0.42186200  0.88630200  0.78645200  1
  H  485  1  0.40867400  0.87612900  0.73969700  1
  H  486  1  0.36029000  0.92869500  0.74189300  1
  H  487  1  0.37361800  0.93832400  0.78951200  1
  H  488  1  0.35260800  0.89427900  0.77765000  1
  H  490  1  0.46831100  0.97167200  0.84009200  1
  H  492  1  0.54173300  0.04854500  0.67875700  1
  H  503  1  0.52814600  0.97181400  0.21385900  1
  H  504  1  0.53822200  0.96143400  0.27978100  1
  H  507  1  0.42672800  0.09817500  0.35908600  1
  H  508  1  0.39467800  0.11855800  0.32707600  1
  H  509  1  0.47496400  0.14782000  0.34498200  1
  H  510  1  0.43195900  0.16757200  0.36169600  1
  H  511  1  0.44328600  0.16992600  0.31290400  1
  H  514  1  0.42461100  0.14094900  0.22279500  1
  H  515  1  0.40028000  0.14664800  0.26576500  1
  H  516  1  0.35775100  0.09211800  0.24988000  1
  H  517  1  0.38107600  0.08733400  0.20546900  1
  H  518  1  0.35528300  0.12909200  0.21597200  1
  H  520  1  0.46256700  0.04279100  0.17520500  1
  H  522  1  0.51659800  0.97284800  0.34685300  1
  H  533  1  0.05156400  0.20916900  0.47023800  1
  H  534  1  0.06107200  0.27446100  0.45986000  1
  H  537  1  0.94278500  0.35106400  0.59527200  1
  H  538  1  0.91440400  0.31811000  0.61919100  1
  H  539  1  0.89847900  0.35038600  0.53989700  1
  H  540  1  0.87466700  0.36262300  0.58238400  1
  H  541  1  0.86960600  0.31642700  0.56335500  1
  H  544  1  0.90118200  0.21240800  0.59324800  1
  H  545  1  0.88567600  0.25768800  0.60637700  1
  H  546  1  0.93717100  0.26026400  0.65633600  1
  H  547  1  0.95192900  0.21413600  0.64256400  1
  H  548  1  0.90642500  0.22107600  0.66264200  1
  H  550  1  0.99588100  0.16552900  0.54374500  1
  H  552  1  0.05115800  0.33804200  0.47454500  1
  H  563  1  0.96260700  0.79775800  0.47867600  1
  H  564  1  0.95707800  0.73081100  0.47304000  1
  H  567  1  0.09306800  0.67042300  0.59742500  1
  H  568  1  0.11434300  0.70671800  0.62382800  1
  H  569  1  0.13962900  0.67938100  0.54494100  1
  H  570  1  0.16228400  0.66895800  0.58849900  1
  H  571  1  0.16223700  0.71595600  0.57093800  1
  H  574  1  0.12334800  0.81186800  0.58940900  1
  H  575  1  0.13955500  0.76901800  0.60852000  1
  H  576  1  0.08754100  0.77068700  0.65724300  1
  H  577  1  0.07167700  0.81454800  0.63819800  1
  H  578  1  0.11704400  0.81126400  0.65948200  1
  H  580  1  0.01818900  0.84917100  0.54593000  1
  H  582  1  0.97132900  0.66644400  0.50017900  1
  H  593  1  0.21401600  0.52835200  0.97314600  1
  H  594  1  0.27991900  0.53844600  0.96266100  1
  H  597  1  0.35948800  0.42637100  0.09875600  1
  H  598  1  0.32750700  0.39429800  0.11914900  1
  H  599  1  0.34559200  0.47448300  0.14858500  1
  H  600  1  0.36231900  0.43140100  0.16816000  1
  H  601  1  0.31354500  0.44277300  0.17069600  1
  H  604  1  0.22316400  0.42403000  0.14168800  1
  H  605  1  0.26625800  0.39994300  0.14746500  1
  H  606  1  0.25076100  0.35736900  0.09286800  1
  H  607  1  0.20624500  0.38046700  0.08794900  1
  H  608  1  0.21673900  0.35469400  0.12972300  1
  H  610  1  0.17546100  0.46264300  0.04405800  1
  H  612  1  0.34701400  0.51668600  0.97384300  1
  H  623  1  0.80852400  0.53777500  0.04360700  1
  H  624  1  0.74443500  0.55145900  0.05772100  1
  H  627  1  0.65157000  0.42959900  0.93797000  1
  H  628  1  0.68128500  0.40098600  0.91033000  1
  H  629  1  0.65628800  0.48225600  0.89107400  1
  H  630  1  0.63930600  0.44009500  0.86971900  1
  H  631  1  0.68688200  0.45436300  0.86243300  1
  H  634  1  0.78698700  0.42229000  0.88717500  1
  H  635  1  0.74026700  0.40907100  0.87688800  1
  H  636  1  0.74240400  0.36059600  0.92936400  1
  H  637  1  0.78999100  0.37394600  0.93911200  1
  H  638  1  0.77823400  0.35301000  0.89500500  1
  H  640  1  0.84041200  0.46831600  0.97297000  1
  H  642  1  0.67888800  0.54160600  0.04958200  1
  C  1  1  0.98595400  0.50757200  0.47151600  1
  C  2  1  0.94574000  0.50675100  0.47295200  1
  C  3  1  0.94594700  0.50659800  0.54467800  1
  C  4  1  0.98613300  0.50758100  0.54586200  1
  C  5  1  0.00356300  0.50744500  0.58274900  1
  C  6  1  0.98232100  0.50698900  0.61717400  1
  C  7  1  0.94250100  0.50474100  0.61381000  1
  C  8  1  0.92463700  0.50511800  0.57846700  1
  C  9  1  0.92413600  0.50603400  0.43929600  1
  C  10  1  0.94168800  0.50606800  0.40379400  1
  C  11  1  0.98137200  0.50705400  0.40040800  1
  C  12  1  0.00314400  0.50780500  0.43450700  1
  C  13  1  0.03110300  0.54482800  0.50870300  1
  C  14  1  0.07131700  0.54338000  0.50954500  1
  C  15  1  0.07109100  0.47165700  0.50985400  1
  C  16  1  0.03090700  0.47047300  0.50884200  1
  C  17  1  0.09239700  0.43786700  0.51144000  1
  C  18  1  0.07453200  0.40252800  0.51186800  1
  C  19  1  0.03471400  0.39915500  0.50959900  1
  C  20  1  0.01347300  0.43358600  0.50904300  1
  C  21  1  0.01392900  0.58184200  0.50838600  1
  C  22  1  0.03571300  0.61593300  0.50904600  1
  C  23  1  0.07539600  0.61253800  0.51006900  1
  C  24  1  0.09293500  0.57703100  0.51018800  1
  C  37  1  0.00852600  0.50770300  0.50864100  1
  C  38  1  0.09283600  0.50744800  0.51019900  1
  C  41  1  0.92421200  0.50618700  0.50888200  1
  C  48  1  0.47028000  0.98569100  0.50719300  1
  C  49  1  0.47194100  0.94550500  0.50563100  1
  C  50  1  0.54364100  0.94613400  0.50534800  1
  C  51  1  0.54465500  0.98630300  0.50715900  1
  C  52  1  0.58147400  0.00388100  0.50725500  1
  C  53  1  0.61597800  0.98276600  0.50623500  1
  C  54  1  0.61275300  0.94299100  0.50312600  1
  C  55  1  0.57749500  0.92498600  0.50328200  1
  C  56  1  0.43842900  0.92369100  0.50455400  1
  C  57  1  0.40281700  0.94100500  0.50492800  1
  C  58  1  0.39919500  0.98064400  0.50661200  1
  C  59  1  0.43314900  0.00261700  0.50774000  1
  C  60  1  0.50711900  0.03056200  0.54503200  1
  C  61  1  0.50632300  0.07078800  0.54442000  1
  C  62  1  0.50660000  0.07187200  0.47287900  1
  C  63  1  0.50724400  0.03166100  0.47113300  1
  C  64  1  0.50655200  0.09375100  0.43939200  1
  C  65  1  0.50727800  0.07639000  0.40381400  1
  C  66  1  0.50808500  0.03671900  0.40043900  1
  C  67  1  0.50795500  0.01466300  0.43416700  1
  C  68  1  0.50727800  0.01258700  0.58153900  1
  C  69  1  0.50746800  0.03343000  0.61612300  1
  C  70  1  0.50545800  0.07329900  0.61356400  1
  C  71  1  0.50535100  0.09166500  0.57849600  1
  C  84  1  0.50729500  0.00850600  0.50773400  1
  C  85  1  0.50589200  0.09303600  0.50896700  1
  C  88  1  0.50797500  0.92420600  0.50459700  1
  C  95  1  0.50740000  0.47003600  0.98673900  1
  C  96  1  0.50584900  0.47168000  0.94655400  1
  C  97  1  0.50569600  0.54338500  0.94714600  1
  C  98  1  0.50747000  0.54440600  0.98731400  1
  C  99  1  0.50760600  0.58122200  0.00488900  1
  C  100  1  0.50665100  0.61572300  0.98377500  1
  C  101  1  0.50358500  0.61250400  0.94399700  1
  C  102  1  0.50369300  0.57724300  0.92599500  1
  C  103  1  0.50471000  0.43814800  0.92476800  1
  C  104  1  0.50500200  0.40255000  0.94211000  1
  C  105  1  0.50667700  0.39894900  0.98175200  1
  C  106  1  0.50787300  0.43292000  0.00369600  1
  C  107  1  0.54527800  0.50685000  0.03159600  1
  C  108  1  0.54465200  0.50606500  0.07182200  1
  C  109  1  0.47310800  0.50644700  0.07288200  1
  C  110  1  0.47138000  0.50707600  0.03267100  1
  C  111  1  0.43961300  0.50647000  0.09474600  1
  C  112  1  0.40404400  0.50725500  0.07736900  1
  C  113  1  0.40068600  0.50805700  0.03769600  1
  C  114  1  0.43442200  0.50785000  0.01565600  1
  C  115  1  0.58178900  0.50699400  0.01362800  1
  C  116  1  0.61636300  0.50715000  0.03448500  1
  C  117  1  0.61379600  0.50515500  0.07435300  1
  C  118  1  0.57872300  0.50507300  0.09270900  1
  C  131  1  0.50798600  0.50705900  0.00953200  1
  C  132  1  0.50919000  0.50568500  0.09405900  1
  C  135  1  0.50489700  0.50770600  0.92523200  1
  C  142  1  0.48569300  0.00891700  0.97153000  1
  C  143  1  0.44546500  0.00840600  0.97233200  1
  C  144  1  0.44481900  0.00633500  0.04378100  1
  C  145  1  0.48499000  0.00805800  0.04542600  1
  C  146  1  0.50206600  0.00781900  0.08236700  1
  C  147  1  0.48038800  0.00616200  0.11637000  1
  C  148  1  0.44068100  0.00269000  0.11269000  1
  C  149  1  0.42314900  0.00348400  0.07723200  1
  C  150  1  0.42435000  0.00928500  0.93840400  1
  C  151  1  0.44251500  0.01009400  0.90325400  1
  C  152  1  0.48240900  0.00895100  0.90046000  1
  C  153  1  0.50344900  0.00944900  0.93491200  1
  C  154  1  0.53020600  0.04633000  0.00929600  1
  C  155  1  0.57044800  0.04528000  0.00979600  1
  C  156  1  0.57108300  0.97364100  0.00828800  1
  C  157  1  0.53087400  0.97196700  0.00862700  1
  C  158  1  0.59295700  0.94016300  0.00744800  1
  C  159  1  0.57568200  0.90454300  0.00726700  1
  C  160  1  0.53602300  0.90095300  0.00841000  1
  C  161  1  0.51397100  0.93483600  0.00890000  1
  C  162  1  0.51276400  0.08323100  0.00939300  1
  C  163  1  0.53430000  0.11750600  0.01047600  1
  C  164  1  0.57400700  0.11442500  0.01148700  1
  C  165  1  0.59180600  0.07907300  0.01094300  1
  C  178  1  0.50798300  0.00893000  0.00871100  1
  C  179  1  0.59239000  0.00964400  0.00897900  1
  C  182  1  0.42342100  0.00687600  0.00784200  1
  C  189  1  0.97174300  0.48569600  0.01041700  1
  C  190  1  0.97255900  0.44546800  0.00990400  1
  C  191  1  0.04400600  0.44485000  0.00775700  1
  C  192  1  0.04563900  0.48501800  0.00948000  1
  C  193  1  0.08257600  0.50210900  0.00918900  1
  C  194  1  0.11658600  0.48043900  0.00748500  1
  C  195  1  0.11291100  0.44073200  0.00400800  1
  C  196  1  0.07746000  0.42318900  0.00486400  1
  C  197  1  0.93863900  0.42434500  0.01078700  1
  C  198  1  0.90348300  0.44249800  0.01156400  1
  C  199  1  0.90068100  0.48239200  0.01040600  1
  C  200  1  0.93512500  0.50344400  0.01093800  1
  C  201  1  0.00953700  0.53020300  0.04782100  1
  C  202  1  0.01013100  0.57043900  0.04678100  1
  C  203  1  0.00852000  0.57110800  0.97513800  1
  C  204  1  0.00877200  0.53090000  0.97344300  1
  C  205  1  0.00762400  0.59299900  0.94167100  1
  C  206  1  0.00724700  0.57573900  0.90604500  1
  C  207  1  0.00827100  0.53608000  0.90242000  1
  C  208  1  0.00887300  0.51401400  0.93630100  1
  C  209  1  0.00959600  0.51275300  0.08472300  1
  C  210  1  0.01072000  0.53427500  0.11901100  1
  C  211  1  0.01183700  0.57398200  0.11593100  1
  C  212  1  0.01134200  0.59178600  0.08058100  1
  C  225  1  0.00891500  0.50799700  0.01040400  1
  C  226  1  0.00934600  0.59239500  0.01115100  1
  C  229  1  0.00807500  0.42343800  0.00835200  1
  C  236  1  0.00913700  0.96850400  0.48561100  1
  C  237  1  0.00870000  0.96974800  0.44538000  1
  C  238  1  0.00999500  0.04137700  0.44515900  1
  C  239  1  0.00937300  0.04283900  0.48537800  1
  C  240  1  0.00889900  0.07987900  0.50246600  1
  C  241  1  0.00955300  0.11388300  0.48057500  1
  C  242  1  0.01096000  0.11048900  0.44090800  1
  C  243  1  0.01090800  0.07496100  0.42345200  1
  C  244  1  0.00756400  0.93606300  0.42384600  1
  C  245  1  0.00687600  0.90061800  0.44146400  1
  C  246  1  0.00777100  0.89733400  0.48115900  1
  C  247  1  0.00894500  0.93150300  0.50285400  1
  C  248  1  0.04663300  0.00593200  0.53054000  1
  C  249  1  0.04538000  0.00616200  0.57077400  1
  C  250  1  0.97375500  0.00504800  0.57096700  1
  C  251  1  0.97231800  0.00587600  0.53074700  1
  C  252  1  0.94016100  0.00418900  0.59265000  1
  C  253  1  0.90463900  0.00444700  0.57518300  1
  C  254  1  0.90127800  0.00606800  0.53551900  1
  C  255  1  0.93528900  0.00662600  0.51364800  1
  C  256  1  0.08362400  0.00623500  0.51329700  1
  C  257  1  0.11778100  0.00734100  0.53500600  1
  C  258  1  0.11450400  0.00799200  0.57470700  1
  C  259  1  0.07906300  0.00716800  0.59231900  1
  C  272  1  0.00939600  0.00575900  0.50806800  1
  C  273  1  0.00962700  0.00526300  0.59250300  1
  C  276  1  0.00951400  0.00549600  0.42363600  1
  C  283  1  0.00853300  0.49889000  0.21795200  1
  C  284  1  0.98349700  0.47960300  0.24293500  1
  C  285  1  0.98645600  0.48330100  0.28315500  1
  C  286  1  0.01485900  0.50623800  0.30033400  1
  C  287  1  0.03948400  0.52556700  0.27508500  1
  C  288  1  0.03630100  0.52222900  0.23522200  1
  C  290  1  0.93333400  0.44082600  0.29071600  1
  C  291  1  0.93025400  0.43742300  0.25075400  1
  C  295  1  0.90840800  0.42182000  0.31878700  1
  C  296  1  0.87126000  0.44394000  0.32576900  1
  C  302  1  0.90306900  0.41259300  0.23040100  1
  C  303  1  0.92042300  0.37341600  0.22145100  1
  C  309  1  0.00652400  0.49449700  0.17814300  1
  C  311  1  0.02023500  0.50965800  0.34004300  1
  C  313  1  0.00876600  0.50470200  0.80222700  1
  C  314  1  0.02975100  0.48469500  0.77418700  1
  C  315  1  0.02388100  0.49080200  0.73451700  1
  C  316  1  0.99685600  0.51744000  0.72104300  1
  C  317  1  0.97662300  0.53766700  0.74944300  1
  C  318  1  0.98227900  0.53155700  0.78856000  1
  C  320  1  0.07164300  0.44409600  0.72038500  1
  C  321  1  0.07805800  0.43861600  0.75973200  1
  C  325  1  0.09250600  0.42482900  0.68935800  1
  C  326  1  0.12706900  0.44815700  0.67604800  1
  C  332  1  0.10598500  0.41195000  0.77640900  1
  C  333  1  0.08873900  0.37229100  0.78313300  1
  C  339  1  0.01304400  0.49819300  0.84158200  1
  C  341  1  0.98653200  0.52322000  0.68259100  1
  C  343  1  0.21659200  0.00648500  0.49940000  1
  C  344  1  0.24168100  0.98186200  0.47973600  1
  C  345  1  0.28188700  0.98511300  0.48329300  1
  C  346  1  0.29892500  0.01341900  0.50645600  1
  C  347  1  0.27357000  0.03764400  0.52614500  1
  C  348  1  0.23372500  0.03416400  0.52294600  1
  C  350  1  0.28967600  0.93248400  0.44023600  1
  C  351  1  0.24972500  0.92913700  0.43695200  1
  C  355  1  0.31786000  0.90810200  0.42070300  1
  C  356  1  0.32516600  0.87059700  0.44210700  1
  C  362  1  0.22943200  0.90197300  0.41204600  1
  C  363  1  0.21892600  0.91998100  0.37355800  1
  C  369  1  0.17679500  0.00420100  0.49516300  1
  C  371  1  0.33859500  0.01907000  0.50980300  1
  C  373  1  0.80111900  0.00802900  0.50413200  1
  C  374  1  0.77324900  0.02936000  0.48425600  1
  C  375  1  0.73353400  0.02383600  0.49038600  1
  C  376  1  0.71984100  0.99684100  0.51694400  1
  C  377  1  0.74808000  0.97627100  0.53705500  1
  C  378  1  0.78723900  0.98157900  0.53091100  1
  C  380  1  0.71980400  0.07191500  0.44388100  1
  C  381  1  0.75920500  0.07796500  0.43836300  1
  C  385  1  0.68897600  0.09318600  0.42475000  1
  C  386  1  0.67631400  0.12799500  0.44806900  1
  C  392  1  0.77611700  0.10577900  0.41172900  1
  C  393  1  0.78253200  0.08857900  0.37199700  1
  C  399  1  0.84050600  0.01194700  0.49756600  1
  C  401  1  0.68132200  0.98672200  0.52262000  1
  C  403  1  0.49887000  0.21640100  0.00850100  1
  C  404  1  0.47950700  0.24141000  0.98355400  1
  C  405  1  0.48323600  0.28162500  0.98653800  1
  C  406  1  0.50627500  0.29876400  0.01488700  1
  C  407  1  0.52568300  0.27348100  0.03941700  1
  C  408  1  0.52231400  0.23362700  0.03620500  1
  C  410  1  0.44060500  0.28923400  0.93353800  1
  C  411  1  0.43715900  0.24927600  0.93045500  1
  C  415  1  0.42154800  0.31732200  0.90867200  1
  C  416  1  0.44350700  0.32421700  0.87141100  1
  C  422  1  0.41221600  0.22894400  0.90335600  1
  C  423  1  0.37312200  0.21995300  0.92087400  1
  C  429  1  0.49448000  0.17660000  0.00645900  1
  C  431  1  0.50975200  0.33845900  0.02031700  1
  C  433  1  0.50462800  0.80079600  0.00955600  1
  C  434  1  0.48454800  0.77286900  0.03061700  1
  C  435  1  0.49063500  0.73316800  0.02493800  1
  C  436  1  0.51734900  0.71956100  0.99805400  1
  C  437  1  0.53767300  0.74785000  0.97776700  1
  C  438  1  0.53156300  0.78699300  0.98322200  1
  C  440  1  0.44374200  0.71929100  0.07259400  1
  C  441  1  0.43830100  0.75866900  0.07884100  1
  C  445  1  0.42431400  0.68838300  0.09348000  1
  C  446  1  0.44729500  0.67535700  0.12838000  1
  C  452  1  0.41155300  0.77549900  0.10659700  1
  C  453  1  0.37206500  0.78251000  0.08907600  1
  C  459  1  0.49811300  0.84017100  0.01360900  1
  C  461  1  0.52300500  0.68107800  0.98779300  1
  C  463  1  0.49955600  0.99713300  0.79797400  1
  C  464  1  0.48251100  0.97678400  0.76746000  1
  C  465  1  0.49060400  0.98542400  0.72879000  1
  C  466  1  0.51625500  0.01475700  0.71887800  1
  C  467  1  0.53348400  0.03443500  0.74954500  1
  C  468  1  0.52539400  0.02603500  0.78782900  1
  C  470  1  0.44681400  0.93694400  0.70856600  1
  C  471  1  0.43888800  0.92803800  0.74695200  1
  C  475  1  0.42995600  0.91779400  0.67513300  1
  C  476  1  0.45292300  0.88248800  0.66320000  1
  C  482  1  0.41141400  0.89907900  0.76022200  1
  C  483  1  0.37190600  0.91634300  0.76778600  1
  C  489  1  0.48832500  0.99108900  0.83594300  1
  C  491  1  0.52320300  0.02741800  0.68150000  1
  C  493  1  0.49339200  0.02055200  0.21921100  1
  C  494  1  0.47670700  0.04433100  0.24729900  1
  C  495  1  0.48255000  0.03805800  0.28673400  1
  C  496  1  0.50526600  0.00750800  0.29999400  1
  C  497  1  0.52192500  0.98409000  0.27186200  1
  C  498  1  0.51621000  0.99038900  0.23265000  1
  C  500  1  0.44163900  0.09121000  0.30127200  1
  C  501  1  0.43530000  0.09711500  0.26203500  1
  C  505  1  0.42480100  0.11392000  0.33244600  1
  C  506  1  0.44511600  0.15230900  0.33823000  1
  C  512  1  0.40943100  0.12566600  0.24505800  1
  C  513  1  0.37356900  0.10721700  0.22796600  1
  C  519  1  0.48347100  0.02464900  0.18061600  1
  C  521  1  0.51035200  0.99908600  0.33883000  1
  C  523  1  0.00852300  0.21407500  0.51197000  1
  C  524  1  0.98735700  0.24209200  0.53181000  1
  C  525  1  0.99313800  0.28177000  0.52566000  1
  C  526  1  0.02025200  0.29528100  0.49913100  1
  C  527  1  0.04069700  0.26689500  0.47909300  1
  C  528  1  0.03510700  0.22777000  0.48522800  1
  C  530  1  0.94505400  0.29583600  0.57205800  1
  C  531  1  0.93877200  0.25647800  0.57761700  1
  C  535  1  0.92392900  0.32682100  0.59109800  1
  C  536  1  0.88940500  0.33983600  0.56754600  1
  C  542  1  0.91079100  0.23976600  0.60420700  1
  C  543  1  0.92780000  0.23346700  0.64403800  1
  C  549  1  0.00431700  0.17471700  0.51853300  1
  C  551  1  0.03052800  0.33374900  0.49335000  1
  C  553  1  0.00917700  0.79843600  0.51666600  1
  C  554  1  0.03396400  0.77341100  0.53621600  1
  C  555  1  0.03080500  0.73319400  0.53268800  1
  C  556  1  0.00244400  0.71606400  0.50966400  1
  C  557  1  0.97806500  0.74134900  0.49007400  1
  C  558  1  0.98143700  0.78120900  0.49325600  1
  C  560  1  0.08362100  0.72554000  0.57552600  1
  C  561  1  0.08692000  0.76550200  0.57874000  1
  C  565  1  0.10813100  0.69741500  0.59498300  1
  C  566  1  0.14550200  0.69007200  0.57336100  1
  C  572  1  0.11414300  0.78586200  0.60352400  1
  C  573  1  0.09631700  0.79623400  0.64213400  1
  C  579  1  0.01136500  0.83824700  0.52091400  1
  C  581  1  0.99693200  0.67637100  0.50634800  1
  C  583  1  0.21945600  0.49341800  0.02174600  1
  C  584  1  0.24759600  0.47661100  0.04537800  1
  C  585  1  0.28701800  0.48247900  0.03905200  1
  C  586  1  0.30022000  0.50532500  0.00857700  1
  C  587  1  0.27204300  0.52206400  0.98526800  1
  C  588  1  0.23284100  0.51636300  0.99165000  1
  C  590  1  0.30167100  0.44136400  0.09201100  1
  C  591  1  0.26244900  0.43497700  0.09795000  1
  C  595  1  0.33289400  0.42442700  0.11457900  1
  C  596  1  0.33881900  0.44462600  0.15300700  1
  C  602  1  0.24554900  0.40899100  0.12644100  1
  C  603  1  0.22871100  0.37305900  0.10790400  1
  C  609  1  0.18085500  0.48353600  0.02589700  1
  C  611  1  0.33904300  0.51040900  0.00008600  1
  C  613  1  0.79823700  0.49953600  0.99838600  1
  C  614  1  0.76777700  0.48259800  0.97786700  1
  C  615  1  0.72908500  0.49065200  0.98644700  1
  C  616  1  0.71909900  0.51617900  0.01586500  1
  C  617  1  0.74971500  0.53332800  0.03568700  1
  C  618  1  0.78801900  0.52524700  0.02737500  1
  C  620  1  0.70898800  0.44708000  0.93772100  1
  C  621  1  0.74739700  0.43920200  0.92886500  1
  C  625  1  0.67560600  0.43030100  0.91840300  1
  C  626  1  0.66386300  0.45332800  0.88307400  1
  C  632  1  0.76074400  0.41179100  0.89988400  1
  C  633  1  0.76831000  0.37225700  0.91708500  1
  C  639  1  0.83621500  0.48831400  0.99239800  1
  C  641  1  0.68169300  0.52305900  0.02847800  1
  N  44  1  0.01960000  0.36370200  0.51186600  1
  N  45  1  0.99303300  0.50645900  0.36417800  1
  N  46  1  0.99743700  0.50471900  0.65262400  1
  N  47  1  0.02407500  0.65217100  0.50955900  1
  N  91  1  0.50754700  0.02465100  0.36464600  1
  N  92  1  0.36290000  0.99207200  0.50625800  1
  N  93  1  0.65142600  0.99791800  0.50417200  1
  N  94  1  0.50527400  0.01746200  0.65093800  1
  N  138  1  0.36490100  0.50756700  0.02560400  1
  N  139  1  0.50622100  0.36266200  0.99322000  1
  N  140  1  0.50461400  0.65114500  0.99897200  1
  N  141  1  0.65119000  0.50503000  0.01852700  1
  N  185  1  0.52462300  0.86472000  0.00846700  1
  N  186  1  0.49797200  0.01090800  0.86542000  1
  N  187  1  0.49528000  0.00505100  0.15179900  1
  N  188  1  0.52259700  0.15373900  0.01065600  1
  N  232  1  0.00810000  0.52470500  0.86617100  1
  N  233  1  0.86563500  0.49794600  0.01229800  1
  N  234  1  0.15201600  0.49533100  0.00632300  1
  N  235  1  0.01083200  0.52257700  0.15525600  1
  N  279  1  0.86509700  0.00647100  0.52396300  1
  N  280  1  0.00734600  0.86104800  0.49271800  1
  N  281  1  0.00947500  0.15007900  0.49211100  1
  N  282  1  0.15404600  0.00796700  0.52342700  1
  N  289  1  0.96124400  0.46349600  0.30448200  1
  N  292  1  0.95567300  0.45676000  0.22922100  1
  N  319  1  0.04513600  0.47006500  0.71005600  1
  N  322  1  0.05656200  0.45900700  0.78433200  1
  N  349  1  0.30332300  0.96028300  0.46311900  1
  N  352  1  0.22808400  0.95416800  0.45666900  1
  N  379  1  0.70925100  0.04540100  0.46975300  1
  N  382  1  0.78362100  0.05615700  0.45864500  1
  N  409  1  0.46336600  0.30297200  0.96139100  1
  N  412  1  0.45656700  0.22772200  0.95580000  1
  N  439  1  0.46978100  0.70882100  0.04621000  1
  N  442  1  0.45878100  0.78315600  0.05729900  1
  N  469  1  0.47225000  0.96503000  0.70177300  1
  N  472  1  0.45694400  0.94866800  0.77397200  1
  N  499  1  0.46452800  0.06186700  0.31111600  1
  N  502  1  0.45319500  0.07334500  0.23762500  1
  N  529  1  0.97167500  0.30620200  0.54621900  1
  N  532  1  0.96045300  0.23191000  0.55738700  1
  N  559  1  0.05575700  0.71182200  0.55277100  1
  N  562  1  0.06173900  0.78708100  0.55914400  1
  N  589  1  0.31145000  0.46437400  0.06274200  1
  N  592  1  0.23798400  0.45297100  0.07431100  1
  N  619  1  0.70212200  0.47238800  0.96590200  1
  N  622  1  0.77436000  0.45715100  0.94965900  1
