# generated using pymatgen
data_H22C41N10
_symmetry_space_group_name_H-M   'P 1'
_cell_length_a   17.51110000
_cell_length_b   17.51105000
_cell_length_c   35.02220000
_cell_angle_alpha   89.99840000
_cell_angle_beta   90.00160000
_cell_angle_gamma   90.00000000
_symmetry_Int_Tables_number   1
_chemical_formula_structural   H22C41N10
_chemical_formula_sum   'H88 C164 N40'
_cell_volume   10739.12851755
_cell_formula_units_Z   4
loop_
 _symmetry_equiv_pos_site_id
 _symmetry_equiv_pos_as_xyz
  1  'x, y, z'
loop_
 _atom_site_type_symbol
 _atom_site_label
 _atom_site_symmetry_multiplicity
 _atom_site_fract_x
 _atom_site_fract_y
 _atom_site_fract_z
 _atom_site_occupancy
  C  1  1  0.98329200  0.03757200  0.97370100  1
  C  2  1  0.90234100  0.04192800  0.97448900  1
  C  3  1  0.90090400  0.04137000  0.04638600  1
  C  4  1  0.98178000  0.03645800  0.04798200  1
  C  5  1  0.01627100  0.03532700  0.08513500  1
  C  6  1  0.97269800  0.03872600  0.11938100  1
  C  7  1  0.89277600  0.04718900  0.11580400  1
  C  8  1  0.85731700  0.04680200  0.08011600  1
  C  9  1  0.86008100  0.04771500  0.94034800  1
  C  10  1  0.89696000  0.04928800  0.90502700  1
  C  11  1  0.97713000  0.04198900  0.90222900  1
  C  12  1  0.01927000  0.03776300  0.93691300  1
  C  13  1  0.07471100  0.10971100  0.01177300  1
  C  14  1  0.15563700  0.10628400  0.01318600  1
  C  15  1  0.15404100  0.96204000  0.01137300  1
  C  16  1  0.07290600  0.96039600  0.01100400  1
  C  17  1  0.19665000  0.89361500  0.01082300  1
  C  18  1  0.16018600  0.82264800  0.01011900  1
  C  19  1  0.08006700  0.81738500  0.01021800  1
  C  20  1  0.03709800  0.88652800  0.01058400  1
  C  21  1  0.04046800  0.18433600  0.01172700  1
  C  22  1  0.08407400  0.25302500  0.01267600  1
  C  23  1  0.16414400  0.24539400  0.01592700  1
  C  24  1  0.19937400  0.17377700  0.01551500  1
  C  37  1  0.02825900  0.03562500  0.01107400  1
  C  38  1  0.19854000  0.03366800  0.01276200  1
  C  41  1  0.85781600  0.04365700  0.01022200  1
  C  48  1  0.03558300  0.98896400  0.47165000  1
  C  49  1  0.04123500  0.90803900  0.47195800  1
  C  50  1  0.04455100  0.90556900  0.54392700  1
  C  51  1  0.03859100  0.98632900  0.54580000  1
  C  52  1  0.03893700  0.02057900  0.58297100  1
  C  53  1  0.04444300  0.97702000  0.61711800  1
  C  54  1  0.05297900  0.89711900  0.61336000  1
  C  55  1  0.05172700  0.86188300  0.57756600  1
  C  56  1  0.04290700  0.86642000  0.43746000  1
  C  57  1  0.03917800  0.90390000  0.40228800  1
  C  58  1  0.03458100  0.98416100  0.40034700  1
  C  59  1  0.03133700  0.02571800  0.43515000  1
  C  60  1  0.96057200  0.07811500  0.51043100  1
  C  61  1  0.96264300  0.15911900  0.51212200  1
  C  62  1  0.10688200  0.16053100  0.50960600  1
  C  63  1  0.10996700  0.07951400  0.50886900  1
  C  64  1  0.17459000  0.20428500  0.50904600  1
  C  65  1  0.24619500  0.16900600  0.50811800  1
  C  66  1  0.25282500  0.08898600  0.50797000  1
  C  67  1  0.18445100  0.04497500  0.50820100  1
  C  68  1  0.88651900  0.04262300  0.51039100  1
  C  69  1  0.81708300  0.08522400  0.51158200  1
  C  70  1  0.82352800  0.16532200  0.51530200  1
  C  71  1  0.89450900  0.20170000  0.51488300  1
  C  84  1  0.03570600  0.03332700  0.50914600  1
  C  85  1  0.03440900  0.20350300  0.51149600  1
  C  88  1  0.04605300  0.86304600  0.50752700  1
  C  95  1  0.01396600  0.02576600  0.79968800  1
  C  97  1  0.97428600  0.06096300  0.73606800  1
  C  98  1  0.03002200  0.01291900  0.71975600  1
  C  100  1  0.07175000  0.97931800  0.78338400  1
  C  102  1  0.11537400  0.93427900  0.80332600  1
  C  104  1  0.98491200  0.01521200  0.83618500  1
  C  106  1  0.02059800  0.98237500  0.68365300  1
  C  108  1  0.04911900  0.02443400  0.29927100  1
  C  110  1  0.95085000  0.00237200  0.25275800  1
  C  111  1  0.00201600  0.01582300  0.22218800  1
  C  113  1  0.10033500  0.03999900  0.26864900  1
  C  115  1  0.17209100  0.05643800  0.27358800  1
  C  117  1  0.07117100  0.00995500  0.33690400  1
  C  119  1  0.97762400  0.00586000  0.18465100  1
  C  121  1  0.01516000  0.61702500  0.00907900  1
  C  123  1  0.10845800  0.51994100  0.99456500  1
  C  124  1  0.05559500  0.46022200  0.00125500  1
  C  126  1  0.96191000  0.55701800  0.01611700  1
  C  128  1  0.89150700  0.56885400  0.02626600  1
  C  130  1  0.00044800  0.69609700  0.01168700  1
  C  132  1  0.07819100  0.38418500  0.99598400  1
  C  134  1  0.45220000  0.02129900  0.50706500  1
  C  136  1  0.55160800  0.11185400  0.49220900  1
  C  137  1  0.61001900  0.05769300  0.49922700  1
  C  139  1  0.51083400  0.96671800  0.51443700  1
  C  141  1  0.49715200  0.89684500  0.52492500  1
  C  143  1  0.37277100  0.00876600  0.50966300  1
  C  145  1  0.68658300  0.07859900  0.49395000  1
  C  585  1  0.49725200  0.49442600  0.11646800  1
  C  586  1  0.41630100  0.49878200  0.11725600  1
  C  587  1  0.41486400  0.49822400  0.18915300  1
  C  588  1  0.49574000  0.49331200  0.19074900  1
  C  589  1  0.53023100  0.49218100  0.22790200  1
  C  590  1  0.48665800  0.49558000  0.26214800  1
  C  591  1  0.40673600  0.50404300  0.25857100  1
  C  592  1  0.37127700  0.50365600  0.22288300  1
  C  593  1  0.37404100  0.50456900  0.08311460  1
  C  594  1  0.41092000  0.50614200  0.04779360  1
  C  595  1  0.49109000  0.49884300  0.04499560  1
  C  596  1  0.53323000  0.49461700  0.07967960  1
  C  597  1  0.58867100  0.56656500  0.15454000  1
  C  598  1  0.66959700  0.56313800  0.15595300  1
  C  599  1  0.66800100  0.41889400  0.15414000  1
  C  600  1  0.58686600  0.41725000  0.15377100  1
  C  601  1  0.71061000  0.35046900  0.15359000  1
  C  602  1  0.67414600  0.27950200  0.15288600  1
  C  603  1  0.59402700  0.27423900  0.15298500  1
  C  604  1  0.55105800  0.34338200  0.15335100  1
  C  605  1  0.55442800  0.64119000  0.15449400  1
  C  606  1  0.59803400  0.70987900  0.15544300  1
  C  607  1  0.67810400  0.70224800  0.15869400  1
  C  608  1  0.71333400  0.63063100  0.15828200  1
  C  621  1  0.54221900  0.49247900  0.15384100  1
  C  622  1  0.71250000  0.49052200  0.15552900  1
  C  625  1  0.37177600  0.50051100  0.15298900  1
  C  632  1  0.54954300  0.44581800  0.61441700  1
  C  633  1  0.55519500  0.36489300  0.61472500  1
  C  634  1  0.55851100  0.36242300  0.68669400  1
  C  635  1  0.55255100  0.44318300  0.68856700  1
  C  636  1  0.55289700  0.47743300  0.72573800  1
  C  637  1  0.55840300  0.43387400  0.75988500  1
  C  638  1  0.56693900  0.35397300  0.75612700  1
  C  639  1  0.56568700  0.31873700  0.72033300  1
  C  640  1  0.55686700  0.32327400  0.58022700  1
  C  641  1  0.55313800  0.36075400  0.54505500  1
  C  642  1  0.54854100  0.44101500  0.54311400  1
  C  643  1  0.54529700  0.48257200  0.57791700  1
  C  644  1  0.47453200  0.53496900  0.65319800  1
  C  645  1  0.47660300  0.61597300  0.65488900  1
  C  646  1  0.62084200  0.61738500  0.65237300  1
  C  647  1  0.62392700  0.53636800  0.65163600  1
  C  648  1  0.68855000  0.66113900  0.65181300  1
  C  649  1  0.76015500  0.62586000  0.65088500  1
  C  650  1  0.76678500  0.54584000  0.65073700  1
  C  651  1  0.69841100  0.50182900  0.65096800  1
  C  652  1  0.40047900  0.49947700  0.65315800  1
  C  653  1  0.33104300  0.54207800  0.65434900  1
  C  654  1  0.33748800  0.62217600  0.65806900  1
  C  655  1  0.40846900  0.65855400  0.65765000  1
  C  668  1  0.54966600  0.49018100  0.65191300  1
  C  669  1  0.54836900  0.66035700  0.65426300  1
  C  672  1  0.56001300  0.31990000  0.65029400  1
  C  679  1  0.52792600  0.48262000  0.94245500  1
  C  681  1  0.48824600  0.51781700  0.87883500  1
  C  682  1  0.54398200  0.46977300  0.86252300  1
  C  684  1  0.58571000  0.43617200  0.92615100  1
  C  686  1  0.62933400  0.39113300  0.94609300  1
  C  688  1  0.49887200  0.47206600  0.97895200  1
  C  690  1  0.53455800  0.43922900  0.82642000  1
  C  692  1  0.56307900  0.48128800  0.44203800  1
  C  694  1  0.46481000  0.45922600  0.39552500  1
  C  695  1  0.51597600  0.47267700  0.36495500  1
  C  697  1  0.61429500  0.49685300  0.41141600  1
  C  699  1  0.68605100  0.51329200  0.41635500  1
  C  701  1  0.58513100  0.46680900  0.47967100  1
  C  703  1  0.49158400  0.46271400  0.32741800  1
  C  705  1  0.52912000  0.07387920  0.15184600  1
  C  707  1  0.62241800  0.97679500  0.13733200  1
  C  708  1  0.56955500  0.91707600  0.14402200  1
  C  710  1  0.47587000  0.01387219  0.15888400  1
  C  712  1  0.40546700  0.02570820  0.16903300  1
  C  714  1  0.51440800  0.15295120  0.15445400  1
  C  716  1  0.59215100  0.84103900  0.13875100  1
  C  718  1  0.96616000  0.47815300  0.64983200  1
  C  720  1  0.06556790  0.56870800  0.63497600  1
  C  721  1  0.12397890  0.51454700  0.64199400  1
  C  723  1  0.02479390  0.42357200  0.65720400  1
  C  725  1  0.01111186  0.35369900  0.66769200  1
  C  727  1  0.88673100  0.46562000  0.65243000  1
  C  729  1  0.20054300  0.53545300  0.63671700  1
  H  25  1  0.19823300  0.29252100  0.01861100  1
  H  26  1  0.25765000  0.17135100  0.01734500  1
  H  27  1  0.25508700  0.89483500  0.01105400  1
  H  28  1  0.19336700  0.77444400  0.00983400  1
  H  29  1  0.97886400  0.88298200  0.01043500  1
  H  30  1  0.98232300  0.18882300  0.01078800  1
  H  31  1  0.07438800  0.03221100  0.08731500  1
  H  32  1  0.85900700  0.05377300  0.13940100  1
  H  33  1  0.79917600  0.05227900  0.07897800  1
  H  34  1  0.07749700  0.03517900  0.93534500  1
  H  35  1  0.80186600  0.05275100  0.94093000  1
  H  36  1  0.86403800  0.05644800  0.88118500  1
  H  39  1  0.23634100  0.03466400  0.98786100  1
  H  40  1  0.23399400  0.03186000  0.03849000  1
  H  42  1  0.81866600  0.99488200  0.00993900  1
  H  43  1  0.82382000  0.09611400  0.01014500  1
  H  72  1  0.77589600  0.19866500  0.51818300  1
  H  73  1  0.89597700  0.25998800  0.51691900  1
  H  74  1  0.17236800  0.26267700  0.50953800  1
  H  75  1  0.29385000  0.20294400  0.50792100  1
  H  76  1  0.18908900  0.98683100  0.50787300  1
  H  77  1  0.88307000  0.98442900  0.50914600  1
  H  78  1  0.03545700  0.07867400  0.58523000  1
  H  79  1  0.06102600  0.86326200  0.63678800  1
  H  80  1  0.05782000  0.80382500  0.57625200  1
  H  81  1  0.02629500  0.08380600  0.43384800  1
  H  82  1  0.04632400  0.80808500  0.43764300  1
  H  83  1  0.03883300  0.87166600  0.37790700  1
  H  86  1  0.03222100  0.24163000  0.48673800  1
  H  87  1  0.03602600  0.23862300  0.53734000  1
  H  89  1  0.09928700  0.83027800  0.50656500  1
  H  90  1  0.99825800  0.82278000  0.50779600  1
  H  101  1  0.93331000  0.08639300  0.71961300  1
  H  105  1  0.93687400  0.98487600  0.83718400  1
  H  107  1  0.99292200  0.93275800  0.68304500  1
  H  114  1  0.89540800  0.98664000  0.24806000  1
  H  118  1  0.12035800  0.98231800  0.34055900  1
  H  120  1  0.93178400  0.97280300  0.18125200  1
  H  127  1  0.16351300  0.50895800  0.98653000  1
  H  131  1  0.94763600  0.71506700  0.01552400  1
  H  133  1  0.12263000  0.37666000  0.97860900  1
  H  140  1  0.56394500  0.16647700  0.48392500  1
  H  144  1  0.35237900  0.95657300  0.51380900  1
  H  146  1  0.69500500  0.12222600  0.47615600  1
  H  609  1  0.71219300  0.74937500  0.16137800  1
  H  610  1  0.77161000  0.62820500  0.16011200  1
  H  611  1  0.76904700  0.35168900  0.15382100  1
  H  612  1  0.70732700  0.23129800  0.15260100  1
  H  613  1  0.49282400  0.33983600  0.15320200  1
  H  614  1  0.49628300  0.64567700  0.15355500  1
  H  615  1  0.58834800  0.48906500  0.23008200  1
  H  616  1  0.37296700  0.51062700  0.28216800  1
  H  617  1  0.31313600  0.50913300  0.22174500  1
  H  618  1  0.59145700  0.49203300  0.07811160  1
  H  619  1  0.31582600  0.50960500  0.08369660  1
  H  620  1  0.37799800  0.51330200  0.02395160  1
  H  623  1  0.75030100  0.49151800  0.13062800  1
  H  624  1  0.74795400  0.48871400  0.18125700  1
  H  626  1  0.33262600  0.45173600  0.15270600  1
  H  627  1  0.33778000  0.55296800  0.15291200  1
  H  656  1  0.28985600  0.65551900  0.66095000  1
  H  657  1  0.40993700  0.71684200  0.65968600  1
  H  658  1  0.68632800  0.71953100  0.65230500  1
  H  659  1  0.80781000  0.65979800  0.65068800  1
  H  660  1  0.70304900  0.44368500  0.65064000  1
  H  661  1  0.39703000  0.44128300  0.65191300  1
  H  662  1  0.54941700  0.53552800  0.72799700  1
  H  663  1  0.57498600  0.32011600  0.77955500  1
  H  664  1  0.57178000  0.26067900  0.71901900  1
  H  665  1  0.54025500  0.54066000  0.57661500  1
  H  666  1  0.56028400  0.26493900  0.58041000  1
  H  667  1  0.55279300  0.32852000  0.52067400  1
  H  670  1  0.54618100  0.69848400  0.62950500  1
  H  671  1  0.54998600  0.69547700  0.68010700  1
  H  673  1  0.61324700  0.28713200  0.64933200  1
  H  674  1  0.51221800  0.27963400  0.65056300  1
  H  685  1  0.44727000  0.54324700  0.86238000  1
  H  689  1  0.45083400  0.44173000  0.97995100  1
  H  691  1  0.50688200  0.38961200  0.82581200  1
  H  698  1  0.40936800  0.44349400  0.39082700  1
  H  702  1  0.63431800  0.43917200  0.48332600  1
  H  704  1  0.44574400  0.42965700  0.32401900  1
  H  711  1  0.67747300  0.96581200  0.12929700  1
  H  715  1  0.46159600  0.17192120  0.15829100  1
  H  717  1  0.63659000  0.83351400  0.12137600  1
  H  724  1  0.07790490  0.62333100  0.62669200  1
  H  728  1  0.86633900  0.41342700  0.65657600  1
  H  730  1  0.20896500  0.57908000  0.61892300  1
  N  44  1  0.05501200  0.74522500  0.00979400  1
  N  45  1  0.01059000  0.04520500  0.86745100  1
  N  46  1  0.00387400  0.04056900  0.15472100  1
  N  47  1  0.05335400  0.32428500  0.01396900  1
  N  91  1  0.32526400  0.06472200  0.50747600  1
  N  92  1  0.02472000  0.01469300  0.36553700  1
  N  93  1  0.04738000  0.00980000  0.65205300  1
  N  94  1  0.74580900  0.05431700  0.51271000  1
  N  96  1  0.96715200  0.06293600  0.77473300  1
  N  99  1  0.07472900  0.97298900  0.74461700  1
  N  103  1  0.15361300  0.89471200  0.82116000  1
  N  109  1  0.97650700  0.00543500  0.28926800  1
  N  112  1  0.07489200  0.03481900  0.23186600  1
  N  116  1  0.23538300  0.07100600  0.27810700  1
  N  122  1  0.08646600  0.59385200  0.99865100  1
  N  125  1  0.98413600  0.48247100  0.01196800  1
  N  129  1  0.82927000  0.57934800  0.03515500  1
  N  135  1  0.47717400  0.09178100  0.49631400  1
  N  138  1  0.58594700  0.98702000  0.51028000  1
  N  142  1  0.48502300  0.83507400  0.53410500  1
  N  628  1  0.56897200  0.20207900  0.15256100  1
  N  629  1  0.52455000  0.50205900  0.01021760  1
  N  630  1  0.51783400  0.49742300  0.29748800  1
  N  631  1  0.56731400  0.78113900  0.15673600  1
  N  675  1  0.83922400  0.52157600  0.65024300  1
  N  676  1  0.53868000  0.47154700  0.50830400  1
  N  677  1  0.56134000  0.46665400  0.79482000  1
  N  678  1  0.25976900  0.51117100  0.65547700  1
  N  680  1  0.48111200  0.51979000  0.91750000  1
  N  683  1  0.58868900  0.42984300  0.88738400  1
  N  687  1  0.66757300  0.35156600  0.96392700  1
  N  693  1  0.49046700  0.46228900  0.43203500  1
  N  696  1  0.58885200  0.49167300  0.37463300  1
  N  700  1  0.74934300  0.52786000  0.42087400  1
  N  706  1  0.60042600  0.05070620  0.14141800  1
  N  709  1  0.49809600  0.93932500  0.15473500  1
  N  713  1  0.34323000  0.03620220  0.17792200  1
  N  719  1  0.99113400  0.54863500  0.63908100  1
  N  722  1  0.09990690  0.44387400  0.65304700  1
  N  726  1  0.99898300  0.29192800  0.67687200  1
