data_image0
_chemical_formula_structural       O6CDyO2C3O6CDyO2C3O6CDyO2C3O6CDyO2C6NC3F2CF2CH5C3NC3F2CF2CH5C3NC3F2CF2CH4C3NC3F2CF2CH5C3NC3F2CF2CH5C3NC3F2CF2CH5C3NC3F2CF2CH5C3NC3F2CF2CH5
_chemical_formula_sum              "O32 C80 Dy4 N8 F32 H39"
_cell_length_a       28.3873
_cell_length_b       12.3217
_cell_length_c       12.7878
_cell_angle_alpha    75.24079999999998
_cell_angle_beta     103.9278
_cell_angle_gamma    95.9391

_symmetry_space_group_name_H-M    'P 1'
_symmetry_Int_Tables_number       1

loop_
  _symmetry_equiv_pos_as_xyz
  'x,y,z'

loop_
  _atom_site_type_symbol
  _atom_site_label
  _atom_site_symmetry_multiplicity
  _atom_site_fract_x
  _atom_site_fract_y
  _atom_site_fract_z
  _atom_site_occupancy
  O   O1        1.0  0.34968  0.7825200000000002  0.00945  1.0000
  O   O2        1.0  0.37499  0.9398600000000001  0.91064  1.0000
  O   O3        1.0  0.45095  0.7804099999999999  0.21627000000000002  1.0000
  O   O4        1.0  0.43975  0.9251600000000001  0.27147000000000004  1.0000
  O   O5        1.0  0.32861000000000007  0.9904  0.09451  1.0000
  O   O6        1.0  0.39569  0.02676999999999996  0.19952000000000006  1.0000
  C   C1        1.0  0.33460999999999996  0.66214  0.26066000000000006  1.0000
  Dy  Dy1       1.0  0.38514000000000004  0.8705100000000002  0.13842  1.0000
  O   O7        1.0  0.34723  0.77196  0.26936  1.0000
  O   O8        1.0  0.36264  0.58882  0.31259000000000003  1.0000
  C   C2        1.0  0.35237  0.8446  0.91426  1.0000
  C   C3        1.0  0.4668900000000001  0.84459  0.28234000000000004  1.0000
  C   C4        1.0  0.35414000000000007  0.06173000000000029  0.14383  1.0000
  O   O9        1.0  0.97012  0.6115800000000001  0.59019  1.0000
  O   O10       1.0  0.99525  0.47480000000000006  0.53911  1.0000
  O   O11       1.0  0.9684999999999999  0.8259600000000002  0.6973000000000003  1.0000
  O   O12       1.0  0.9657500000000002  0.6675200000000001  0.8008300000000002  1.0000
  O   O13       1.0  0.85925  0.7141300000000003  0.7238700000000002  1.0000
  O   O14       1.0  0.91137  0.5906000000000002  0.80177  1.0000
  C   C5        1.0  0.85707  0.9058600000000001  0.56255  1.0000
  Dy  Dy2       1.0  0.91534  0.6959  0.63476  1.0000
  O   O15       1.0  0.85938  0.80834  0.64814  1.0000
  O   O16       1.0  0.89101  0.9328900000000001  0.51631  1.0000
  C   C6        1.0  0.963  0.51307  0.57202  1.0000
  C   C7        1.0  0.98455  0.7648800000000002  0.79184  1.0000
  C   C8        1.0  0.8735599999999999  0.6333  0.8078800000000002  1.0000
  O   O17       1.0  0.04584  0.09487000000000001  0.3992  1.0000
  O   O18       1.0  0.06994000000000002  0.13627999999999998  0.5626400000000001  1.0000
  O   O19       1.0  0.10268  0.05118000000000001  0.22947  1.0000
  O   O20       1.0  0.04664000000000001  0.06285999999999999  0.30822000000000005  1.0000
  O   O21       1.0  0.1414  0.17629000000000009  0.26761  1.0000
  O   O22       1.0  0.13270000000000004  0.23580000000000004  0.39863  1.0000
  C   C9        1.0  0.22785  0.96619  0.4414300000000001  1.0000
  Dy  Dy3       1.0  0.12177  0.05111000000000003  0.41206  1.0000
  O   O23       1.0  0.20257  0.029900000000000024  0.48346  1.0000
  O   O24       1.0  0.25773  0.90212  0.50412  1.0000
  C   C10       1.0  0.03660000000000001  0.13263  0.4767400000000001  1.0000
  C   C11       1.0  0.05702  0.05963  0.21726000000000004  1.0000
  C   C12       1.0  0.14233  0.26124  0.30488  1.0000
  O   O25       1.0  0.53225  0.17150999999999994  0.7694100000000003  1.0000
  O   O26       1.0  0.5448399999999999  0.9955799999999999  0.7823000000000001  1.0000
  O   O27       1.0  0.59704  0.39395  0.75816  1.0000
  O   O28       1.0  0.60306  0.30651  0.64409  1.0000
  O   O29       1.0  0.68791  0.20289  0.8232  1.0000
  O   O30       1.0  0.63523  0.1835500000000001  0.6796  1.0000
  C   C13       1.0  0.6953200000000002  0.3894800000000001  0.8865600000000001  1.0000
  Dy  Dy4       1.0  0.61025  0.21236000000000002  0.8221100000000001  1.0000
  O   O31       1.0  0.68771  0.27255  0.89531  1.0000
  O   O32       1.0  0.69564  0.45142000000000004  0.79583  1.0000
  C   C14       1.0  0.51588  0.07465999999999999  0.75801  1.0000
  C   C15       1.0  0.5956599999999999  0.39963  0.65856  1.0000
  C   C16       1.0  0.68008  0.18084999999999998  0.72792  1.0000
  C   C17       1.0  0.28653  0.63378  0.19661  1.0000
  C   C18       1.0  0.25971  0.71668  0.11474  1.0000
  C   C19       1.0  0.21444000000000002  0.68928  0.05172000000000022  1.0000
  N   N1        1.0  0.18901  0.77224  0.96258  1.0000
  C   C20       1.0  0.19407999999999997  0.58018  0.07762000000000002  1.0000
  C   C21       1.0  0.21977  0.4966000000000001  0.16109  1.0000
  C   C22       1.0  0.19692000000000004  0.37963  0.19096  1.0000
  F   F1        1.0  0.23131  0.30743  0.26316  1.0000
  F   F2        1.0  0.18059  0.34054000000000006  0.09532000000000009  1.0000
  C   C23       1.0  0.15382  0.37776  0.24538  1.0000
  F   F3        1.0  0.11294  0.41514000000000006  0.16492  1.0000
  F   F4        1.0  0.16432  0.4466200000000001  0.31942000000000004  1.0000
  C   C24       1.0  0.26659000000000005  0.5237500000000003  0.21885  1.0000
  H   H1        1.0  0.27446  0.8022500000000001  0.09731000000000001  1.0000
  H   H2        1.0  0.20448  0.8531600000000003  0.9405100000000001  1.0000
  H   H3        1.0  0.15481  0.75319  0.91731  1.0000
  H   H4        1.0  0.1585  0.56024  0.03113999999999995  1.0000
  H   H5        1.0  0.2869  0.4601  0.2843  1.0000
  C   C25       1.0  0.81375  0.9735400000000001  0.52596  1.0000
  C   C26       1.0  0.80173  0.03585000000000001  0.41521  1.0000
  C   C27       1.0  0.76033  0.09917000000000002  0.37685  1.0000
  N   N2        1.0  0.7460100000000001  0.15460000000000004  0.26195  1.0000
  C   C28       1.0  0.7320500000000001  0.10624999999999997  0.4505600000000001  1.0000
  C   C29       1.0  0.74326  0.044989999999999995  0.56174  1.0000
  C   C30       1.0  0.7104599999999999  0.050740000000000014  0.63782  1.0000
  F   F5        1.0  0.71766  0.96085  0.73034  1.0000
  F   F6        1.0  0.66271  0.04142999999999998  0.5807700000000001  1.0000
  C   C31       1.0  0.71983  0.16153  0.6767  1.0000
  F   F7        1.0  0.72299  0.2528400000000001  0.58913  1.0000
  F   F8        1.0  0.76347  0.15672000000000003  0.75435  1.0000
  C   C32       1.0  0.7840900000000001  0.9771200000000001  0.5988000000000001  1.0000
  H   H6        1.0  0.82357  0.030219999999999976  0.3579900000000001  1.0000
  H   H7        1.0  0.7661400000000003  0.14867000000000002  0.20503000000000002  1.0000
  H   H8        1.0  0.71411  0.1986  0.23282000000000005  1.0000
  H   H9        1.0  0.7001700000000001  0.15642  0.42026  1.0000
  H   H10       1.0  0.79304  0.92808  0.6840600000000001  1.0000
  C   C33       1.0  0.22391  0.98608  0.32277  1.0000
  C   C34       1.0  0.19004  0.9209000000000002  0.26460000000000006  1.0000
  C   C35       1.0  0.18424000000000001  0.9402000000000003  0.15065  1.0000
  N   N3        1.0  0.14488000000000004  0.88243  0.09297000000000002  1.0000
  C   C36       1.0  0.21329999999999996  0.022759999999999895  0.09437  1.0000
  C   C37       1.0  0.24972  0.08610000000000008  0.1527  1.0000
  C   C38       1.0  0.27987  0.17933000000000002  0.09057000000000001  1.0000
  F   F9        1.0  0.26592  0.28130999999999995  0.09495  1.0000
  F   F10       1.0  0.27054  0.17606000000000002  0.9795800000000001  1.0000
  C   C39       1.0  0.3355  0.17448  0.13516  1.0000
  F   F11       1.0  0.35772  0.2554700000000001  0.06288  1.0000
  F   F12       1.0  0.3488200000000001  0.1985300000000003  0.23804000000000006  1.0000
  C   C40       1.0  0.25382999999999994  0.06837000000000004  0.2679  1.0000
  H   H11       1.0  0.16607  0.85985  0.30600000000000005  1.0000
  H   H12       1.0  0.13031  0.9129600000000002  0.00886  1.0000
  H   H13       1.0  0.20627  0.038370000000000015  0.00485  1.0000
  H   H14       1.0  0.27823000000000003  0.12075999999999998  0.3142400000000001  1.0000
  C   C41       1.0  0.85134  0.59803  0.9043500000000002  1.0000
  C   C42       1.0  0.88135  0.5623800000000001  0.009929999999999994  1.0000
  C   C43       1.0  0.86158  0.529  0.10362  1.0000
  N   N4        1.0  0.89252  0.49482000000000004  0.21104000000000006  1.0000
  C   C44       1.0  0.81133  0.5285000000000001  0.09172  1.0000
  C   C45       1.0  0.7803200000000001  0.5625700000000001  0.9862200000000001  1.0000
  C   C46       1.0  0.72595  0.5577200000000002  0.97681  1.0000
  F   F13       1.0  0.70249  0.6260400000000002  0.8778100000000002  1.0000
  F   F14       1.0  0.71729  0.5985400000000001  0.061770000000000005  1.0000
  C   C47       1.0  0.70373  0.4345200000000001  0.98884  1.0000
  F   F15       1.0  0.65932  0.43013999999999997  0.017220000000000017  1.0000
  F   F16       1.0  0.7336599999999999  0.36232  0.0737000000000001  1.0000
  C   C48       1.0  0.8007800000000002  0.5989300000000002  0.8922800000000002  1.0000
  H   H15       1.0  0.92023  0.56137  0.019479999999999942  1.0000
  H   H16       1.0  0.93004  0.49298  0.22070000000000004  1.0000
  H   H17       1.0  0.87792  0.46894  0.28110000000000007  1.0000
  H   H18       1.0  0.79625  0.5006000000000002  0.16494000000000003  1.0000
  H   H19       1.0  0.7776600000000002  0.6251300000000002  0.8104200000000001  1.0000
  C   C49       1.0  0.51395  0.8274999999999999  0.3609200000000001  1.0000
  C   C50       1.0  0.55366  0.8988900000000002  0.3384700000000001  1.0000
  C   C51       1.0  0.60024  0.8743700000000001  0.40422  1.0000
  N   N5        1.0  0.64135  0.9415400000000002  0.37530000000000013  1.0000
  C   C52       1.0  0.60655  0.7797700000000002  0.4938500000000001  1.0000
  C   C53       1.0  0.56672  0.7076500000000002  0.51681  1.0000
  C   C54       1.0  0.57441  0.6023600000000002  0.60998  1.0000
  F   F17       1.0  0.5326399999999999  0.5723300000000001  0.6508  1.0000
  F   F18       1.0  0.61161  0.62265  0.69634  1.0000
  C   C55       1.0  0.5872  0.5041799999999999  0.5684700000000001  1.0000
  F   F19       1.0  0.6289399999999999  0.53202  0.5289  1.0000
  F   F20       1.0  0.54955  0.48114000000000007  0.4850100000000001  1.0000
  C   C56       1.0  0.52034  0.7314900000000002  0.44871  1.0000
  H   H20       1.0  0.54826  0.9700100000000003  0.2671  1.0000
  H   H21       1.0  0.6371200000000001  0.0086900000000003  0.30492  1.0000
  H   H22       1.0  0.6764599999999998  0.9198900000000002  0.42006  1.0000
  H   H23       1.0  0.64264  0.76113  0.54339  1.0000
  H   H24       1.0  0.48932  0.6750100000000001  0.46292000000000005  1.0000
  C   C57       1.0  0.016219999999999908  0.80202  0.8872800000000001  1.0000
  C   C58       1.0  0.03315000000000003  0.7191800000000002  0.9837400000000002  1.0000
  C   C59       1.0  0.04645  0.7455700000000001  0.08677000000000001  1.0000
  N   N6        1.0  0.05628  0.6583799999999999  0.18518000000000004  1.0000
  C   C60       1.0  0.04517  0.85613  0.09346  1.0000
  C   C61       1.0  0.03373000000000001  0.9436500000000001  0.99732  1.0000
  C   C62       1.0  0.035590000000000004  0.06559  0.00683  1.0000
  F   F21       1.0  0.004950000000000021  0.12636000000000003  0.9129800000000001  1.0000
  F   F22       1.0  0.0819  0.11306000000000002  0.00886  1.0000
  C   C63       1.0  0.019500000000000003  0.08189000000000003  0.1092  1.0000
  F   F23       1.0  0.008410000000000004  0.19391000000000003  0.08804000000000002  1.0000
  F   F24       1.0  0.9774  0.01683  0.12201000000000002  1.0000
  C   C64       1.0  0.019520000000000013  0.9153800000000001  0.89312  1.0000
  H   H25       1.0  0.03120999999999998  0.6316200000000001  0.9809900000000003  1.0000
  H   H26       1.0  0.04195  0.6593700000000002  0.2537  1.0000
  H   H27       1.0  0.07482  0.58798  0.18796000000000002  1.0000
  H   H28       1.0  0.05396  0.87243  0.17430000000000007  1.0000
  H   H29       1.0  0.007090000000000006  0.9791900000000001  0.8185  1.0000
  C   C65       1.0  0.46326  0.05427999999999997  0.7182900000000001  1.0000
  C   C66       1.0  0.43494  0.14549  0.65709  1.0000
  C   C67       1.0  0.38515  0.1284  0.61525  1.0000
  N   N7        1.0  0.35679  0.22111999999999998  0.54858  1.0000
  C   C68       1.0  0.36342  0.020149999999999984  0.6385500000000001  1.0000
  C   C69       1.0  0.39077  0.9279900000000002  0.7041500000000002  1.0000
  C   C70       1.0  0.36593  0.81228  0.73549  1.0000
  F   F25       1.0  0.39987  0.73239  0.79234  1.0000
  F   F26       1.0  0.34162000000000003  0.7812  0.6393300000000001  1.0000
  C   C71       1.0  0.32924  0.8081600000000002  0.8090600000000002  1.0000
  F   F27       1.0  0.30963999999999997  0.6992999999999999  0.8353700000000001  1.0000
  F   F28       1.0  0.29086000000000006  0.8776600000000002  0.7515000000000001  1.0000
  C   C72       1.0  0.4412  0.9459700000000001  0.7419700000000001  1.0000
  H   H30       1.0  0.45183  0.22921  0.6406300000000001  1.0000
  H   H31       1.0  0.37232  0.30254  0.53365  1.0000
  H   H32       1.0  0.32017  0.20907  0.51201  1.0000
  H   H33       1.0  0.32498  0.009179999999999964  0.60616  1.0000
  H   H34       1.0  0.4633  0.8766800000000001  0.79305  1.0000
  C   C73       1.0  0.98824  0.17532  0.46425  1.0000
  C   C74       1.0  0.9526  0.17678  0.36663000000000007  1.0000
  C   C75       1.0  0.90728  0.22010000000000002  0.35243000000000013  1.0000
  N   N8        1.0  0.87169  0.22428000000000006  0.25112000000000007  1.0000
  C   C76       1.0  0.89727  0.2623400000000001  0.4362300000000001  1.0000
  C   C77       1.0  0.93306  0.26673  0.5326  1.0000
  C   C78       1.0  0.92185  0.31668999999999997  0.6204700000000001  1.0000
  F   F29       1.0  0.9574599999999999  0.29321  0.71779  1.0000
  F   F30       1.0  0.87854  0.26632000000000006  0.64441  1.0000
  C   C79       1.0  0.91605  0.44553  0.58273  1.0000
  F   F31       1.0  0.8967200000000001  0.47665000000000013  0.6591500000000001  1.0000
  F   F32       1.0  0.88275  0.4727700000000002  0.48246  1.0000
  C   C80       1.0  0.97829  0.22105999999999998  0.5467  1.0000
  H   H35       1.0  0.96002  0.14628000000000002  0.30055  1.0000
  H   H36       1.0  0.8795200000000001  0.19824  0.18552000000000002  1.0000
  H   H37       1.0  0.83802  0.25798  0.23916  1.0000
  H   H38       1.0  0.86144  0.29248  0.42567  1.0000
  H   H39       1.0  0.006040000000000007  0.2226200000000001  0.6210800000000001  1.0000
