data_image0
_chemical_formula_structural       Ni2C4O9H2Ni2C4O9H2Ni2C4O9H2Ni2C4O9H2C9F2CF2C3H14C9F2CF2C3H14C9F2CF2C3H14C9F2CF2C3H14C9F2CF2C3H14C9F2CF2C3H14C9F2CF2C3H14C9F2CF2C3H14
_chemical_formula_sum              "Ni8 C120 O36 H120 F32"
_cell_length_a       40.5385
_cell_length_b       19.0934
_cell_length_c       7.952499999999999
_cell_angle_alpha    95.6624
_cell_angle_beta     113.9783
_cell_angle_gamma    89.4294

_symmetry_space_group_name_H-M    'P 1'
_symmetry_Int_Tables_number       1

loop_
  _symmetry_equiv_pos_as_xyz
  'x,y,z'

loop_
  _atom_site_type_symbol
  _atom_site_label
  _atom_site_symmetry_multiplicity
  _atom_site_fract_x
  _atom_site_fract_y
  _atom_site_fract_z
  _atom_site_occupancy
  Ni  Ni1       1.0  0.35827  0.61733  0.9408299999999999  1.0000
  Ni  Ni2       1.0  0.36419  0.77288  0.09716  1.0000
  C   C1        1.0  0.38312000000000007  0.85887  0.87924  1.0000
  C   C2        1.0  0.3109  0.67229  0.06666  1.0000
  C   C3        1.0  0.40387  0.6707  0.29321  1.0000
  C   C4        1.0  0.33651  0.85896  0.13155  1.0000
  O   O1        1.0  0.38059  0.61955  0.19216  1.0000
  O   O2        1.0  0.36167000000000005  0.82724  0.7358899999999999  1.0000
  O   O3        1.0  0.39541  0.8281  0.04651000000000001  1.0000
  O   O4        1.0  0.31402  0.6259100000000001  0.94052  1.0000
  O   O5        1.0  0.33453  0.7216  0.15642  1.0000
  O   O6        1.0  0.40216  0.73264  0.24672  1.0000
  O   O7        1.0  0.36109  0.7084000000000003  0.90938  1.0000
  O   O8        1.0  0.32745  0.8216  0.9727100000000001  1.0000
  O   O9        1.0  0.36477  0.83781  0.26325  1.0000
  H   H1        1.0  0.33899  0.7171  0.79461  1.0000
  H   H2        1.0  0.3830200000000001  0.71279  0.88041  1.0000
  Ni  Ni3       1.0  0.87789  0.86184  0.51575  1.0000
  Ni  Ni4       1.0  0.86488  0.74106  0.71768  1.0000
  C   C5        1.0  0.88178  0.62725  0.5127900000000001  1.0000
  C   C6        1.0  0.86716  0.88808  0.82651  1.0000
  C   C7        1.0  0.93192  0.78982  0.77278  1.0000
  C   C8        1.0  0.83541  0.7089900000000001  0.85242  1.0000
  O   O10       1.0  0.92118  0.85023  0.70408  1.0000
  O   O11       1.0  0.87518  0.63142  0.35055  1.0000
  O   O12       1.0  0.8567100000000001  0.65357  0.58258  1.0000
  O   O13       1.0  0.86093  0.9111000000000001  0.66603  1.0000
  O   O14       1.0  0.8726600000000001  0.8236800000000001  0.8578000000000002  1.0000
  O   O15       1.0  0.9105  0.7394300000000001  0.76004  1.0000
  O   O16       1.0  0.8540300000000001  0.78289  0.5088  1.0000
  O   O17       1.0  0.8209300000000002  0.7380500000000002  0.6998100000000003  1.0000
  O   O18       1.0  0.86985  0.70048  0.9104  1.0000
  H   H3        1.0  0.8275700000000001  0.79441  0.4577000000000001  1.0000
  H   H4        1.0  0.8571400000000001  0.7499500000000001  0.4098700000000001  1.0000
  Ni  Ni5       1.0  0.15073  0.1424  0.54609  1.0000
  Ni  Ni6       1.0  0.13964  0.2990300000000001  0.48247000000000007  1.0000
  C   C9        1.0  0.08679  0.3749800000000001  0.58546  1.0000
  C   C10       1.0  0.18058  0.20486000000000001  0.35329  1.0000
  C   C11       1.0  0.09113  0.1937  0.27504  1.0000
  C   C12       1.0  0.16432  0.38985  0.47256  1.0000
  O   O19       1.0  0.11612  0.14599000000000004  0.31449  1.0000
  O   O20       1.0  0.07513000000000003  0.38407  0.70561  1.0000
  O   O21       1.0  0.12143  0.34699  0.63716  1.0000
  O   O22       1.0  0.18640000000000004  0.15943  0.47605  1.0000
  O   O23       1.0  0.15811  0.25451  0.3317  1.0000
  O   O24       1.0  0.09734000000000001  0.25668  0.35228000000000004  1.0000
  O   O25       1.0  0.15185  0.23139000000000004  0.6379100000000002  1.0000
  O   O26       1.0  0.17954  0.34732  0.59688  1.0000
  O   O27       1.0  0.13221  0.36952000000000007  0.3529000000000001  1.0000
  H   H5        1.0  0.17713000000000007  0.2422  0.7363700000000002  1.0000
  H   H6        1.0  0.13543  0.23172000000000004  0.70568  1.0000
  Ni  Ni7       1.0  0.63688  0.37087000000000003  0.9182800000000002  1.0000
  Ni  Ni8       1.0  0.62762  0.21094000000000002  0.7970800000000002  1.0000
  C   C13       1.0  0.56881  0.13294  0.7797500000000003  1.0000
  C   C14       1.0  0.67576  0.30537  0.74855  1.0000
  C   C15       1.0  0.5831900000000001  0.30977  0.5991300000000002  1.0000
  C   C16       1.0  0.65189  0.11849000000000001  0.77542  1.0000
  O   O28       1.0  0.6074200000000002  0.36177000000000004  0.6733700000000002  1.0000
  O   O29       1.0  0.5417000000000001  0.16766000000000003  0.7207600000000002  1.0000
  O   O30       1.0  0.60186  0.16589  0.9012400000000003  1.0000
  O   O31       1.0  0.67638  0.35650000000000004  0.8737300000000001  1.0000
  O   O32       1.0  0.6532600000000001  0.25271  0.69394  1.0000
  O   O33       1.0  0.5881  0.24893000000000004  0.6537600000000002  1.0000
  O   O34       1.0  0.6361  0.28299  0.97497  1.0000
  O   O35       1.0  0.6652300000000001  0.16438  0.91964  1.0000
  O   O36       1.0  0.6229100000000001  0.13754  0.64396  1.0000
  H   H7        1.0  0.66  0.27628  0.08148000000000002  1.0000
  H   H8        1.0  0.617  0.28243  0.026580000000000048  1.0000
  C   C17       1.0  0.27797000000000005  0.66925  0.10815000000000002  1.0000
  C   C18       1.0  0.26477  0.59635  0.12047000000000001  1.0000
  C   C19       1.0  0.28624  0.5493600000000001  0.24623000000000006  1.0000
  C   C20       1.0  0.3251  0.56838  0.37616  1.0000
  C   C21       1.0  0.27026  0.48534  0.26037  1.0000
  C   C22       1.0  0.29388  0.43049000000000004  0.37469  1.0000
  C   C23       1.0  0.23196000000000003  0.47585000000000005  0.17976  1.0000
  C   C24       1.0  0.21366  0.42402  0.25299  1.0000
  C   C25       1.0  0.21834000000000003  0.44895000000000007  0.45431  1.0000
  F   F1        1.0  0.23717000000000002  0.51331  0.5159700000000002  1.0000
  F   F2        1.0  0.23879  0.4008600000000001  0.5714300000000002  1.0000
  C   C26       1.0  0.18209  0.45833000000000007  0.47385  1.0000
  F   F3        1.0  0.15858000000000003  0.4959000000000001  0.3367600000000001  1.0000
  F   F4        1.0  0.1889  0.49703  0.64063  1.0000
  C   C27       1.0  0.21103000000000002  0.5222700000000001  0.05167  1.0000
  C   C28       1.0  0.17044  0.51395  0.95379  1.0000
  C   C29       1.0  0.22793  0.57968  0.01862  1.0000
  H   H9        1.0  0.25651  0.69611  0.9993  1.0000
  H   H10       1.0  0.28305  0.7012400000000001  0.24082000000000006  1.0000
  H   H11       1.0  0.34359  0.53743  0.32865  1.0000
  H   H12       1.0  0.33202  0.62503  0.38875  1.0000
  H   H13       1.0  0.32999  0.5569  0.51852  1.0000
  H   H14       1.0  0.28198  0.37653000000000003  0.32433000000000006  1.0000
  H   H15       1.0  0.32024  0.42867000000000005  0.36314  1.0000
  H   H16       1.0  0.29852000000000006  0.44257999999999986  0.52206  1.0000
  H   H17       1.0  0.22442  0.37074000000000007  0.24649000000000004  1.0000
  H   H18       1.0  0.18467  0.41477  0.16186  1.0000
  H   H19       1.0  0.16275  0.46048  0.87865  1.0000
  H   H20       1.0  0.15802  0.52275  0.05421000000000001  1.0000
  H   H21       1.0  0.15882000000000002  0.5527800000000002  0.85164  1.0000
  H   H22       1.0  0.21140000000000003  0.61543  0.92276  1.0000
  C   C30       1.0  0.8693200000000001  0.9406200000000001  0.98465  1.0000
  C   C31       1.0  0.83416  0.97832  0.9435  1.0000
  C   C32       1.0  0.8235700000000001  0.03552  0.8327700000000002  1.0000
  C   C33       1.0  0.8478500000000001  0.06409  0.7501600000000002  1.0000
  C   C34       1.0  0.7902500000000001  0.06852  0.8052400000000002  1.0000
  C   C35       1.0  0.77782  0.12864  0.68402  1.0000
  C   C36       1.0  0.76896  0.046849999999999996  0.89768  1.0000
  C   C37       1.0  0.7340100000000003  0.08336  0.8785200000000002  1.0000
  C   C38       1.0  0.70015  0.04649  0.71984  1.0000
  F   F5        1.0  0.70707  0.9769  0.6806300000000002  1.0000
  F   F6        1.0  0.69182  0.07955  0.5607800000000001  1.0000
  C   C39       1.0  0.6667  0.046610000000000006  0.76568  1.0000
  F   F7        1.0  0.67464  0.01889000000000001  0.9317500000000002  1.0000
  F   F8        1.0  0.6400100000000001  0.0036100000000000086  0.6281400000000003  1.0000
  C   C40       1.0  0.78037  0.9900200000000001  0.008539999999999992  1.0000
  C   C41       1.0  0.75949  0.9644100000000001  0.1120699999999999  1.0000
  C   C42       1.0  0.81213  0.95628  0.026529999999999946  1.0000
  H   H23       1.0  0.8924000000000001  0.9785200000000001  0.023140000000000164  1.0000
  H   H24       1.0  0.87634  0.91237  0.11019000000000001  1.0000
  H   H25       1.0  0.8535  0.12122  0.796  1.0000
  H   H26       1.0  0.87444  0.039880000000000144  0.79127  1.0000
  H   H27       1.0  0.83442  0.05572  0.5967400000000003  1.0000
  H   H28       1.0  0.74956  0.11886  0.5822400000000002  1.0000
  H   H29       1.0  0.78016  0.17857000000000003  0.77263  1.0000
  H   H30       1.0  0.79333  0.1364  0.60029  1.0000
  H   H31       1.0  0.7353300000000002  0.13958  0.85741  1.0000
  H   H32       1.0  0.7313499999999998  0.08667000000000001  0.01228000000000007  1.0000
  H   H33       1.0  0.75753  0.00743  0.2117  1.0000
  H   H34       1.0  0.7321200000000001  0.9448600000000001  0.013800000000000036  1.0000
  H   H35       1.0  0.77293  0.92041  0.19377  1.0000
  H   H36       1.0  0.82032  0.91254  0.11040000000000005  1.0000
  C   C43       1.0  0.20112  0.19745000000000004  0.23128  1.0000
  C   C44       1.0  0.22112000000000004  0.12857  0.2505  1.0000
  C   C45       1.0  0.20302  0.061630000000000004  0.18933000000000005  1.0000
  C   C46       1.0  0.16234  0.05587000000000009  0.08042  1.0000
  C   C47       1.0  0.22283  0.9993000000000001  0.24058000000000004  1.0000
  C   C48       1.0  0.20156  0.9296100000000002  0.1978  1.0000
  C   C49       1.0  0.26128  0.004119999999999904  0.34183000000000013  1.0000
  C   C50       1.0  0.28319  0.93825  0.3996900000000001  1.0000
  C   C51       1.0  0.28806000000000004  0.8892300000000001  0.24401000000000006  1.0000
  F   F9        1.0  0.2554100000000001  0.8730100000000001  0.09502000000000001  1.0000
  F   F10       1.0  0.30043  0.82702  0.32116  1.0000
  C   C52       1.0  0.31492000000000003  0.9178000000000001  0.16952  1.0000
  F   F11       1.0  0.33916  0.96721  0.2967  1.0000
  F   F12       1.0  0.29625  0.9491500000000002  0.00884  1.0000
  C   C53       1.0  0.27842  0.07214  0.40697  1.0000
  C   C54       1.0  0.3173  0.08370000000000001  0.54575  1.0000
  C   C55       1.0  0.25836000000000003  0.13232000000000005  0.35515  1.0000
  H   H37       1.0  0.22036  0.24338000000000004  0.27228  1.0000
  H   H38       1.0  0.18294000000000005  0.20151  0.08420000000000002  1.0000
  H   H39       1.0  0.14959000000000003  0.038899999999999935  0.17014000000000007  1.0000
  H   H40       1.0  0.15002  0.10563000000000002  0.02908000000000001  1.0000
  H   H41       1.0  0.15521000000000001  0.01727999999999997  0.9561100000000001  1.0000
  H   H42       1.0  0.21758  0.8843500000000001  0.25835  1.0000
  H   H43       1.0  0.18071  0.93409  0.25505  1.0000
  H   H44       1.0  0.18822000000000003  0.9156100000000001  0.04578  1.0000
  H   H45       1.0  0.27069  0.9075500000000001  0.47141  1.0000
  H   H46       1.0  0.31040000000000006  0.9508  0.50949  1.0000
  H   H47       1.0  0.32202  0.05687000000000001  0.67099  1.0000
  H   H48       1.0  0.3361  0.06508  0.4836400000000001  1.0000
  H   H49       1.0  0.32433000000000006  0.14036  0.59427  1.0000
  H   H50       1.0  0.27175999999999995  0.18368  0.40593  1.0000
  C   C56       1.0  0.8146300000000001  0.69362  0.9631300000000003  1.0000
  C   C57       1.0  0.7931600000000001  0.62411  0.8984400000000002  1.0000
  C   C58       1.0  0.75562  0.61964  0.85319  1.0000
  C   C59       1.0  0.7344700000000001  0.68673  0.82598  1.0000
  C   C60       1.0  0.7388  0.55309  0.84316  1.0000
  C   C61       1.0  0.70019  0.5517  0.8278200000000002  1.0000
  C   C62       1.0  0.759  0.4902700000000001  0.8578600000000002  1.0000
  C   C63       1.0  0.74276  0.41824  0.85947  1.0000
  C   C64       1.0  0.7169500000000001  0.38417  0.6645600000000003  1.0000
  F   F13       1.0  0.73555  0.3805400000000001  0.55156  1.0000
  F   F14       1.0  0.68736  0.42524  0.58618  1.0000
  C   C65       1.0  0.7033  0.30841  0.6655300000000002  1.0000
  F   F15       1.0  0.7321900000000001  0.26835  0.76187  1.0000
  F   F16       1.0  0.6876500000000001  0.27783  0.48403  1.0000
  C   C66       1.0  0.79566  0.4959200000000001  0.8823200000000001  1.0000
  C   C67       1.0  0.81829  0.43212  0.88819  1.0000
  C   C68       1.0  0.81223  0.56229  0.9069  1.0000
  H   H51       1.0  0.79826  0.73982  0.9683400000000002  1.0000
  H   H52       1.0  0.8339599999999999  0.69172  0.10750000000000016  1.0000
  H   H53       1.0  0.7405  0.71685  0.9625600000000002  1.0000
  H   H54       1.0  0.7420399999999999  0.71959  0.73857  1.0000
  H   H55       1.0  0.7049  0.6774900000000003  0.7528100000000002  1.0000
  H   H56       1.0  0.69106  0.50171  0.85597  1.0000
  H   H57       1.0  0.69734  0.59211  0.93105  1.0000
  H   H58       1.0  0.68139  0.56261  0.68659  1.0000
  H   H59       1.0  0.73025  0.42316000000000004  0.95994  1.0000
  H   H60       1.0  0.7642300000000001  0.38062  0.9205200000000001  1.0000
  H   H61       1.0  0.8233000000000001  0.40593  0.01449  1.0000
  H   H62       1.0  0.8043100000000001  0.39472  0.7630400000000002  1.0000
  H   H63       1.0  0.84502  0.4462400000000001  0.89084  1.0000
  H   H64       1.0  0.84088  0.5662  0.9392  1.0000
  C   C69       1.0  0.43193000000000004  0.65801  0.47978  1.0000
  C   C70       1.0  0.46120000000000005  0.60731  0.48007  1.0000
  C   C71       1.0  0.48917  0.59284  0.6502000000000002  1.0000
  C   C72       1.0  0.49030000000000007  0.63297  0.8275200000000003  1.0000
  C   C73       1.0  0.5158  0.5431100000000001  0.65143  1.0000
  C   C74       1.0  0.54399  0.52474  0.8357500000000001  1.0000
  C   C75       1.0  0.51512  0.51107  0.4803  1.0000
  C   C76       1.0  0.54146  0.45445  0.47329000000000004  1.0000
  C   C77       1.0  0.52665  0.38034000000000007  0.47586  1.0000
  F   F17       1.0  0.49146000000000006  0.37148  0.34334  1.0000
  F   F18       1.0  0.52578  0.37447  0.64646  1.0000
  C   C78       1.0  0.54906  0.32068  0.43365  1.0000
  F   F19       1.0  0.55785  0.33451  0.2889700000000001  1.0000
  F   F20       1.0  0.52807  0.25882  0.3787800000000001  1.0000
  C   C79       1.0  0.48832000000000003  0.53024  0.31205  1.0000
  C   C80       1.0  0.48906000000000005  0.50639  0.12763  1.0000
  C   C81       1.0  0.46165  0.57639  0.31399  1.0000
  H   H65       1.0  0.41772  0.6384300000000002  0.56035  1.0000
  H   H66       1.0  0.44521000000000005  0.70964  0.55087  1.0000
  H   H67       1.0  0.49246000000000006  0.69034  0.8202700000000002  1.0000
  H   H68       1.0  0.46536  0.62127  0.8463400000000001  1.0000
  H   H69       1.0  0.5133300000000001  0.62164  0.9545700000000003  1.0000
  H   H70       1.0  0.56436  0.48710000000000003  0.8311  1.0000
  H   H71       1.0  0.55955  0.57278  0.9193200000000002  1.0000
  H   H72       1.0  0.53008  0.49917000000000006  0.90827  1.0000
  H   H73       1.0  0.5687500000000001  0.46568  0.58331  1.0000
  H   H74       1.0  0.54685  0.45614000000000005  0.34821  1.0000
  H   H75       1.0  0.51338  0.53163  0.12725  1.0000
  H   H76       1.0  0.4902  0.4484000000000001  0.10509  1.0000
  H   H77       1.0  0.46512  0.52267  0.00943  1.0000
  H   H78       1.0  0.44172  0.5896  0.18256000000000006  1.0000
  C   C82       1.0  0.97123  0.78005  0.88377  1.0000
  C   C83       1.0  0.9928600000000001  0.84902  0.9453000000000003  1.0000
  C   C84       1.0  0.018939999999999964  0.86596  0.8790500000000002  1.0000
  C   C85       1.0  0.02205999999999998  0.81842  0.7215800000000002  1.0000
  C   C86       1.0  0.04178000000000001  0.92692  0.9612800000000002  1.0000
  C   C87       1.0  0.07373000000000003  0.93679  0.9121500000000001  1.0000
  C   C88       1.0  0.035049999999999984  0.9754000000000002  0.09207  1.0000
  C   C89       1.0  0.057550000000000004  0.043660000000000004  0.17332000000000006  1.0000
  C   C90       1.0  0.050039999999999994  0.09864  0.03093  1.0000
  F   F21       1.0  0.015020000000000037  0.08883000000000002  0.89676  1.0000
  F   F22       1.0  0.07331000000000003  0.09034000000000002  0.9430900000000002  1.0000
  C   C91       1.0  0.05442000000000001  0.17535  0.12135  1.0000
  F   F23       1.0  0.02834  0.18623000000000003  0.19026000000000004  1.0000
  F   F24       1.0  0.048490000000000005  0.22038  0.98627  1.0000
  C   C92       1.0  0.0067299999999999045  0.9596100000000001  0.14580000000000007  1.0000
  C   C93       1.0  0.99697  0.009090000000000003  0.27823  1.0000
  C   C94       1.0  0.9869300000000001  0.89604  0.07575000000000003  1.0000
  H   H79       1.0  0.98124  0.74194  0.8030000000000003  1.0000
  H   H80       1.0  0.9744  0.7547900000000002  0.00931  1.0000
  H   H81       1.0  0.03449  0.76841  0.7730400000000001  1.0000
  H   H82       1.0  0.99485  0.80705  0.60821  1.0000
  H   H83       1.0  0.03817000000000004  0.8419300000000001  0.65638  1.0000
  H   H84       1.0  0.09433  0.97555  0.007030000000000093  1.0000
  H   H85       1.0  0.08829  0.8867700000000001  0.92091  1.0000
  H   H86       1.0  0.06421000000000003  0.95268  0.7697000000000003  1.0000
  H   H87       1.0  0.08647  0.030810000000000004  0.23512000000000005  1.0000
  H   H88       1.0  0.05324000000000001  0.06831  0.2943800000000001  1.0000
  H   H89       1.0  0.019549999999999953  0.014380000000000004  0.41785  1.0000
  H   H90       1.0  0.99081  0.06160000000000001  0.22586  1.0000
  H   H91       1.0  0.9726800000000001  0.9898800000000002  0.29391  1.0000
  H   H92       1.0  0.96614  0.88293  0.12156000000000003  1.0000
  C   C95       1.0  0.5665300000000002  0.05507000000000001  0.7244600000000002  1.0000
  C   C96       1.0  0.53782  0.01865  0.76424  1.0000
  C   C97       1.0  0.5446  0.9947200000000002  0.9378100000000001  1.0000
  C   C98       1.0  0.57945  0.01602  0.10492000000000003  1.0000
  C   C99       1.0  0.51806  0.95153  0.9567200000000001  1.0000
  C   C100      1.0  0.52749  0.9211700000000002  0.13949000000000006  1.0000
  C   C101      1.0  0.4832700000000001  0.93925  0.8072200000000003  1.0000
  C   C102      1.0  0.45278  0.8990300000000001  0.82816  1.0000
  C   C103      1.0  0.43651  0.9435000000000001  0.9483  1.0000
  F   F25       1.0  0.44349000000000005  0.014620000000000298  0.94985  1.0000
  F   F26       1.0  0.45281  0.92653  0.12841000000000002  1.0000
  C   C104      1.0  0.39519999999999994  0.9331600000000001  0.8789100000000001  1.0000
  F   F27       1.0  0.37866000000000005  0.9539700000000001  0.7024700000000003  1.0000
  F   F28       1.0  0.38374  0.97636  0.9935000000000002  1.0000
  C   C105      1.0  0.4761600000000001  0.9697300000000001  0.6405000000000002  1.0000
  C   C106      1.0  0.43934  0.9646000000000002  0.48192  1.0000
  C   C107      1.0  0.50366  0.00674000000000001  0.6200700000000002  1.0000
  H   H93       1.0  0.59313  0.031320000000000014  0.7950200000000002  1.0000
  H   H94       1.0  0.56045  0.04654  0.57429  1.0000
  H   H95       1.0  0.59651  0.9696400000000001  0.14603  1.0000
  H   H96       1.0  0.59577  0.05705  0.08201  1.0000
  H   H97       1.0  0.57311  0.03887  0.22183  1.0000
  H   H98       1.0  0.50968  0.87682  0.13278  1.0000
  H   H99       1.0  0.55484  0.8991700000000001  0.18780000000000002  1.0000
  H   H100      1.0  0.52689  0.96316  0.24509  1.0000
  H   H101      1.0  0.46235  0.84829  0.88526  1.0000
  H   H102      1.0  0.43112  0.8812200000000001  0.69135  1.0000
  H   H103      1.0  0.43284  0.9091800000000001  0.4195300000000001  1.0000
  H   H104      1.0  0.41858  0.9839000000000001  0.53101  1.0000
  H   H105      1.0  0.43795  0.9975700000000001  0.37199  1.0000
  H   H106      1.0  0.49825000000000014  0.02792  0.49020000000000014  1.0000
  C   C108      1.0  0.06471  0.39968  0.39709  1.0000
  C   C109      1.0  0.02881  0.43042  0.3835  1.0000
  C   C110      1.0  0.99837  0.38801  0.36024  1.0000
  C   C111      1.0  0.0004900000000001019  0.30867  0.355  1.0000
  C   C112      1.0  0.96531  0.4200400000000001  0.34133  1.0000
  C   C113      1.0  0.9324600000000001  0.37285  0.30198  1.0000
  C   C114      1.0  0.9635700000000001  0.4949  0.36126  1.0000
  C   C115      1.0  0.92924  0.53026  0.3583000000000001  1.0000
  C   C116      1.0  0.92046  0.51952  0.52899  1.0000
  F   F29       1.0  0.9481400000000001  0.48473000000000005  0.65674  1.0000
  F   F30       1.0  0.8891400000000002  0.47824000000000005  0.47148  1.0000
  C   C117      1.0  0.9152100000000001  0.58963  0.62967  1.0000
  F   F31       1.0  0.94543  0.6325  0.67563  1.0000
  F   F32       1.0  0.9127000000000001  0.5762700000000002  0.7922800000000002  1.0000
  C   C118      1.0  0.9944600000000001  0.5364300000000001  0.3854400000000001  1.0000
  C   C119      1.0  0.9949  0.6160600000000002  0.4041700000000001  1.0000
  C   C120      1.0  0.02609  0.50365  0.39413  1.0000
  H   H107      1.0  0.05933  0.357  0.28354  1.0000
  H   H108      1.0  0.08132  0.44056000000000006  0.37430000000000013  1.0000
  H   H109      1.0  0.98404  0.28432  0.21251  1.0000
  H   H110      1.0  0.02830000000000001  0.28998  0.3982900000000001  1.0000
  H   H111      1.0  0.9901800000000001  0.28926  0.45221  1.0000
  H   H112      1.0  0.9067800000000001  0.40028  0.26165  1.0000
  H   H113      1.0  0.92832  0.3328200000000001  0.18366  1.0000
  H   H114      1.0  0.93639  0.34613  0.42618  1.0000
  H   H115      1.0  0.9059800000000001  0.51178  0.22733000000000006  1.0000
  H   H116      1.0  0.9308499999999998  0.58699  0.34575  1.0000
  H   H117      1.0  0.97426  0.6351900000000001  0.27717  1.0000
  H   H118      1.0  0.9897000000000001  0.63607  0.52654  1.0000
  H   H119      1.0  0.021420000000000005  0.63919  0.4238700000000001  1.0000
  H   H120      1.0  0.04945000000000001  0.53595  0.41366  1.0000
