data_image0
_chemical_formula_structural       EuOCO6COC2EuOCO6COC2EuOCO6COC2EuOCO6COC6O2C3F2CF2CH4C4O2C3F2CF2CH4C4O2C3F2CF2CH4C4O2C3F2CF2CH4C4O2C3F2CF2CH4C4O2C3F2CF2CH4C4O2C3F2CF2CH4C4O2C3F2CF2CH4
_chemical_formula_sum              "Eu4 O48 C88 F32 H32"
_cell_length_a       34.1916
_cell_length_b       15.2018
_cell_length_c       8.268
_cell_angle_alpha    99.0233
_cell_angle_beta     91.4595
_cell_angle_gamma    87.325

_space_group_name_H-M_alt    "P 1"
_space_group_IT_number       1

loop_
  _space_group_symop_operation_xyz
  'x, y, z'

loop_
  _atom_site_type_symbol
  _atom_site_label
  _atom_site_symmetry_multiplicity
  _atom_site_fract_x
  _atom_site_fract_y
  _atom_site_fract_z
  _atom_site_occupancy
  Eu  Eu1       1.0  0.39854  0.73638  0.14256  1.0000
  O   O1        1.0  0.33284  0.88317  0.15867  1.0000
  C   C1        1.0  0.34418  0.58025  0.06829  1.0000
  O   O2        1.0  0.39528000000000013  0.9009900000000001  0.9521700000000001  1.0000
  O   O3        1.0  0.44335  0.83273  0.08410000000000001  1.0000
  O   O4        1.0  0.426  0.5533300000000002  0.24833000000000002  1.0000
  O   O5        1.0  0.35879  0.5851500000000001  0.9372100000000001  1.0000
  O   O6        1.0  0.35388  0.64137  0.20531  1.0000
  O   O7        1.0  0.37492  0.84042  0.3501100000000001  1.0000
  C   C2        1.0  0.3461  0.8980600000000002  0.29835  1.0000
  O   O8        1.0  0.4425600000000001  0.6959000000000001  0.33166  1.0000
  C   C3        1.0  0.44582  0.6051000000000002  0.3393  1.0000
  C   C4        1.0  0.42441  0.9088  0.040790000000000014  1.0000
  Eu  Eu2       1.0  0.89095  0.7415900000000002  0.73989  1.0000
  O   O9        1.0  0.8476  0.91416  0.85172  1.0000
  C   C5        1.0  0.8251800000000001  0.63743  0.8662  1.0000
  O   O10       1.0  0.9787199999999999  0.8032500000000005  0.77768  1.0000
  O   O11       1.0  0.92195  0.86383  0.69246  1.0000
  O   O12       1.0  0.93541  0.56999  0.62152  1.0000
  O   O13       1.0  0.81361  0.7148200000000001  0.9033600000000003  1.0000
  O   O14       1.0  0.86042  0.61805  0.7857300000000003  1.0000
  O   O15       1.0  0.8352000000000002  0.8049600000000002  0.6424900000000002  1.0000
  C   C6        1.0  0.83279  0.89368  0.71634  1.0000
  O   O16       1.0  0.90404  0.67016  0.48345  1.0000
  C   C7        1.0  0.91917  0.5847  0.49460000000000004  1.0000
  C   C8        1.0  0.95777  0.87012  0.77447  1.0000
  Eu  Eu3       1.0  0.11489000000000002  0.32046  0.26925  1.0000
  O   O17       1.0  0.18770999999999996  0.22583  0.13196  1.0000
  C   C9        1.0  0.18571  0.4412000000000001  0.348  1.0000
  O   O18       1.0  0.03052  0.28117  0.90298  1.0000
  O   O19       1.0  0.05512000000000002  0.28101  0.15696  1.0000
  O   O20       1.0  0.02666  0.3153  0.60286  1.0000
  O   O21       1.0  0.16975  0.47080000000000005  0.23289  1.0000
  O   O22       1.0  0.17263  0.3637600000000001  0.3952200000000001  1.0000
  O   O23       1.0  0.13749  0.17609  0.25785000000000013  1.0000
  C   C10       1.0  0.17536  0.16702  0.19852  1.0000
  O   O24       1.0  0.08887  0.31428  0.51856  1.0000
  C   C11       1.0  0.05042  0.34812  0.52495  1.0000
  C   C12       1.0  0.05299000000000001  0.24514000000000002  0.9915100000000001  1.0000
  Eu  Eu4       1.0  0.63943  0.21026  0.76856  1.0000
  O   O25       1.0  0.6890600000000002  0.03926999999999999  0.7137  1.0000
  C   C13       1.0  0.6661400000000002  0.3917700000000001  0.90792  1.0000
  O   O26       1.0  0.57076  0.1783100000000001  0.9543900000000002  1.0000
  O   O27       1.0  0.61223  0.08105999999999998  0.80448  1.0000
  O   O28       1.0  0.56936  0.3435000000000002  0.8153600000000002  1.0000
  O   O29       1.0  0.6604  0.35358  0.0240800000000001  1.0000
  O   O30       1.0  0.66571  0.34301  0.75017  1.0000
  O   O31       1.0  0.6715400000000002  0.13782  0.54388  1.0000
  C   C14       1.0  0.68523  0.05373  0.57288  1.0000
  O   O32       1.0  0.58775  0.23977000000000007  0.60173  1.0000
  C   C15       1.0  0.56001  0.29874  0.68559  1.0000
  C   C16       1.0  0.58199  0.10087  0.91502  1.0000
  C   C17       1.0  0.31693000000000005  0.50942  0.08364  1.0000
  C   C18       1.0  0.30847  0.4431100000000001  0.95023  1.0000
  C   C19       1.0  0.28343  0.37454000000000004  0.9684699999999999  1.0000
  C   C20       1.0  0.27463  0.3038800000000001  0.8296400000000003  1.0000
  O   O33       1.0  0.29155  0.29995  0.70045  1.0000
  O   O34       1.0  0.24718000000000004  0.24091000000000004  0.84667  1.0000
  C   C21       1.0  0.26708  0.37284  0.12175  1.0000
  C   C22       1.0  0.2752100000000001  0.4383900000000001  0.25571  1.0000
  C   C23       1.0  0.25799  0.43499  0.42143  1.0000
  F   F1        1.0  0.25284000000000006  0.34723  0.43995  1.0000
  F   F2        1.0  0.28411  0.46971  0.54323  1.0000
  C   C24       1.0  0.21866  0.489  0.44385  1.0000
  F   F3        1.0  0.20921000000000006  0.50206  0.60795  1.0000
  F   F4        1.0  0.22222000000000006  0.57197  0.39767  1.0000
  C   C25       1.0  0.29976  0.50699  0.23498  1.0000
  H   H1        1.0  0.32154  0.44449  0.83274  1.0000
  H   H2        1.0  0.2433  0.19677  0.74276  1.0000
  H   H3        1.0  0.24819000000000002  0.32014  0.13822  1.0000
  H   H4        1.0  0.30571  0.5582200000000003  0.3380100000000001  1.0000
  C   C26       1.0  0.81544  0.9633500000000003  0.62792  1.0000
  C   C27       1.0  0.83257  0.04654000000000001  0.6439400000000002  1.0000
  C   C28       1.0  0.81752  0.11257  0.55548  1.0000
  C   C29       1.0  0.83778  0.19707000000000005  0.56105  1.0000
  O   O35       1.0  0.87078  0.2043  0.61998  1.0000
  O   O36       1.0  0.81941  0.2684  0.4971  1.0000
  C   C30       1.0  0.78358  0.09647  0.45815  1.0000
  C   C31       1.0  0.7658800000000002  0.013519999999999996  0.44118  1.0000
  C   C32       1.0  0.7294000000000002  0.9959200000000001  0.33381  1.0000
  F   F5        1.0  0.7201900000000002  0.06675  0.2504400000000001  1.0000
  F   F6        1.0  0.73701  0.9214000000000002  0.21754  1.0000
  C   C33       1.0  0.69337  0.97969  0.4322  1.0000
  F   F7        1.0  0.66081  0.97352  0.32862  1.0000
  F   F8        1.0  0.69862  0.8992900000000003  0.49083  1.0000
  C   C34       1.0  0.7829100000000001  0.9463  0.52308  1.0000
  H   H5        1.0  0.85833  0.05882000000000001  0.72214  1.0000
  H   H6        1.0  0.83606  0.32268000000000013  0.51024  1.0000
  H   H7        1.0  0.77144  0.14829  0.39333  1.0000
  H   H8        1.0  0.77063  0.8809800000000002  0.50714  1.0000
  C   C35       1.0  0.20095000000000002  0.08935  0.22267  1.0000
  C   C36       1.0  0.1851  0.0069200000000000025  0.23007  1.0000
  C   C37       1.0  0.20934  0.93418  0.26215  1.0000
  C   C38       1.0  0.19269  0.8462000000000001  0.26376  1.0000
  O   O37       1.0  0.1576  0.837  0.24326  1.0000
  O   O38       1.0  0.21723000000000006  0.7732  0.28754  1.0000
  C   C39       1.0  0.24946999999999997  0.94612  0.29495  1.0000
  C   C40       1.0  0.26573  0.029330000000000005  0.29132  1.0000
  C   C41       1.0  0.3082  0.04984999999999995  0.33632  1.0000
  F   F9        1.0  0.32651000000000013  0.06549999999999989  0.19669  1.0000
  F   F10       1.0  0.30799  0.12852  0.44694  1.0000
  C   C42       1.0  0.3329600000000001  0.9795100000000004  0.41627  1.0000
  F   F11       1.0  0.36649  0.019339999999999913  0.48384  1.0000
  F   F12       1.0  0.31276  0.95375  0.54305  1.0000
  C   C43       1.0  0.24128000000000002  0.09904  0.24782000000000004  1.0000
  H   H9        1.0  0.15396  0.99928  0.20887000000000006  1.0000
  H   H10       1.0  0.20233  0.7168700000000001  0.28413  1.0000
  H   H11       1.0  0.26758  0.8903800000000001  0.3237  1.0000
  H   H12       1.0  0.2535000000000001  0.16293000000000005  0.2419  1.0000
  C   C44       1.0  0.8024  0.56383  0.90682  1.0000
  C   C45       1.0  0.82008  0.4781400000000001  0.90063  1.0000
  C   C46       1.0  0.7992  0.40794  0.94309  1.0000
  C   C47       1.0  0.81864  0.31914  0.9459  1.0000
  O   O39       1.0  0.8543100000000002  0.31013000000000013  0.9414700000000003  1.0000
  O   O40       1.0  0.7963500000000002  0.2456000000000001  0.95567  1.0000
  C   C48       1.0  0.75998  0.4239500000000001  0.98963  1.0000
  C   C49       1.0  0.74183  0.50936  0.99762  1.0000
  C   C50       1.0  0.70055  0.52717  0.06190999999999991  1.0000
  F   F13       1.0  0.69751  0.48981  0.20341000000000006  1.0000
  F   F14       1.0  0.69316  0.61821  0.1054900000000003  1.0000
  C   C51       1.0  0.66893  0.49156  0.93435  1.0000
  F   F15       1.0  0.6329  0.5276400000000001  0.98997  1.0000
  F   F16       1.0  0.67581  0.51926  0.78608  1.0000
  C   C52       1.0  0.76326  0.57882  0.95469  1.0000
  H   H13       1.0  0.8504200000000001  0.4663700000000001  0.86537  1.0000
  H   H14       1.0  0.813  0.18878  0.9575100000000002  1.0000
  H   H15       1.0  0.74391  0.3707700000000001  0.025940000000000074  1.0000
  H   H16       1.0  0.74967  0.64493  0.95889  1.0000
  C   C53       1.0  0.47392  0.5729500000000002  0.45777  1.0000
  C   C54       1.0  0.50536  0.62557  0.51585  1.0000
  C   C55       1.0  0.53276  0.5977900000000003  0.6281700000000002  1.0000
  C   C56       1.0  0.56651  0.65294  0.68316  1.0000
  O   O41       1.0  0.5669399999999999  0.7296800000000002  0.65679  1.0000
  O   O42       1.0  0.5984  0.61672  0.76201  1.0000
  C   C57       1.0  0.52808  0.51675  0.68553  1.0000
  C   C58       1.0  0.49636  0.4632900000000001  0.6313  1.0000
  C   C59       1.0  0.49071  0.3774100000000001  0.70006  1.0000
  F   F17       1.0  0.49606000000000006  0.39251  0.8687400000000002  1.0000
  F   F18       1.0  0.4524  0.35208  0.67074  1.0000
  C   C60       1.0  0.51818  0.29894  0.62098  1.0000
  F   F19       1.0  0.50288  0.21971000000000004  0.6477000000000003  1.0000
  F   F20       1.0  0.5186800000000003  0.2983  0.45331  1.0000
  C   C61       1.0  0.46957  0.49174  0.51512  1.0000
  H   H17       1.0  0.50909  0.68767  0.4704  1.0000
  H   H18       1.0  0.62053  0.65927  0.78499  1.0000
  H   H19       1.0  0.54872  0.4962400000000001  0.7751  1.0000
  H   H20       1.0  0.44488000000000005  0.4519500000000001  0.47149  1.0000
  C   C62       1.0  0.96916  0.9566600000000002  0.865  1.0000
  C   C63       1.0  0.93986  0.016599999999999965  0.9374800000000001  1.0000
  C   C64       1.0  0.9496  0.09571  0.03862  1.0000
  C   C65       1.0  0.91822  0.15719  0.11819  1.0000
  O   O43       1.0  0.88404  0.13812000000000002  0.09935  1.0000
  O   O44       1.0  0.9278  0.23747000000000001  0.21438  1.0000
  C   C66       1.0  0.98915  0.11475000000000002  0.06504000000000003  1.0000
  C   C67       1.0  0.018999999999999902  0.05793000000000002  0.9857000000000001  1.0000
  C   C68       1.0  0.06169999999999999  0.08058  0.01526  1.0000
  F   F21       1.0  0.06826  0.10278  0.18214  1.0000
  F   F22       1.0  0.08587  0.00646999999999997  0.96201  1.0000
  C   C69       1.0  0.07348  0.15731  0.9256  1.0000
  F   F23       1.0  0.1134  0.16697000000000004  0.94135  1.0000
  F   F24       1.0  0.06473  0.13496000000000002  0.7599400000000002  1.0000
  C   C70       1.0  0.008490000000000107  0.978  0.8868700000000002  1.0000
  H   H21       1.0  0.90956  0.00011000000000004414  0.91967  1.0000
  H   H22       1.0  0.90373  0.27292  0.26171  1.0000
  H   H23       1.0  0.99692  0.17326  0.14964  1.0000
  H   H24       1.0  0.030809999999999997  0.9318900000000002  0.82721  1.0000
  C   C71       1.0  0.56434  0.02986  0.98786  1.0000
  C   C72       1.0  0.58447  0.9474500000000001  0.9884099999999999  1.0000
  C   C73       1.0  0.56901  0.88179  0.06773000000000007  1.0000
  C   C74       1.0  0.59146  0.7968700000000002  0.07614999999999994  1.0000
  O   O45       1.0  0.6254800000000001  0.7875900000000002  0.03181999999999996  1.0000
  O   O46       1.0  0.57418  0.72748  0.13622000000000004  1.0000
  C   C75       1.0  0.53247  0.8989600000000002  0.14396  1.0000
  C   C76       1.0  0.51158  0.98078  0.14165  1.0000
  C   C77       1.0  0.47304999999999997  0.0027200000000000574  0.2297  1.0000
  F   F25       1.0  0.46785000000000004  0.9456700000000002  0.34212  1.0000
  F   F26       1.0  0.4746000000000001  0.08782000000000002  0.31859  1.0000
  C   C78       1.0  0.43729  0.000879999999999993  0.1103  1.0000
  F   F27       1.0  0.40613  0.04515000000000002  0.19577  1.0000
  F   F28       1.0  0.4447100000000001  0.046030000000000015  0.98214  1.0000
  C   C79       1.0  0.5281  0.046  0.06498  1.0000
  H   H25       1.0  0.6128500000000002  0.9356400000000001  0.9316800000000002  1.0000
  H   H26       1.0  0.5927400000000003  0.67361  0.13817  1.0000
  H   H27       1.0  0.52074  0.8494299999999999  0.208  1.0000
  H   H28       1.0  0.51288  0.11041000000000004  0.06802  1.0000
  C   C80       1.0  0.0376  0.42201  0.43742  1.0000
  C   C81       1.0  0.06379000000000001  0.4876200000000001  0.41814  1.0000
  C   C82       1.0  0.05167999999999999  0.55982  0.33905  1.0000
  C   C83       1.0  0.07896  0.63022  0.32107  1.0000
  O   O47       1.0  0.11189  0.62896  0.3826000000000001  1.0000
  O   O48       1.0  0.06725  0.69866  0.23374  1.0000
  C   C84       1.0  0.01297  0.56523  0.27828  1.0000
  C   C85       1.0  0.98639  0.4994800000000001  0.2955500000000001  1.0000
  C   C86       1.0  0.9449  0.50343  0.22491  1.0000
  F   F29       1.0  0.9392300000000001  0.5755600000000002  0.14162  1.0000
  F   F30       1.0  0.9397900000000001  0.42695  0.11252  1.0000
  C   C87       1.0  0.9131  0.50972  0.35596  1.0000
  F   F31       1.0  0.87688  0.52372  0.28342  1.0000
  F   F32       1.0  0.9121  0.43036  0.41789  1.0000
  C   C88       1.0  0.9992100000000002  0.42806  0.37551  1.0000
  H   H29       1.0  0.09331000000000002  0.48329000000000016  0.46791  1.0000
  H   H30       1.0  0.08852  0.74224  0.22821  1.0000
  H   H31       1.0  0.0036100000000000012  0.62093  0.21767  1.0000
  H   H32       1.0  0.9794900000000001  0.37585000000000013  0.38723  1.0000
