data_image0
_chemical_formula_structural       EuOCO6COC2EuOCO6COC2EuOCO6COC2EuOCO6COC3N2C2F2CF2OCN2C2F2CF2OCN2C2F2CF2OCN2C2F2CF2OCN2C2F2CF2OCN2C2F2CF2OCN2C2F2CF2OCN2C2F2CF2O
_chemical_formula_sum              "Eu4 O40 C48 N16 F32"
_cell_length_a       31.0543
_cell_length_b       13.756
_cell_length_c       10.5095
_cell_angle_alpha    96.737
_cell_angle_beta     85.9546
_cell_angle_gamma    90.2639

_symmetry_space_group_name_H-M    'P 1'
_symmetry_Int_Tables_number       1

loop_
  _symmetry_equiv_pos_as_xyz
  'x,y,z'

loop_
  _atom_site_type_symbol
  _atom_site_label
  _atom_site_symmetry_multiplicity
  _atom_site_fract_x
  _atom_site_fract_y
  _atom_site_fract_z
  _atom_site_occupancy
  Eu  Eu1       1.0  0.40278  0.71746  0.16779  1.0000
  O   O1        1.0  0.3661399999999999  0.009770000000000058  0.30513999999999997  1.0000
  C   C1        1.0  0.32204  0.61206  0.24752999999999997  1.0000
  O   O2        1.0  0.43815  0.63883  0.90345  1.0000
  O   O3        1.0  0.44685  0.7855799999999998  0.01967  1.0000
  O   O4        1.0  0.44424999999999987  0.52707  0.11997999999999999  1.0000
  O   O5        1.0  0.32428  0.60181  0.13069  1.0000
  O   O6        1.0  0.3570399999999999  0.64989  0.31151  1.0000
  O   O7        1.0  0.39995  0.8633399999999999  0.29618999999999995  1.0000
  C   C2        1.0  0.3683399999999999  0.92406  0.25826  1.0000
  O   O8        1.0  0.4609099999999999  0.65848  0.25591  1.0000
  C   C3        1.0  0.4686  0.56344  0.19805  1.0000
  C   C4        1.0  0.44756999999999997  0.7253  0.9037899999999999  1.0000
  Eu  Eu2       1.0  0.8612  0.7505799999999996  0.98876  1.0000
  O   O9        1.0  0.80083  0.9241299999999999  0.08799000000000001  1.0000
  C   C5        1.0  0.76807  0.66852  0.97302  1.0000
  O   O10       1.0  0.88998  0.9204999999999998  0.1836500000000001  1.0000
  O   O11       1.0  0.91461  0.86484  0.98053  1.0000
  O   O12       1.0  0.8897199999999997  0.5398399999999999  0.8788299999999999  1.0000
  O   O13       1.0  0.75368  0.74203  0.03732000000000002  1.0000
  O   O14       1.0  0.80868  0.6333  0.99245  1.0000
  O   O15       1.0  0.8195299999999998  0.84993  0.8884799999999999  1.0000
  C   C6        1.0  0.80157  0.9269499999999998  0.9726999999999999  1.0000
  O   O16       1.0  0.8847399999999997  0.68001  0.78876  1.0000
  C   C7        1.0  0.88494  0.57845  0.7821999999999999  1.0000
  C   C8        1.0  0.91392  0.9323499999999999  0.09010000000000007  1.0000
  Eu  Eu3       1.0  0.10816  0.27812  0.35796999999999995  1.0000
  O   O17       1.0  0.17057  0.17395  0.1803  1.0000
  C   C9        1.0  0.18618  0.36772  0.49148  1.0000
  O   O18       1.0  0.07657999999999997  0.31489  0.09939  1.0000
  O   O19       1.0  0.07577  0.17974999999999997  0.20295  1.0000
  O   O20       1.0  0.013979999999999998  0.30195  0.36154  1.0000
  O   O21       1.0  0.20181999999999994  0.32584  0.39005  1.0000
  O   O22       1.0  0.14142  0.37213999999999997  0.51516  1.0000
  O   O23       1.0  0.15054  0.1478  0.38288  1.0000
  C   C10       1.0  0.17790000000000003  0.13197999999999993  0.27214  1.0000
  O   O24       1.0  0.054709999999999995  0.24849000000000002  0.50894  1.0000
  C   C11       1.0  0.01632  0.28457  0.47196  1.0000
  C   C12       1.0  0.07122  0.22653999999999996  0.09436  1.0000
  Eu  Eu4       1.0  0.61138  0.23735  0.63865  1.0000
  O   O25       1.0  0.68346  0.28724  0.80868  1.0000
  C   C13       1.0  0.62054  0.46063999999999994  0.71892  1.0000
  O   O26       1.0  0.60829  0.10584999999999999  0.86264  1.0000
  O   O27       1.0  0.5907  0.07969  0.65632  1.0000
  O   O28       1.0  0.53918  0.25864  0.4703  1.0000
  O   O29       1.0  0.60957  0.43105  0.82127  1.0000
  O   O30       1.0  0.6303899999999997  0.39410999999999996  0.61026  1.0000
  O   O31       1.0  0.6825899999999999  0.19369  0.6178299999999999  1.0000
  C   C14       1.0  0.70412  0.24846  0.7132699999999998  1.0000
  O   O32       1.0  0.60817  0.20762  0.42214  1.0000
  C   C15       1.0  0.56732  0.23009999999999994  0.3871  1.0000
  C   C16       1.0  0.59047  0.05417999999999999  0.78039  1.0000
  C   C17       1.0  0.28228  0.58605  0.31845  1.0000
  N   N1        1.0  0.24580999999999997  0.56215  0.26087  1.0000
  N   N2        1.0  0.21771999999999997  0.53807  0.3516  1.0000
  C   C18       1.0  0.23841999999999994  0.54975  0.46046  1.0000
  C   C19       1.0  0.21829  0.52606  0.58729  1.0000
  F   F1        1.0  0.24338999999999997  0.56544  0.6841499999999999  1.0000
  F   F2        1.0  0.17769  0.56867  0.60853  1.0000
  C   C20       1.0  0.2151  0.4145399999999999  0.58999  1.0000
  F   F3        1.0  0.19882  0.39476  0.71029  1.0000
  F   F4        1.0  0.25605  0.3733699999999999  0.56735  1.0000
  O   O33       1.0  0.27877  0.57965  0.44308  1.0000
  C   C21       1.0  0.7849  0.012699999999999928  0.9216099999999999  1.0000
  N   N3        1.0  0.76487  0.08808999999999999  0.99478  1.0000
  N   N4        1.0  0.75822  0.1539600000000001  0.9167  1.0000
  C   C22       1.0  0.77471  0.11519999999999998  0.7997899999999999  1.0000
  C   C23       1.0  0.77808  0.16819999999999993  0.6822599999999999  1.0000
  F   F5        1.0  0.82113  0.18997  0.65749  1.0000
  F   F6        1.0  0.76505  0.10592  0.57948  1.0000
  C   C24       1.0  0.7520200000000001  0.26416  0.69567  1.0000
  F   F7        1.0  0.76023  0.30899  0.58532  1.0000
  F   F8        1.0  0.76559  0.32703  0.79771  1.0000
  O   O34       1.0  0.79177  0.027619999999999974  0.80017  1.0000
  C   C25       1.0  0.21641  0.0704  0.2652  1.0000
  N   N5        1.0  0.22822999999999993  0.022399999999999993  0.36134  1.0000
  N   N6        1.0  0.26445  0.9765  0.31769  1.0000
  C   C26       1.0  0.27299  9.999999999998992e-05  0.19783  1.0000
  C   C27       1.0  0.31025999999999987  0.9611699999999999  0.10731999999999998  1.0000
  F   F9        1.0  0.29343  0.91985  0.99534  1.0000
  F   F10       1.0  0.33613  0.03854000000000002  0.07706  1.0000
  C   C28       1.0  0.33798  0.8833  0.15829  1.0000
  F   F11       1.0  0.3624199999999999  0.83612  0.05471  1.0000
  F   F12       1.0  0.31129  0.8149399999999998  0.20916  1.0000
  O   O35       1.0  0.24348  0.05768  0.16227  1.0000
  C   C29       1.0  0.74366  0.61909  0.87041  1.0000
  N   N7        1.0  0.75882  0.54047  0.79265  1.0000
  N   N8        1.0  0.73085  0.52282  0.7045299999999999  1.0000
  C   C30       1.0  0.7  0.5915699999999998  0.7331899999999999  1.0000
  C   C31       1.0  0.66393  0.6041  0.64897  1.0000
  F   F13       1.0  0.66042  0.70275  0.63526  1.0000
  F   F14       1.0  0.67371  0.55385  0.5282  1.0000
  C   C32       1.0  0.62047  0.5686500000000001  0.70591  1.0000
  F   F15       1.0  0.58916  0.58531  0.62376  1.0000
  F   F16       1.0  0.60986  0.62212  0.82396  1.0000
  O   O36       1.0  0.7071299999999998  0.65301  0.83572  1.0000
  C   C33       1.0  0.50575  0.50658  0.22722  1.0000
  N   N9        1.0  0.53212  0.5352899999999999  0.32045  1.0000
  N   N10       1.0  0.56115  0.46497  0.31602  1.0000
  C   C34       1.0  0.5509399999999998  0.39722999999999997  0.22009  1.0000
  C   C35       1.0  0.5763  0.30469  0.17858999999999997  1.0000
  F   F17       1.0  0.57392  0.28144  0.04733  1.0000
  F   F18       1.0  0.6193499999999997  0.32004  0.20203  1.0000
  C   C36       1.0  0.55804  0.21858  0.24734999999999996  1.0000
  F   F19       1.0  0.5768  0.13204999999999997  0.18852  1.0000
  F   F20       1.0  0.5138299999999998  0.21168999999999993  0.23611999999999997  1.0000
  O   O37       1.0  0.51664  0.42113  0.16303  1.0000
  C   C37       1.0  0.94146  0.019360000000000044  0.08948  1.0000
  N   N11       1.0  0.9453499999999998  0.08660000000000001  0.1915  1.0000
  N   N12       1.0  0.9720399999999998  0.15324999999999997  0.15158  1.0000
  C   C38       1.0  0.9829099999999998  0.12330999999999998  0.027369999999999894  1.0000
  C   C39       1.0  0.01249  0.17870999999999992  0.9427399999999999  1.0000
  F   F21       1.0  0.008150000000000001  0.14086  0.81598  1.0000
  F   F22       1.0  0.0003600000000000032  0.27643999999999996  0.9574599999999999  1.0000
  C   C40       1.0  0.060149999999999995  0.16808999999999996  0.97115  1.0000
  F   F23       1.0  0.08604  0.19892999999999997  0.8711599999999999  1.0000
  F   F24       1.0  0.06941  0.07015  0.97627  1.0000
  O   O38       1.0  0.96436  0.04028000000000009  0.9859899999999999  1.0000
  C   C41       1.0  0.56859  0.96369  0.8094  1.0000
  N   N13       1.0  0.56688  0.9298  0.92431  1.0000
  N   N14       1.0  0.54394  0.8488199999999998  0.9115300000000001  1.0000
  C   C42       1.0  0.5329  0.83751  0.7894699999999999  1.0000
  C   C43       1.0  0.5061  0.75437  0.73267  1.0000
  F   F25       1.0  0.51031  0.7517999999999998  0.60021  1.0000
  F   F26       1.0  0.5219499999999998  0.66698  0.7638  1.0000
  C   C44       1.0  0.45786  0.76647  0.7788399999999999  1.0000
  F   F27       1.0  0.43317  0.71722  0.6870499999999999  1.0000
  F   F28       1.0  0.4458699999999999  0.86436  0.7925599999999999  1.0000
  O   O39       1.0  0.54782  0.90779  0.72363  1.0000
  C   C45       1.0  0.97958  0.30885  0.5652  1.0000
  N   N15       1.0  0.98224  0.3166  0.6933  1.0000
  N   N16       1.0  0.9447099999999999  0.35183  0.74442  1.0000
  C   C46       1.0  0.92159  0.36614  0.64485  1.0000
  C   C47       1.0  0.8766  0.4069799999999999  0.6577899999999999  1.0000
  F   F29       1.0  0.85516  0.3642899999999999  0.55463  1.0000
  F   F30       1.0  0.85484  0.38149  0.76849  1.0000
  C   C48       1.0  0.87668  0.51939  0.65587  1.0000
  F   F31       1.0  0.83674  0.54735  0.62212  1.0000
  F   F32       1.0  0.90724  0.5447  0.56287  1.0000
  O   O40       1.0  0.9424399999999998  0.34017  0.53213  1.0000
