data_image0
_chemical_formula_structural       EuOCO6COC2EuOCO6COC2EuOCO6COC2EuOCO6COC3N2C2F2CF2SCN2C2F2CF2SCN2C2F2CF2SCN2C2F2CF2SCN2C2F2CF2SCN2C2F2CF2SCN2C2F2CF2SCN2C2F2CF2S
_chemical_formula_sum              "Eu4 O32 C48 N16 F32 S8"
_cell_length_a       35.8458
_cell_length_b       16.017
_cell_length_c       13.6759
_cell_angle_alpha    90.1916
_cell_angle_beta     94.7773
_cell_angle_gamma    81.7386

_space_group_name_H-M_alt    "P 1"
_space_group_IT_number       1

loop_
  _space_group_symop_operation_xyz
  'x, y, z'

loop_
  _atom_site_type_symbol
  _atom_site_label
  _atom_site_symmetry_multiplicity
  _atom_site_fract_x
  _atom_site_fract_y
  _atom_site_fract_z
  _atom_site_occupancy
  Eu  Eu1       1.0  0.39443  0.72063  0.1348  1.0000
  O   O1        1.0  0.35452  0.85716  0.9974200000000001  1.0000
  C   C1        1.0  0.31969999999999993  0.65252  0.08857000000000002  1.0000
  O   O2        1.0  0.4329  0.75591  0.95643  1.0000
  O   O3        1.0  0.43852  0.8059099999999998  0.11076  1.0000
  O   O4        1.0  0.46928  0.65822  0.24206000000000003  1.0000
  O   O5        1.0  0.32334000000000007  0.6920499999999998  0.01491  1.0000
  O   O6        1.0  0.3497399999999999  0.63686  0.16019  1.0000
  O   O7        1.0  0.35143999999999986  0.8363699999999997  0.15969  1.0000
  C   C2        1.0  0.33818000000000004  0.8764899999999998  0.07075  1.0000
  O   O8        1.0  0.41344000000000003  0.7122599999999998  0.29791  1.0000
  C   C3        1.0  0.45086999999999994  0.67459  0.31258000000000014  1.0000
  C   C4        1.0  0.44713000000000014  0.8035399999999998  0.013280000000000002  1.0000
  Eu  Eu2       1.0  0.9026199999999999  0.6598699999999997  0.8524300000000001  1.0000
  O   O9        1.0  0.8365099999999998  0.7475899999999998  0.9446300000000001  1.0000
  C   C5        1.0  0.8552  0.53304  0.9250900000000002  1.0000
  O   O10       1.0  0.92303  0.7780499999999998  0.014510000000000023  1.0000
  O   O11       1.0  0.9464299999999998  0.74983  0.8678500000000001  1.0000
  O   O12       1.0  0.9380999999999999  0.50148  0.7620700000000002  1.0000
  O   O13       1.0  0.8779299999999999  0.54209  0.99429  1.0000
  O   O14       1.0  0.8579299999999999  0.57207  0.83602  1.0000
  O   O15       1.0  0.8581399999999999  0.76922  0.79806  1.0000
  C   C6        1.0  0.8332499999999999  0.79003  0.8698000000000001  1.0000
  O   O16       1.0  0.9184  0.63112  0.69668  1.0000
  C   C7        1.0  0.93774  0.54944  0.69254  1.0000
  C   C8        1.0  0.9432399999999999  0.79672  0.9532100000000002  1.0000
  Eu  Eu3       1.0  0.09427000000000003  0.3041999999999999  0.11379  1.0000
  O   O17       1.0  0.16339  0.22681  0.01072  1.0000
  C   C9        1.0  0.1578  0.41516  0.16384  1.0000
  O   O18       1.0  0.02377  0.26408  0.00314  1.0000
  O   O19       1.0  0.06483999999999997  0.18732  0.11373000000000003  1.0000
  O   O20       1.0  0.022989999999999997  0.3722699999999999  0.21134000000000006  1.0000
  O   O21       1.0  0.16111  0.37951  0.24340000000000006  1.0000
  O   O22       1.0  0.12370000000000005  0.4211299999999999  0.10552  1.0000
  O   O23       1.0  0.14937  0.22279  0.16848000000000005  1.0000
  C   C10       1.0  0.17345  0.20335999999999996  0.09456  1.0000
  O   O24       1.0  0.08319  0.3304  0.27338000000000007  1.0000
  C   C11       1.0  0.045390000000000014  0.3606699999999999  0.28371  1.0000
  C   C12       1.0  0.03672  0.19419999999999996  0.03635  1.0000
  Eu  Eu4       1.0  0.6047999999999998  0.28234  0.84818  1.0000
  O   O25       1.0  0.6417399999999998  0.10982  0.9107200000000001  1.0000
  C   C13       1.0  0.6733299999999998  0.34981999999999996  0.95001  1.0000
  O   O26       1.0  0.56041  0.20151  0.9909600000000002  1.0000
  O   O27       1.0  0.5617  0.19092  0.8266600000000002  1.0000
  O   O28       1.0  0.57237  0.46036  0.7865000000000001  1.0000
  O   O29       1.0  0.6682  0.29126999999999986  0.0020700000000000163  1.0000
  O   O30       1.0  0.64847  0.3727799999999999  0.8675200000000002  1.0000
  O   O31       1.0  0.6479099999999999  0.18786  0.7772200000000002  1.0000
  C   C14       1.0  0.6579400000000001  0.11639  0.8366800000000002  1.0000
  O   O32       1.0  0.58288  0.34076  0.6990900000000002  1.0000
  C   C15       1.0  0.5672999999999998  0.42489  0.7084000000000003  1.0000
  C   C16       1.0  0.54952  0.16865999999999995  0.9154500000000001  1.0000
  C   C17       1.0  0.2834999999999999  0.6234  0.10206  1.0000
  N   N1        1.0  0.25282000000000004  0.6447699999999997  0.03898  1.0000
  N   N2        1.0  0.22307000000000002  0.6133899999999998  0.06521  1.0000
  C   C18       1.0  0.23067  0.5676699999999998  0.14871  1.0000
  C   C19       1.0  0.20095  0.52551  0.19249000000000002  1.0000
  F   F1        1.0  0.16928  0.58492  0.20073  1.0000
  F   F2        1.0  0.21428  0.4949999999999999  0.28549  1.0000
  C   C20       1.0  0.19038999999999998  0.45231  0.12755  1.0000
  F   F3        1.0  0.22122  0.3892899999999999  0.12681  1.0000
  F   F4        1.0  0.18043999999999996  0.48081  0.03207  1.0000
  S   S1        1.0  0.27634  0.5625  0.19947000000000006  1.0000
  C   C21       1.0  0.8036  0.86314  0.85612  1.0000
  N   N3        1.0  0.7994799999999997  0.9124  0.7755400000000002  1.0000
  N   N4        1.0  0.77189  0.9761099999999999  0.77951  1.0000
  C   C22       1.0  0.7545599999999998  0.97581  0.8630200000000002  1.0000
  C   C23       1.0  0.72337  0.04434  0.8863900000000001  1.0000
  F   F5        1.0  0.73722  0.1206  0.8866700000000002  1.0000
  F   F6        1.0  0.71256  0.030559999999999997  0.9793  1.0000
  C   C24       1.0  0.68886  0.04820999999999999  0.81066  1.0000
  F   F7        1.0  0.6752199999999997  0.97148  0.80802  1.0000
  F   F8        1.0  0.6993299999999999  0.06517  0.7182500000000003  1.0000
  S   S2        1.0  0.7725599999999998  0.89452  0.94206  1.0000
  C   C25       1.0  0.21086  0.15453  0.11892  1.0000
  N   N5        1.0  0.22281  0.13051  0.21163  1.0000
  N   N6        1.0  0.2567900000000001  0.08603999999999966  0.21819000000000005  1.0000
  C   C26       1.0  0.27128  0.07550999999999995  0.13055  1.0000
  C   C27       1.0  0.3086199999999999  0.021390000000000017  0.11933  1.0000
  F   F9        1.0  0.3268099999999999  0.0021199999999998997  0.21166000000000004  1.0000
  F   F10       1.0  0.33101  0.06622  0.0679  1.0000
  C   C28       1.0  0.30266999999999994  0.93952  0.06441  1.0000
  F   F11       1.0  0.29113999999999995  0.9583  0.96671  1.0000
  F   F12       1.0  0.27470999999999995  0.90272  0.10459  1.0000
  S   S3        1.0  0.24228999999999998  0.12203999999999997  0.03398  1.0000
  C   C29       1.0  0.82482  0.4823  0.93619  1.0000
  N   N7        1.0  0.8230599999999998  0.43725999999999987  0.01802999999999999  1.0000
  N   N8        1.0  0.7933899999999998  0.3969299999999999  0.012720000000000065  1.0000
  C   C30       1.0  0.77201  0.4111599999999999  0.92712  1.0000
  C   C31       1.0  0.7375699999999998  0.36889  0.9027700000000002  1.0000
  F   F13       1.0  0.74855  0.28262  0.90952  1.0000
  F   F14       1.0  0.72304  0.3888099999999999  0.8073  1.0000
  C   C32       1.0  0.7068399999999998  0.3954899999999999  0.9735400000000002  1.0000
  F   F15       1.0  0.69501  0.4815199999999999  0.9657300000000001  1.0000
  F   F16       1.0  0.72146  0.37667  0.06929000000000007  1.0000
  S   S4        1.0  0.78877  0.4763  0.84739  1.0000
  C   C33       1.0  0.46778  0.65243  0.41218000000000005  1.0000
  N   N9        1.0  0.44848  0.6698299999999998  0.49154  1.0000
  N   N10       1.0  0.46838  0.64182  0.57335  1.0000
  C   C34       1.0  0.50319  0.6029999999999998  0.55747  1.0000
  C   C35       1.0  0.53072  0.56425  0.63994  1.0000
  F   F17       1.0  0.51316  0.57329  0.7268200000000002  1.0000
  F   F18       1.0  0.56166  0.60739  0.6481  1.0000
  C   C36       1.0  0.54408  0.46962  0.62184  1.0000
  F   F19       1.0  0.56598  0.4614299999999999  0.54265  1.0000
  F   F20       1.0  0.51286  0.42886  0.6003100000000001  1.0000
  S   S5        1.0  0.51279  0.60059  0.43685000000000007  1.0000
  C   C37       1.0  0.9637499999999999  0.86927  0.9678700000000002  1.0000
  N   N11       1.0  0.98279  0.89673  0.89677  1.0000
  N   N12       1.0  0.9981  0.9643  0.92294  1.0000
  C   C38       1.0  0.9909799999999999  0.98944  0.014520000000000088  1.0000
  C   C39       1.0  0.004869999999999998  0.0659  0.06163  1.0000
  F   F21       1.0  0.03016  0.03906  0.14117  1.0000
  F   F22       1.0  0.97427  0.11763  0.09527  1.0000
  C   C40       1.0  0.024189999999999996  0.11639  0.98977  1.0000
  F   F23       1.0  0.9992099999999999  0.14005  0.90836  1.0000
  F   F24       1.0  0.055799999999999995  0.06647  0.9588  1.0000
  S   S6        1.0  0.96417  0.92801  0.07287  1.0000
  C   C41       1.0  0.52365  0.10566  0.91727  1.0000
  N   N13       1.0  0.5119  0.06734  0.8351800000000003  1.0000
  N   N14       1.0  0.48869  0.013319999999999999  0.85234  1.0000
  C   C42       1.0  0.48257  0.009519999999999971  0.9478200000000002  1.0000
  C   C43       1.0  0.45659999999999995  0.9531799999999998  0.9847900000000002  1.0000
  F   F25       1.0  0.4223200000000001  0.96759  0.9284300000000001  1.0000
  F   F26       1.0  0.45016999999999996  0.9731499999999998  0.08131000000000002  1.0000
  C   C44       1.0  0.47374  0.8595899999999997  0.97863  1.0000
  F   F27       1.0  0.5074599999999998  0.8447399999999998  0.03729000000000001  1.0000
  F   F28       1.0  0.48106  0.83973  0.88253  1.0000
  S   S7        1.0  0.506  0.07503999999999997  0.02182  1.0000
  C   C45       1.0  0.03294  0.37808999999999987  0.3821500000000001  1.0000
  N   N15       1.0  0.05757  0.3695799999999999  0.46231  1.0000
  N   N16       1.0  0.04091  0.3872  0.5437  1.0000
  C   C46       1.0  0.0032899999999999987  0.40979  0.52677  1.0000
  C   C47       1.0  0.9783  0.4304699999999999  0.60932  1.0000
  F   F29       1.0  0.00036999999999998444  0.4170799999999999  0.69767  1.0000
  F   F30       1.0  0.9513399999999999  0.37637  0.6052  1.0000
  C   C48       1.0  0.9585099999999998  0.52286  0.60334  1.0000
  F   F31       1.0  0.93272  0.53335  0.52154  1.0000
  F   F32       1.0  0.9852499999999998  0.57619  0.59417  1.0000
  S   S8        1.0  0.9867999999999999  0.4094799999999999  0.40543  1.0000
