data_image0
_chemical_formula_structural       O4CDy2ODyCDyC2O4CO2CO2CO4CO4CDy2ODyCDyC2O4CO2CO2CO4C5O2C3F2CF2CH4C4O2C3F2CF2CH4C4O2C3F2CF2CH4C4O2C3F2CF2CH4C4O2C3F2CF2CH4C4O2C3F2CF2CH4C4O2C3F2CF2CH4C4O2C3F2CF2CH4
_chemical_formula_sum              "O50 C88 Dy8 F32 H32"
_cell_length_a       14.7275
_cell_length_b       17.008700000000005
_cell_length_c       13.7904
_cell_angle_alpha    92.34579999999998
_cell_angle_beta     93.192
_cell_angle_gamma    93.8602

_symmetry_space_group_name_H-M    'P 1'
_symmetry_Int_Tables_number       1

loop_
  _symmetry_equiv_pos_as_xyz
  'x,y,z'

loop_
  _atom_site_type_symbol
  _atom_site_label
  _atom_site_symmetry_multiplicity
  _atom_site_fract_x
  _atom_site_fract_y
  _atom_site_fract_z
  _atom_site_occupancy
  O   O1        1.0  0.04125  0.06052  0.09449999999999997  1.0000
  O   O2        1.0  0.006729999999999998  0.0623  0.24349999999999994  1.0000
  O   O3        1.0  0.96538  0.07117  0.92655  1.0000
  O   O4        1.0  0.97001  0.09746999999999999  0.7752299999999998  1.0000
  C   C1        1.0  0.79039  0.8568  0.026669999999999996  1.0000
  Dy  Dy1       1.0  0.85473  0.9831200000000002  0.93896  1.0000
  Dy  Dy2       1.0  0.15309  0.98915  0.05204999999999992  1.0000
  O   O5        1.0  0.005309999999999994  0.03210999999999999  0.9999599999999998  1.0000
  Dy  Dy3       1.0  0.04698000000000002  0.0009100000000000021  0.83377  1.0000
  C   C2        1.0  0.19761999999999996  0.8948  0.9002299999999998  1.0000
  Dy  Dy4       1.0  0.94626  0.96646  0.14392  1.0000
  C   C3        1.0  0.9437299999999998  0.12098000000000002  0.8521999999999997  1.0000
  C   C4        1.0  0.91265  0.89271  0.7607899999999999  1.0000
  O   O6        1.0  0.88221  0.8830100000000001  0.03275  1.0000
  O   O7        1.0  0.74751  0.89205  0.9662499999999999  1.0000
  O   O8        1.0  0.11197999999999998  0.91377  0.9179199999999997  1.0000
  O   O9        1.0  0.24903  0.91661  0.9685699999999998  1.0000
  C   C5        1.0  0.09465999999999998  0.8805  0.19630999999999996  1.0000
  O   O10       1.0  0.93586  0.90772  0.8564799999999998  1.0000
  O   O11       1.0  0.96506  0.93007  0.7138699999999998  1.0000
  C   C6        1.0  0.19053999999999996  0.10972  0.9358999999999997  1.0000
  O   O12       1.0  0.06714  0.89683  0.10672  1.0000
  O   O13       1.0  0.038869999999999995  0.90188  0.24815999999999994  1.0000
  C   C7        1.0  0.76921  0.0776  0.06476  1.0000
  O   O14       1.0  0.10679999999999999  0.07604  0.9505299999999998  1.0000
  O   O15       1.0  0.24425  0.08394  0.9923  1.0000
  O   O16       1.0  0.83817  0.0333  0.08919  1.0000
  O   O17       1.0  0.7567999999999998  0.07329999999999999  0.9786299999999999  1.0000
  C   C8        1.0  0.05078  0.09819  0.18637999999999993  1.0000
  O   O18       1.0  0.5773  0.55148  0.6453499999999999  1.0000
  O   O19       1.0  0.5344999999999998  0.53157  0.7829299999999998  1.0000
  O   O20       1.0  0.4412  0.5671  0.40624999999999994  1.0000
  O   O21       1.0  0.47511999999999993  0.60159  0.26954999999999996  1.0000
  C   C9        1.0  0.34578  0.33357  0.5420699999999999  1.0000
  Dy  Dy5       1.0  0.35959  0.46778  0.4410799999999999  1.0000
  Dy  Dy6       1.0  0.66617  0.48833  0.55995  1.0000
  O   O22       1.0  0.50956  0.52379  0.51168  1.0000
  Dy  Dy7       1.0  0.55658  0.51172  0.34508  1.0000
  C   C10       1.0  0.69979  0.39797  0.39914  1.0000
  Dy  Dy8       1.0  0.47006999999999993  0.45519  0.65704  1.0000
  C   C11       1.0  0.41422  0.60099  0.32388  1.0000
  C   C12       1.0  0.43519  0.41036  0.24117  1.0000
  O   O23       1.0  0.42303  0.37891  0.5331099999999998  1.0000
  O   O24       1.0  0.28425  0.36016  0.4965599999999999  1.0000
  O   O25       1.0  0.61701  0.41892  0.42343999999999987  1.0000
  O   O26       1.0  0.75587  0.4233  0.46115  1.0000
  C   C13       1.0  0.59971  0.35409  0.69637  1.0000
  O   O27       1.0  0.44792  0.41248  0.34051999999999993  1.0000
  O   O28       1.0  0.49705000000000005  0.44881  0.20879  1.0000
  C   C14       1.0  0.69115  0.62141  0.4583699999999999  1.0000
  O   O29       1.0  0.5852399999999999  0.38755  0.60894  1.0000
  O   O30       1.0  0.5394  0.36922  0.74831  1.0000
  C   C15       1.0  0.3299899999999999  0.56211  0.5992  1.0000
  O   O31       1.0  0.60962  0.58118  0.46997  1.0000
  O   O32       1.0  0.74916  0.59208  0.50641  1.0000
  O   O33       1.0  0.41359  0.54301  0.57059  1.0000
  O   O34       1.0  0.27231  0.53137  0.54221  1.0000
  C   C16       1.0  0.59441  0.56489  0.74203  1.0000
  C   C17       1.0  0.90999  0.19977  0.8662099999999998  1.0000
  C   C18       1.0  0.94494  0.24777  0.9464399999999997  1.0000
  C   C19       1.0  0.9293699999999999  0.32832  0.9522299999999998  1.0000
  C   C20       1.0  0.9751299999999999  0.38018  0.03203999999999984  1.0000
  O   O35       1.0  0.9954  0.35259000000000007  0.10976999999999969  1.0000
  O   O36       1.0  0.99808  0.46012  0.020019999999999927  1.0000
  C   C21       1.0  0.87215  0.35902  0.88043  1.0000
  C   C22       1.0  0.83439  0.31112  0.80061  1.0000
  C   C23       1.0  0.76986  0.34354  0.7246099999999999  1.0000
  F   F1        1.0  0.76456  0.42403  0.7423899999999998  1.0000
  F   F2        1.0  0.805  0.3334  0.6341699999999999  1.0000
  C   C24       1.0  0.67335  0.30062  0.72352  1.0000
  F   F3        1.0  0.66715  0.23653999999999997  0.6576799999999998  1.0000
  F   F4        1.0  0.65675  0.27278  0.8145699999999998  1.0000
  C   C25       1.0  0.85601  0.23187  0.7928399999999998  1.0000
  H   H1        1.0  0.9900400000000001  0.22381  0.0007600000000000938  1.0000
  H   H2        1.0  0.99026  0.47636  0.95041  1.0000
  H   H3        1.0  0.8559599999999998  0.42003  0.8876699999999997  1.0000
  H   H4        1.0  0.83037  0.19511  0.72995  1.0000
  C   C26       1.0  0.70903  0.11469999999999998  0.13059999999999997  1.0000
  C   C27       1.0  0.61534  0.09655  0.11449999999999998  1.0000
  C   C28       1.0  0.55444  0.12399000000000002  0.17988  1.0000
  C   C29       1.0  0.4565  0.10102000000000001  0.16418999999999997  1.0000
  O   O37       1.0  0.42382  0.08396  0.08222  1.0000
  O   O38       1.0  0.40095  0.0992  0.24268999999999993  1.0000
  C   C30       1.0  0.58773  0.17305  0.25984999999999997  1.0000
  C   C31       1.0  0.68173  0.19458  0.27486  1.0000
  C   C32       1.0  0.71475  0.25493  0.35509  1.0000
  F   F5        1.0  0.65856  0.24678000000000003  0.43223  1.0000
  F   F6        1.0  0.80183  0.24029  0.38973  1.0000
  C   C33       1.0  0.71485  0.33999  0.31778999999999996  1.0000
  F   F7        1.0  0.7966999999999999  0.36039  0.2776  1.0000
  F   F8        1.0  0.64543  0.34509  0.24671999999999994  1.0000
  C   C34       1.0  0.74264  0.16345  0.2107  1.0000
  H   H5        1.0  0.59021  0.05782  0.05291999999999999  1.0000
  H   H6        1.0  0.33549  0.0806  0.22271  1.0000
  H   H7        1.0  0.5402  0.19635  0.30888  1.0000
  H   H8        1.0  0.81524  0.17858  0.22133999999999998  1.0000
  C   C35       1.0  0.74764  0.79022  0.07777999999999999  1.0000
  C   C36       1.0  0.66597  0.7525  0.03641  1.0000
  C   C37       1.0  0.62247  0.68869  0.08050999999999997  1.0000
  C   C38       1.0  0.53788  0.64818  0.03471  1.0000
  O   O39       1.0  0.4949299999999998  0.67903  0.9702799999999998  1.0000
  O   O40       1.0  0.50692  0.5743  0.06498  1.0000
  C   C39       1.0  0.66049  0.66356  0.16816999999999993  1.0000
  C   C40       1.0  0.73886  0.70317  0.21468  1.0000
  C   C41       1.0  0.77327  0.67495  0.31274999999999986  1.0000
  F   F9        1.0  0.78383  0.5947  0.3009799999999999  1.0000
  F   F10       1.0  0.8588599999999998  0.71099  0.33928999999999987  1.0000
  C   C42       1.0  0.70723  0.69147  0.39581  1.0000
  F   F11       1.0  0.7442  0.75446  0.4553  1.0000
  F   F12       1.0  0.62314  0.71188  0.3584799999999999  1.0000
  C   C43       1.0  0.78387  0.76579  0.16748  1.0000
  H   H9        1.0  0.63746  0.7714199999999999  0.9677399999999999  1.0000
  H   H10       1.0  0.44829  0.55286  0.028350000000000094  1.0000
  H   H11       1.0  0.62877  0.61314  0.20166999999999993  1.0000
  H   H12       1.0  0.84557  0.79613  0.20063  1.0000
  C   C44       1.0  0.18394999999999995  0.85214  0.22587  1.0000
  C   C45       1.0  0.26339  0.88829  0.19049999999999997  1.0000
  C   C46       1.0  0.34907  0.85968  0.21166999999999994  1.0000
  C   C47       1.0  0.43088  0.8904  0.16428  1.0000
  O   O41       1.0  0.42273  0.92412  0.0883  1.0000
  O   O42       1.0  0.51769  0.87782  0.20399999999999993  1.0000
  C   C48       1.0  0.35557  0.79761  0.27402  1.0000
  C   C49       1.0  0.27704  0.76044  0.30953999999999987  1.0000
  C   C50       1.0  0.28707  0.68707  0.36518  1.0000
  F   F13       1.0  0.35087999999999997  0.70485  0.44176  1.0000
  F   F14       1.0  0.20541  0.66341  0.40439999999999987  1.0000
  C   C51       1.0  0.31789  0.61953  0.29831  1.0000
  F   F15       1.0  0.26302999999999993  0.55162  0.3098999999999999  1.0000
  F   F16       1.0  0.30929  0.6362  0.20057  1.0000
  C   C52       1.0  0.19091999999999998  0.78786  0.28516  1.0000
  H   H13       1.0  0.25918  0.93956  0.14765  1.0000
  H   H14       1.0  0.56802  0.89995  0.16351999999999994  1.0000
  H   H15       1.0  0.4213  0.77468  0.2908599999999999  1.0000
  H   H16       1.0  0.12948  0.75879  0.31046  1.0000
  C   C53       1.0  0.09597999999999998  0.17644  0.21314  1.0000
  C   C54       1.0  0.05224  0.22802  0.2742  1.0000
  C   C55       1.0  0.09657  0.29935  0.31233  1.0000
  C   C56       1.0  0.046039999999999984  0.35306  0.3755199999999999  1.0000
  O   O43       1.0  0.9664099999999998  0.33523  0.38899  1.0000
  O   O44       1.0  0.08458  0.42372  0.42031  1.0000
  C   C57       1.0  0.1876  0.3166  0.28993999999999986  1.0000
  C   C58       1.0  0.23136  0.2672  0.22558  1.0000
  C   C59       1.0  0.33181  0.28392  0.20858999999999994  1.0000
  F   F17       1.0  0.38043  0.2669  0.2931199999999999  1.0000
  F   F18       1.0  0.35664  0.23279  0.13565999999999995  1.0000
  C   C60       1.0  0.3578  0.36951  0.17811999999999997  1.0000
  F   F19       1.0  0.38429  0.36679  0.08309  1.0000
  F   F20       1.0  0.2852  0.41705  0.1788  1.0000
  C   C61       1.0  0.1842  0.19705  0.18724  1.0000
  H   H17       1.0  0.98322  0.2116  0.29298  1.0000
  H   H18       1.0  0.15058  0.43761  0.40934  1.0000
  H   H19       1.0  0.22611  0.36811  0.32162  1.0000
  H   H20       1.0  0.21804  0.1554  0.14366999999999996  1.0000
  C   C62       1.0  0.67608  0.60706  0.7903299999999999  1.0000
  C   C63       1.0  0.7067299999999997  0.58618  0.8833199999999998  1.0000
  C   C64       1.0  0.79113  0.61755  0.9254899999999998  1.0000
  C   C65       1.0  0.82538  0.59224  0.021589999999999998  1.0000
  O   O45       1.0  0.78246  0.54101  0.06299999999999994  1.0000
  O   O46       1.0  0.90712  0.62666  0.06513999999999999  1.0000
  C   C66       1.0  0.84396  0.67161  0.87395  1.0000
  C   C67       1.0  0.81418  0.69288  0.78039  1.0000
  C   C68       1.0  0.87363  0.74709  0.72157  1.0000
  F   F21       1.0  0.9635899999999998  0.74842  0.7580799999999998  1.0000
  F   F22       1.0  0.87247  0.715  0.6273899999999998  1.0000
  C   C69       1.0  0.84022  0.83229  0.7193599999999998  1.0000
  F   F23       1.0  0.81762  0.85026  0.6243399999999998  1.0000
  F   F24       1.0  0.7631599999999997  0.8392600000000001  0.7714499999999997  1.0000
  C   C70       1.0  0.72949  0.66076  0.73969  1.0000
  H   H21       1.0  0.6661299999999998  0.54321  0.92139  1.0000
  H   H22       1.0  0.92311  0.60442  0.13056  1.0000
  H   H23       1.0  0.9089700000000001  0.69616  0.90612  1.0000
  H   H24       1.0  0.70599  0.6765  0.6676899999999998  1.0000
  C   C71       1.0  0.22227  0.85738  0.80828  1.0000
  C   C72       1.0  0.18169  0.88374  0.7227299999999999  1.0000
  C   C73       1.0  0.1978  0.84941  0.6324499999999997  1.0000
  C   C74       1.0  0.15567  0.88049  0.54334  1.0000
  O   O47       1.0  0.07782  0.90062  0.5428999999999999  1.0000
  O   O48       1.0  0.20421  0.8902  0.46034999999999987  1.0000
  C   C75       1.0  0.25445  0.78664  0.6279299999999998  1.0000
  C   C76       1.0  0.29813  0.75968  0.7124399999999997  1.0000
  C   C77       1.0  0.36179  0.69268  0.70346  1.0000
  F   F25       1.0  0.41629  0.70661  0.6264  1.0000
  F   F26       1.0  0.42027  0.69486  0.7858099999999999  1.0000
  C   C78       1.0  0.30972  0.60908  0.6905899999999999  1.0000
  F   F27       1.0  0.33305  0.56473  0.7690399999999997  1.0000
  F   F28       1.0  0.21625  0.61562  0.68993  1.0000
  C   C79       1.0  0.28192  0.79621  0.80346  1.0000
  H   H25       1.0  0.13932  0.93316  0.72611  1.0000
  H   H26       1.0  0.26982999999999996  0.87636  0.46910999999999997  1.0000
  H   H27       1.0  0.26349  0.7582  0.55857  1.0000
  H   H28       1.0  0.31323  0.77607  0.8700499999999998  1.0000
  C   C80       1.0  0.34134  0.25821  0.58952  1.0000
  C   C81       1.0  0.35336  0.18865  0.53499  1.0000
  C   C82       1.0  0.3564  0.1164  0.58033  1.0000
  C   C83       1.0  0.36924  0.04286999999999999  0.5232499999999999  1.0000
  O   O49       1.0  0.3886399999999998  0.98349  0.5644399999999998  1.0000
  O   O50       1.0  0.35879  0.04096  0.42211  1.0000
  C   C84       1.0  0.34667  0.11477999999999998  0.6807799999999998  1.0000
  C   C85       1.0  0.3349499999999999  0.18425  0.7363099999999999  1.0000
  C   C86       1.0  0.31707999999999986  0.17899  0.8429399999999998  1.0000
  F   F29       1.0  0.36652999999999997  0.11910999999999997  0.8797799999999998  1.0000
  F   F30       1.0  0.34962  0.24818000000000004  0.8935999999999997  1.0000
  C   C87       1.0  0.2127  0.16405  0.8560399999999998  1.0000
  F   F31       1.0  0.17503  0.23506  0.8750899999999998  1.0000
  F   F32       1.0  0.16897  0.12985  0.7714599999999998  1.0000
  C   C88       1.0  0.33249  0.2561  0.68995  1.0000
  H   H29       1.0  0.36193  0.19122  0.45762999999999987  1.0000
  H   H30       1.0  0.36875  0.9873000000000001  0.3913199999999999  1.0000
  H   H31       1.0  0.34607  0.05883  0.7157  1.0000
  H   H32       1.0  0.32333000000000006  0.3101  0.73165  1.0000
