data_image0
_chemical_formula_structural       EuOCO6COC2EuOCO6COC2EuOCO6COC2EuOCO6COC5BrC3F2CF2CH3C3BrC3F2CF2CH3C3BrC3F2CF2CH3C3BrC3F2CF2CH3C3BrC3F2CF2CH3C3BrC3F2CF2CH3C3BrC3F2CF2CH3C3BrC3F2CF2CH3
_chemical_formula_sum              "Eu4 O32 C80 Br8 F32 H24"
_cell_length_a       36.2932
_cell_length_b       15.9397
_cell_length_c       6.8794
_cell_angle_alpha    70.3831
_cell_angle_beta     85.56090000000002
_cell_angle_gamma    88.9896

_space_group_name_H-M_alt    "P 1"
_space_group_IT_number       1

loop_
  _space_group_symop_operation_xyz
  'x, y, z'

loop_
  _atom_site_type_symbol
  _atom_site_label
  _atom_site_symmetry_multiplicity
  _atom_site_fract_x
  _atom_site_fract_y
  _atom_site_fract_z
  _atom_site_occupancy
  Eu  Eu1       1.0  0.3634  0.76443  0.21974  1.0000
  O   O1        1.0  0.28066  0.80343  0.6633900000000003  1.0000
  C   C1        1.0  0.31742  0.6306  0.12302000000000002  1.0000
  O   O2        1.0  0.44267999999999996  0.85297  0.08216  1.0000
  O   O3        1.0  0.38653999999999994  0.90504  0.15224  1.0000
  O   O4        1.0  0.41628  0.64069  0.12135  1.0000
  O   O5        1.0  0.32245  0.69418  0.96481  1.0000
  O   O6        1.0  0.33733  0.6267  0.29012  1.0000
  O   O7        1.0  0.33497  0.77423  0.51786  1.0000
  C   C2        1.0  0.298  0.80022  0.50701  1.0000
  O   O8        1.0  0.41475  0.69958  0.37722  1.0000
  C   C3        1.0  0.43259000000000003  0.6543300000000002  0.25677  1.0000
  C   C4        1.0  0.42496  0.91196  0.1206  1.0000
  Eu  Eu2       1.0  0.89152  0.73073  0.9993  1.0000
  O   O9        1.0  0.86705  0.9321400000000003  0.8626800000000001  1.0000
  C   C5        1.0  0.81094  0.67999  0.98733  1.0000
  O   O10       1.0  0.91491  0.78562  0.34291000000000005  1.0000
  O   O11       1.0  0.93865  0.8200000000000001  0.01340000000000008  1.0000
  O   O12       1.0  0.91915  0.54894  0.13196999999999992  1.0000
  O   O13       1.0  0.80813  0.7416800000000002  0.05441000000000007  1.0000
  O   O14       1.0  0.84534  0.64163  0.97271  1.0000
  O   O15       1.0  0.87392  0.8313400000000002  0.69979  1.0000
  C   C6        1.0  0.85513  0.9008499999999999  0.74069  1.0000
  O   O16       1.0  0.93108  0.66216  0.83017  1.0000
  C   C7        1.0  0.93432  0.57325  0.9574000000000001  1.0000
  C   C8        1.0  0.9384499999999999  0.82617  0.20985999999999996  1.0000
  Eu  Eu3       1.0  0.11419  0.25431  0.27579  1.0000
  O   O17       1.0  0.19751  0.21102  0.24551  1.0000
  C   C9        1.0  0.14852  0.43787  0.05144000000000001  1.0000
  O   O18       1.0  0.10981  0.15218000000000004  0.96893  1.0000
  O   O19       1.0  0.09226  0.1172  0.3098  1.0000
  O   O20       1.0  0.06752  0.41007  0.35141000000000006  1.0000
  O   O21       1.0  0.14263  0.4076500000000001  0.9151  1.0000
  O   O22       1.0  0.13936999999999997  0.3871  0.25691  1.0000
  O   O23       1.0  0.154  0.18007  0.5115  1.0000
  C   C10       1.0  0.18322  0.15514  0.39993000000000006  1.0000
  O   O24       1.0  0.0677  0.2612  0.51424  1.0000
  C   C11       1.0  0.05012  0.34347  0.45473  1.0000
  C   C12       1.0  0.09933999999999998  0.09478  0.13153  1.0000
  Eu  Eu4       1.0  0.62919  0.3183200000000001  0.8014  1.0000
  O   O25       1.0  0.69383  0.18293999999999996  0.91606  1.0000
  C   C13       1.0  0.70474  0.41956999999999994  0.60749  1.0000
  O   O26       1.0  0.62722  0.09819000000000001  0.07481000000000004  1.0000
  O   O27       1.0  0.5865  0.21109999999999998  0.9866400000000002  1.0000
  O   O28       1.0  0.54454  0.3530700000000001  0.7537500000000001  1.0000
  O   O29       1.0  0.71642  0.34775  0.71014  1.0000
  O   O30       1.0  0.66689  0.43653  0.6167  1.0000
  O   O31       1.0  0.65776  0.22494999999999998  0.64688  1.0000
  C   C14       1.0  0.68494  0.17154999999999998  0.75936  1.0000
  O   O32       1.0  0.59354  0.35542  0.52697  1.0000
  C   C15       1.0  0.55573  0.35538  0.58023  1.0000
  C   C16       1.0  0.59675  0.12330000000000003  0.018329999999999957  1.0000
  C   C17       1.0  0.2896  0.5619  0.13607  1.0000
  C   C18       1.0  0.2925  0.4742100000000001  0.27111  1.0000
  C   C19       1.0  0.26667  0.40965  0.27316  1.0000
  Br  Br1       1.0  0.27121  0.28980999999999996  0.45335  1.0000
  C   C20       1.0  0.23760999999999996  0.43251  0.14263  1.0000
  C   C21       1.0  0.23347  0.52069  0.0117  1.0000
  C   C22       1.0  0.2015  0.54643  0.87249  1.0000
  F   F1        1.0  0.2042  0.63608  0.7533100000000001  1.0000
  F   F2        1.0  0.20427  0.49924000000000013  0.7350000000000001  1.0000
  C   C23       1.0  0.1632  0.53158  0.99646  1.0000
  F   F3        1.0  0.13771  0.58828  0.87901  1.0000
  F   F4        1.0  0.16522  0.5521100000000002  0.17656  1.0000
  C   C24       1.0  0.25985  0.58461  0.00941  1.0000
  H   H1        1.0  0.31506999999999996  0.45561000000000024  0.37096000000000007  1.0000
  H   H2        1.0  0.21827  0.3815  0.14386  1.0000
  H   H3        1.0  0.25734  0.65273  0.9102200000000001  1.0000
  C   C25       1.0  0.81905  0.9294100000000001  0.6549300000000001  1.0000
  C   C26       1.0  0.8022  0.8811800000000002  0.54825  1.0000
  C   C27       1.0  0.7667399999999999  0.90277  0.48329  1.0000
  Br  Br2       1.0  0.74448  0.83665  0.3371  1.0000
  C   C28       1.0  0.7474899999999999  0.97211  0.52533  1.0000
  C   C29       1.0  0.76389  0.02289999999999999  0.6297000000000001  1.0000
  C   C30       1.0  0.74471  0.10175999999999999  0.67352  1.0000
  F   F5        1.0  0.7564499999999998  0.10647000000000001  0.85668  1.0000
  F   F6        1.0  0.7563699999999999  0.17896  0.51507  1.0000
  C   C31       1.0  0.70184  0.09768999999999997  0.6919100000000002  1.0000
  F   F7        1.0  0.68931  0.10748999999999999  0.49992  1.0000
  F   F8        1.0  0.68944  0.01648  0.8330000000000001  1.0000
  C   C32       1.0  0.8001  0.0015199999999999563  0.6897700000000001  1.0000
  H   H4        1.0  0.81617  0.82545  0.51897  1.0000
  H   H5        1.0  0.72018  0.9861799999999998  0.47190000000000004  1.0000
  H   H6        1.0  0.81348  0.040429999999999994  0.76719  1.0000
  C   C33       1.0  0.19414  0.06076000000000001  0.45358  1.0000
  C   C34       1.0  0.17219  0.99407  0.59981  1.0000
  C   C35       1.0  0.18066999999999997  0.90441  0.63873  1.0000
  Br  Br3       1.0  0.15046999999999996  0.81382  0.8384  1.0000
  C   C36       1.0  0.21062999999999998  0.88036  0.52865  1.0000
  C   C37       1.0  0.23331  0.9459800000000003  0.3813  1.0000
  C   C38       1.0  0.26527  0.92599  0.2459  1.0000
  F   F9        1.0  0.25412  0.95104  0.04576000000000001  1.0000
  F   F10       1.0  0.2950499999999999  0.9801400000000001  0.24124000000000004  1.0000
  C   C39       1.0  0.2794  0.82913  0.30431  1.0000
  F   F11       1.0  0.30446  0.82533  0.14733  1.0000
  F   F12       1.0  0.25098  0.77075  0.31504  1.0000
  C   C40       1.0  0.22456  0.03606  0.3457700000000001  1.0000
  H   H7        1.0  0.14782  0.011390000000000004  0.67891  1.0000
  H   H8        1.0  0.21532999999999997  0.81016  0.56147  1.0000
  H   H9        1.0  0.24101  0.08744999999999999  0.22853  1.0000
  C   C41       1.0  0.77881  0.64942  0.9092500000000002  1.0000
  C   C42       1.0  0.74283  0.67588  0.95209  1.0000
  C   C43       1.0  0.71282  0.64746  0.8744200000000002  1.0000
  Br  Br4       1.0  0.66388  0.6822400000000002  0.9369800000000003  1.0000
  C   C44       1.0  0.7183799999999999  0.59338  0.7513600000000002  1.0000
  C   C45       1.0  0.7543299999999998  0.5674400000000003  0.7026500000000001  1.0000
  C   C46       1.0  0.76322  0.513  0.56052  1.0000
  F   F13       1.0  0.78807  0.56273  0.40168  1.0000
  F   F14       1.0  0.78128  0.43606  0.6693400000000002  1.0000
  C   C47       1.0  0.73061  0.48812999999999995  0.45738000000000006  1.0000
  F   F15       1.0  0.74483  0.45287  0.30847  1.0000
  F   F16       1.0  0.7111199999999999  0.56372  0.35748  1.0000
  C   C48       1.0  0.78416  0.5948900000000003  0.78601  1.0000
  H   H10       1.0  0.73793  0.7175700000000002  0.04718  1.0000
  H   H11       1.0  0.69443  0.57297  0.69504  1.0000
  H   H12       1.0  0.81199  0.57585  0.7483200000000001  1.0000
  C   C49       1.0  0.47098  0.62441  0.28894  1.0000
  C   C50       1.0  0.49476  0.66783  0.37616000000000005  1.0000
  C   C51       1.0  0.53138  0.6401000000000002  0.40289  1.0000
  Br  Br5       1.0  0.56402  0.70182  0.513  1.0000
  C   C52       1.0  0.5440799999999999  0.56646  0.3510600000000001  1.0000
  C   C53       1.0  0.52053  0.52098  0.26711  1.0000
  C   C54       1.0  0.53345  0.43713000000000013  0.22486  1.0000
  F   F17       1.0  0.51296  0.4234400000000001  0.07655  1.0000
  F   F18       1.0  0.56998  0.4474200000000001  0.14456  1.0000
  C   C55       1.0  0.52899  0.35456  0.42401000000000005  1.0000
  F   F19       1.0  0.53531  0.27779  0.37375  1.0000
  F   F20       1.0  0.49289  0.35027  0.51016  1.0000
  C   C56       1.0  0.48427999999999993  0.55245  0.23029000000000005  1.0000
  H   H13       1.0  0.48505  0.72331  0.4226  1.0000
  H   H14       1.0  0.57217  0.54393  0.37933  1.0000
  H   H15       1.0  0.4658  0.51745  0.16673000000000002  1.0000
  C   C57       1.0  0.96658  0.8806200000000001  0.2577100000000003  1.0000
  C   C58       1.0  0.9591099999999999  0.9152100000000002  0.41873  1.0000
  C   C59       1.0  0.9844599999999999  0.97142  0.45568000000000003  1.0000
  Br  Br6       1.0  0.97328  0.021349999999999984  0.6691400000000001  1.0000
  C   C60       1.0  0.017679999999999998  0.99287  0.33439  1.0000
  C   C61       1.0  0.026729999999999997  0.9569800000000002  0.17517999999999992  1.0000
  C   C62       1.0  0.06269  0.98073  0.036699999999999955  1.0000
  F   F21       1.0  0.07194  0.9107700000000001  0.96535  1.0000
  F   F22       1.0  0.05636000000000001  0.054169999999999996  0.8653400000000001  1.0000
  C   C63       1.0  0.09636999999999998  0.99853  0.14423  1.0000
  F   F23       1.0  0.12864  0.97825  0.04896999999999996  1.0000
  F   F24       1.0  0.09472  0.9433500000000001  0.3494200000000001  1.0000
  C   C64       1.0  0.0005299999999999194  0.9007100000000001  0.13839  1.0000
  H   H16       1.0  0.93307  0.90186  0.50986  1.0000
  H   H17       1.0  0.0359  0.037949999999999984  0.3663900000000001  1.0000
  H   H18       1.0  0.006359999999999921  0.8738599999999999  0.014019999999999923  1.0000
  C   C65       1.0  0.57025  0.06137000000000001  0.98467  1.0000
  C   C66       1.0  0.5822199999999998  0.9810599999999998  0.9594700000000003  1.0000
  C   C67       1.0  0.55722  0.9254500000000004  0.9162600000000001  1.0000
  Br  Br7       1.0  0.57394  0.81706  0.88022  1.0000
  C   C68       1.0  0.5199  0.9480200000000003  0.90296  1.0000
  C   C69       1.0  0.50704  0.02673999999999999  0.93348  1.0000
  C   C70       1.0  0.46605  0.048519999999999903  0.93165  1.0000
  F   F25       1.0  0.46142  0.1381600000000001  0.90679  1.0000
  F   F26       1.0  0.45208  0.035120000000000005  0.76225  1.0000
  C   C71       1.0  0.44423  0.99203  0.1377  1.0000
  F   F27       1.0  0.41758  0.04499000000000009  0.19445  1.0000
  F   F28       1.0  0.46739  0.96276  0.29781  1.0000
  C   C72       1.0  0.53252  0.08294  0.97512  1.0000
  H   H19       1.0  0.61121  0.9632200000000001  0.96535  1.0000
  H   H20       1.0  0.50116  0.9043500000000004  0.86702  1.0000
  H   H21       1.0  0.52306  0.14336  0.0015100000000000003  1.0000
  C   C73       1.0  0.01059  0.3505  0.51457  1.0000
  C   C74       1.0  0.98557  0.28327  0.52073  1.0000
  C   C75       1.0  0.9477  0.29322  0.56283  1.0000
  Br  Br8       1.0  0.91295  0.2054  0.5573  1.0000
  C   C76       1.0  0.93478  0.36891  0.60447  1.0000
  C   C77       1.0  0.95944  0.43635000000000007  0.60241  1.0000
  C   C78       1.0  0.94571  0.51629  0.65834  1.0000
  F   F29       1.0  0.96185  0.59296  0.51624  1.0000
  F   F30       1.0  0.9076999999999998  0.52372  0.64722  1.0000
  C   C79       1.0  0.9554499999999999  0.50765  0.87898  1.0000
  F   F31       1.0  0.99292  0.52278  0.87925  1.0000
  F   F32       1.0  0.94701  0.42215  0.01256999999999997  1.0000
  C   C80       1.0  0.99734  0.42691000000000023  0.55499  1.0000
  H   H22       1.0  0.99523  0.22477999999999998  0.48642  1.0000
  H   H23       1.0  0.90548  0.3739799999999999  0.6415200000000002  1.0000
  H   H24       1.0  0.01654  0.4789  0.55073  1.0000
