data_image0
_chemical_formula_structural       EuOCO6COC2EuOCO6COC2EuOCO6COC2EuOCO6COC3N2C2F2CF2N2H2CN2C2F2CF2N2H2CN2C2F2CF2N2H2CN2C2F2CF2N2H2CN2C2F2CF2N2H2CN2C2F2CF2N2H2CN2C2F2CF2N2H2CN2C2F2CF2N2H2
_chemical_formula_sum              "Eu4 O32 C48 N32 F32 H16"
_cell_length_a       34.098
_cell_length_b       16.731499999999997
_cell_length_c       6.472
_cell_angle_alpha    90.07729999999998
_cell_angle_beta     71.8513
_cell_angle_gamma    87.9948

_space_group_name_H-M_alt    "P 1"
_space_group_IT_number       1

loop_
  _space_group_symop_operation_xyz
  'x, y, z'

loop_
  _atom_site_type_symbol
  _atom_site_label
  _atom_site_symmetry_multiplicity
  _atom_site_fract_x
  _atom_site_fract_y
  _atom_site_fract_z
  _atom_site_occupancy
  Eu  Eu1       1.0  0.35554  0.70036  0.1621  1.0000
  O   O1        1.0  0.2951  0.84404  0.20456  1.0000
  C   C1        1.0  0.2924800000000001  0.60355  0.04271  1.0000
  O   O2        1.0  0.44673  0.7523400000000002  0.01477  1.0000
  O   O3        1.0  0.3856  0.8179  0.17949  1.0000
  O   O4        1.0  0.41701  0.5579700000000002  0.14986  1.0000
  O   O5        1.0  0.28508999999999995  0.6733700000000001  0.01282  1.0000
  O   O6        1.0  0.32267  0.5854500000000002  0.14084  1.0000
  O   O7        1.0  0.3011  0.7492  0.44215  1.0000
  C   C2        1.0  0.2903700000000001  0.8265  0.39337  1.0000
  O   O8        1.0  0.38355999999999996  0.64722  0.41062  1.0000
  C   C3        1.0  0.4152699999999999  0.59133  0.31898  1.0000
  C   C4        1.0  0.42817  0.81553  0.08309  1.0000
  Eu  Eu2       1.0  0.87825  0.7489000000000002  0.92199  1.0000
  O   O9        1.0  0.80584  0.76983  0.7459000000000001  1.0000
  C   C5        1.0  0.8390099999999998  0.58912  0.98635  1.0000
  O   O10       1.0  0.93738  0.78617  0.18832000000000007  1.0000
  O   O11       1.0  0.8971400000000002  0.86418  0.045090000000000074  1.0000
  O   O12       1.0  0.93482  0.59182  0.84502  1.0000
  O   O13       1.0  0.84636  0.60441  0.15417999999999998  1.0000
  O   O14       1.0  0.85618  0.63564  0.8052  1.0000
  O   O15       1.0  0.86929  0.81998  0.63853  1.0000
  C   C6        1.0  0.8287  0.81962  0.63896  1.0000
  O   O16       1.0  0.9459499999999998  0.7196000000000002  0.73665  1.0000
  C   C7        1.0  0.95895  0.64582  0.79662  1.0000
  C   C8        1.0  0.9276600000000002  0.85326  0.14471999999999996  1.0000
  Eu  Eu3       1.0  0.11839  0.22208  0.04596  1.0000
  O   O17       1.0  0.19782999999999998  0.13848000000000005  0.95048  1.0000
  C   C9        1.0  0.18952  0.31952000000000014  0.77238  1.0000
  O   O18       1.0  0.07406999999999998  0.15616  0.7403800000000001  1.0000
  O   O19       1.0  0.06344  0.14189  0.09824  1.0000
  O   O20       1.0  0.034339999999999996  0.31092  0.15179  1.0000
  O   O21       1.0  0.20634000000000002  0.26449  0.64882  1.0000
  O   O22       1.0  0.172  0.30532  0.993  1.0000
  O   O23       1.0  0.14485000000000003  0.14433000000000007  0.26147  1.0000
  C   C10       1.0  0.18454  0.11876  0.13979  1.0000
  O   O24       1.0  0.0821  0.30493  0.32624  1.0000
  C   C11       1.0  0.04914000000000001  0.34282  0.27736  1.0000
  C   C12       1.0  0.04929  0.14605  0.91931  1.0000
  Eu  Eu4       1.0  0.62161  0.23831000000000005  0.7618000000000001  1.0000
  O   O25       1.0  0.71371  0.21587  0.60395  1.0000
  C   C13       1.0  0.66644  0.37428  0.8845  1.0000
  O   O26       1.0  0.55995  0.19769  0.1729400000000001  1.0000
  O   O27       1.0  0.5797499999999999  0.13222  0.8523700000000001  1.0000
  O   O28       1.0  0.56618  0.3803600000000001  0.82477  1.0000
  O   O29       1.0  0.64631  0.34399  0.05620000000000003  1.0000
  O   O30       1.0  0.66287  0.34599  0.68845  1.0000
  O   O31       1.0  0.6650699999999999  0.16411  0.47955000000000003  1.0000
  C   C14       1.0  0.70524  0.16591  0.4892  1.0000
  O   O32       1.0  0.58403  0.2894100000000001  0.55269  1.0000
  C   C15       1.0  0.56077  0.35606  0.6593300000000001  1.0000
  C   C16       1.0  0.55628  0.13942000000000002  0.06942000000000004  1.0000
  C   C17       1.0  0.27049  0.53939  0.97341  1.0000
  N   N1        1.0  0.27154  0.46305  0.03736  1.0000
  N   N2        1.0  0.25368999999999997  0.4198600000000001  0.92227  1.0000
  C   C18       1.0  0.24197  0.4701200000000001  0.7875600000000001  1.0000
  C   C19       1.0  0.22689999999999996  0.44237  0.60354  1.0000
  F   F1        1.0  0.2568  0.3906600000000001  0.4702800000000001  1.0000
  F   F2        1.0  0.22152  0.50695  0.48086000000000007  1.0000
  C   C20       1.0  0.18546000000000004  0.40133  0.6849900000000001  1.0000
  F   F3        1.0  0.16978  0.39311  0.51227  1.0000
  F   F4        1.0  0.15756  0.44872  0.8429599999999999  1.0000
  N   N3        1.0  0.25104  0.5459500000000002  0.8208  1.0000
  N   N4        1.0  0.25173  0.60988  0.67952  1.0000
  H   H1        1.0  0.24788999999999997  0.66402  0.76503  1.0000
  H   H2        1.0  0.28071999999999997  0.60655  0.55862  1.0000
  C   C21       1.0  0.81252  0.8843200000000002  0.53227  1.0000
  N   N5        1.0  0.83561  0.94475  0.43059  1.0000
  N   N6        1.0  0.80999  0.0  0.39194  1.0000
  C   C22       1.0  0.77126  0.9732099999999998  0.47123999999999994  1.0000
  C   C23       1.0  0.73235  0.02580000000000004  0.51129  1.0000
  F   F5        1.0  0.71932  0.045790000000000004  0.73109  1.0000
  F   F6        1.0  0.702  0.98156  0.46957  1.0000
  C   C24       1.0  0.7375099999999999  0.10342  0.37394  1.0000
  F   F7        1.0  0.73341  0.08702  0.17179000000000003  1.0000
  F   F8        1.0  0.7761  0.13521  0.33946  1.0000
  N   N7        1.0  0.77227  0.9008000000000003  0.56072  1.0000
  N   N8        1.0  0.73883  0.85373  0.67013  1.0000
  H   H3        1.0  0.72258  0.841  0.56183  1.0000
  H   H4        1.0  0.7193599999999999  0.88775  0.7991400000000001  1.0000
  C   C25       1.0  0.21072  0.068  0.23196  1.0000
  N   N9        1.0  0.25099  0.05113  0.12477  1.0000
  N   N10       1.0  0.26443  0.99963  0.24506000000000003  1.0000
  C   C26       1.0  0.23219999999999996  0.9840600000000002  0.42174  1.0000
  C   C27       1.0  0.23404  0.92772  0.60123  1.0000
  F   F9        1.0  0.20583000000000004  0.8688  0.61892  1.0000
  F   F10       1.0  0.22269999999999998  0.9712  0.79278  1.0000
  C   C28       1.0  0.27729  0.88909  0.57109  1.0000
  F   F11       1.0  0.27714  0.8536200000000003  0.76445  1.0000
  F   F12       1.0  0.30659  0.9473800000000002  0.52799  1.0000
  N   N11       1.0  0.19815  0.0269  0.41716  1.0000
  N   N12       1.0  0.15807  0.02634000000000001  0.56644  1.0000
  H   H5        1.0  0.15986999999999998  0.04159  0.71965  1.0000
  H   H6        1.0  0.14801  0.96784  0.57322  1.0000
  C   C29       1.0  0.81123  0.52382  0.98303  1.0000
  N   N13       1.0  0.79696  0.4742000000000001  0.15149999999999997  1.0000
  N   N14       1.0  0.7710099999999999  0.42608  0.10135000000000007  1.0000
  C   C30       1.0  0.76946  0.44682  0.90273  1.0000
  C   C31       1.0  0.74203  0.40656  0.79377  1.0000
  F   F13       1.0  0.7453399999999999  0.32483  0.8269600000000001  1.0000
  F   F14       1.0  0.75594  0.41876000000000013  0.57201  1.0000
  C   C32       1.0  0.69633  0.43822  0.88757  1.0000
  F   F15       1.0  0.68943  0.50222  0.76549  1.0000
  F   F16       1.0  0.68813  0.4649  0.10044999999999993  1.0000
  N   N15       1.0  0.79456  0.50787  0.82393  1.0000
  N   N16       1.0  0.80153  0.54551  0.62271  1.0000
  H   H7        1.0  0.79158  0.6054700000000002  0.6540800000000001  1.0000
  H   H8        1.0  0.8333  0.54512  0.5491  1.0000
  C   C33       1.0  0.4464099999999999  0.57374  0.4296  1.0000
  N   N17       1.0  0.44813  0.61642  0.6029  1.0000
  N   N18       1.0  0.481  0.58941  0.65235  1.0000
  C   C34       1.0  0.49932000000000004  0.53093  0.50744  1.0000
  C   C35       1.0  0.5374899999999999  0.48374000000000006  0.51341  1.0000
  F   F17       1.0  0.55257  0.52053  0.6639400000000001  1.0000
  F   F18       1.0  0.56731  0.48672  0.31146  1.0000
  C   C36       1.0  0.52815  0.39572  0.57767  1.0000
  F   F19       1.0  0.52566  0.3529600000000001  0.39854  1.0000
  F   F20       1.0  0.4906199999999999  0.39166  0.7406  1.0000
  N   N19       1.0  0.4788299999999999  0.52111  0.3619  1.0000
  N   N20       1.0  0.4877099999999999  0.46381  0.1943  1.0000
  H   H9        1.0  0.46243000000000006  0.42704  0.22442  1.0000
  H   H10       1.0  0.49074  0.4939  0.04897  1.0000
  C   C37       1.0  0.9484899999999999  0.9232500000000002  0.1936500000000001  1.0000
  N   N21       1.0  0.9809899999999999  0.9190000000000002  0.27091  1.0000
  N   N22       1.0  0.9936600000000001  0.9930400000000001  0.2761  1.0000
  C   C38       1.0  0.96867  0.04177  0.20277  1.0000
  C   C39       1.0  0.97426  0.13041  0.17105  1.0000
  F   F21       1.0  0.98807  0.16081  0.33414000000000005  1.0000
  F   F22       1.0  0.93631  0.16828000000000007  0.19557  1.0000
  C   C40       1.0  0.0038499999999999914  0.14916000000000004  0.9418500000000001  1.0000
  F   F23       1.0  0.9943  0.22597  0.88858  1.0000
  F   F24       1.0  0.9975999999999999  0.09732  0.7884700000000001  1.0000
  N   N23       1.0  0.9398999999999998  0.99943  0.15101999999999993  1.0000
  N   N24       1.0  0.9099299999999999  0.026060000000000007  0.056210000000000086  1.0000
  H   H11       1.0  0.9246699999999998  0.05696000000000012  0.9147  1.0000
  H   H12       1.0  0.8895899999999999  0.06608000000000003  0.16593999999999998  1.0000
  C   C41       1.0  0.52694  0.07844  0.17558000000000007  1.0000
  N   N25       1.0  0.49845  0.08969  0.37227  1.0000
  N   N26       1.0  0.47681  0.02404000000000006  0.41511  1.0000
  C   C42       1.0  0.49233  0.97344  0.24461000000000002  1.0000
  C   C43       1.0  0.47587  0.8918800000000002  0.2298  1.0000
  F   F25       1.0  0.4505399999999999  0.87123  0.43532  1.0000
  F   F26       1.0  0.50845  0.836  0.1665399999999999  1.0000
  C   C44       1.0  0.4508199999999999  0.8917  0.06810000000000005  1.0000
  F   F27       1.0  0.47652  0.89989  0.85713  1.0000
  F   F28       1.0  0.42252  0.95607  0.11382000000000003  1.0000
  N   N27       1.0  0.52383  0.00576  0.09314  1.0000
  N   N28       1.0  0.54811  0.9703500000000002  0.89617  1.0000
  H   H13       1.0  0.54442  0.005450000000000002  0.76969  1.0000
  H   H14       1.0  0.57899  0.97097  0.89126  1.0000
  C   C45       1.0  0.033019999999999994  0.42255  0.3672500000000001  1.0000
  N   N29       1.0  0.0008600000000000809  0.46074  0.32542000000000004  1.0000
  N   N30       1.0  0.99752  0.53357  0.41122  1.0000
  C   C46       1.0  0.027820000000000004  0.53975  0.50356  1.0000
  C   C47       1.0  0.03528  0.61639  0.60749  1.0000
  F   F29       1.0  0.03636  0.6787000000000002  0.46542  1.0000
  F   F30       1.0  0.0728  0.6119100000000002  0.64841  1.0000
  C   C48       1.0  0.0011000000000001052  0.63488  0.82432  1.0000
  F   F31       1.0  0.010150000000000107  0.70415  0.9151  1.0000
  F   F32       1.0  0.0005800000000000184  0.57296  0.96684  1.0000
  N   N31       1.0  0.05051  0.4704700000000001  0.47812  1.0000
  N   N32       1.0  0.08622  0.45268000000000014  0.53535  1.0000
  H   H15       1.0  0.07906  0.46192  0.70254  1.0000
  H   H16       1.0  0.10870999999999999  0.49253  0.45460000000000006  1.0000
