data_image0
_chemical_formula_structural       EuOCO6COC2EuOCO6COC2EuOCO6COC2EuOCO6COC4ClCClC2OCOCClCClH4C2ClCClC2OCOCClCClH4C2ClCClC2OCOCClCClH4C2ClCClC2OCOCClCClH4C2ClCClC2OCOCClCClH4C2ClCClC2OCOCClCClH4C2ClCClC2OCOCClCClH4C2ClCClC2OCOCClCClH4
_chemical_formula_sum              "Eu4 O48 C80 Cl32 H32"
_cell_length_a       36.1517
_cell_length_b       18.1339
_cell_length_c       7.784600000000001
_cell_angle_alpha    105.13119999999999
_cell_angle_beta     71.5295
_cell_angle_gamma    93.0052

_space_group_name_H-M_alt    "P 1"
_space_group_IT_number       1

loop_
  _space_group_symop_operation_xyz
  'x, y, z'

loop_
  _atom_site_type_symbol
  _atom_site_label
  _atom_site_symmetry_multiplicity
  _atom_site_fract_x
  _atom_site_fract_y
  _atom_site_fract_z
  _atom_site_occupancy
  Eu  Eu1       1.0  0.38753  0.73366  0.27695  1.0000
  O   O1        1.0  0.32026999999999994  0.79211  0.21962999999999994  1.0000
  C   C1        1.0  0.35579  0.57993  0.11170999999999998  1.0000
  O   O2        1.0  0.4918600000000001  0.8616  0.22421999999999995  1.0000
  O   O3        1.0  0.43334  0.81611  0.3506599999999999  1.0000
  O   O4        1.0  0.4365799999999999  0.5956699999999998  0.16825  1.0000
  O   O5        1.0  0.38459999999999994  0.57925  0.9760599999999999  1.0000
  O   O6        1.0  0.33984999999999993  0.6504699999999998  0.22633  1.0000
  O   O7        1.0  0.34051999999999993  0.82319  0.47448999999999997  1.0000
  C   C2        1.0  0.31958  0.8397699999999999  0.36518  1.0000
  O   O8        1.0  0.40057  0.66397  0.45789999999999986  1.0000
  C   C3        1.0  0.42797  0.6061  0.3382099999999999  1.0000
  C   C4        1.0  0.46306999999999976  0.8288799999999997  0.19572  1.0000
  Eu  Eu2       1.0  0.8563  0.81462  0.81101  1.0000
  O   O9        1.0  0.7782100000000001  0.8360299999999998  0.7525899999999998  1.0000
  C   C5        1.0  0.79436  0.7112199999999999  0.9908499999999998  1.0000
  O   O10       1.0  0.9214899999999999  0.83958  0.97939  1.0000
  O   O11       1.0  0.90524  0.9004799999999998  0.79766  1.0000
  O   O12       1.0  0.8901799999999999  0.68637  0.8624999999999998  1.0000
  O   O13       1.0  0.80766  0.7428299999999999  0.11532000000000008  1.0000
  O   O14       1.0  0.80927  0.7251399999999998  0.8157899999999999  1.0000
  O   O15       1.0  0.8397099999999998  0.86048  0.5981899999999998  1.0000
  C   C6        1.0  0.7994  0.87043  0.6458999999999998  1.0000
  O   O16       1.0  0.9004200000000001  0.72403  0.5972799999999999  1.0000
  C   C7        1.0  0.9107299999999999  0.68101  0.70142  1.0000
  C   C8        1.0  0.93085  0.88585  0.88555  1.0000
  Eu  Eu3       1.0  0.1548  0.27237  0.25384  1.0000
  O   O17       1.0  0.17472  0.12075999999999999  0.22594999999999996  1.0000
  C   C9        1.0  0.23616  0.34018  0.20436  1.0000
  O   O18       1.0  0.11910999999999997  0.20199999999999996  0.94241  1.0000
  O   O19       1.0  0.10882  0.18132999999999994  0.22725999999999993  1.0000
  O   O20       1.0  0.10790999999999999  0.35091  0.13899  1.0000
  O   O21       1.0  0.25481  0.3382599999999999  0.04013999999999999  1.0000
  O   O22       1.0  0.19812000000000002  0.3701699999999999  0.2789699999999999  1.0000
  O   O23       1.0  0.16463000000000003  0.22073999999999994  0.47804999999999986  1.0000
  C   C10       1.0  0.17573  0.14389  0.38663  1.0000
  O   O24       1.0  0.10423000000000003  0.3566399999999999  0.4333999999999999  1.0000
  C   C11       1.0  0.09082999999999998  0.37879999999999997  0.3051399999999999  1.0000
  C   C12       1.0  0.09913  0.17225  0.06286  1.0000
  Eu  Eu4       1.0  0.60685  0.25323  0.69904  1.0000
  O   O25       1.0  0.6776899999999999  0.21272999999999995  0.7742599999999997  1.0000
  C   C13       1.0  0.63461  0.40009  0.9169799999999998  1.0000
  O   O26       1.0  0.5894499999999999  0.14124999999999993  0.9352999999999998  1.0000
  O   O27       1.0  0.59261  0.12703  0.63507  1.0000
  O   O28       1.0  0.52556  0.25399  0.5918199999999999  1.0000
  O   O29       1.0  0.6425500000000001  0.34871  0.9741199999999998  1.0000
  O   O30       1.0  0.61996  0.38122  0.76615  1.0000
  O   O31       1.0  0.66969  0.22442999999999996  0.5065199999999997  1.0000
  C   C14       1.0  0.69158  0.20245999999999997  0.6038599999999998  1.0000
  O   O32       1.0  0.59004  0.26487  0.44985999999999987  1.0000
  C   C15       1.0  0.55112  0.29119999999999996  0.5091899999999999  1.0000
  C   C16       1.0  0.58149  0.10276999999999999  0.7984399999999999  1.0000
  C   C17       1.0  0.33848  0.50727  0.15118999999999994  1.0000
  C   C18       1.0  0.34558  0.4388  0.0061  1.0000
  Cl  Cl1       1.0  0.37068  0.43848  0.76877  1.0000
  C   C19       1.0  0.33352  0.36814  0.04525999999999999  1.0000
  Cl  Cl2       1.0  0.34412000000000004  0.28485000000000005  0.8566699999999999  1.0000
  C   C20       1.0  0.31187  0.36452  0.22922  1.0000
  C   C21       1.0  0.29386  0.2892399999999999  0.26739  1.0000
  O   O33       1.0  0.301  0.27637  0.42671  1.0000
  C   C22       1.0  0.24956999999999996  0.28407  0.28139  1.0000
  O   O34       1.0  0.24388999999999997  0.20876999999999996  0.18709999999999993  1.0000
  C   C23       1.0  0.30299  0.43316  0.37318999999999997  1.0000
  Cl  Cl3       1.0  0.27488  0.43185  0.6028  1.0000
  C   C24       1.0  0.31719  0.50332  0.3356399999999999  1.0000
  Cl  Cl4       1.0  0.31025999999999987  0.58392  0.52843  1.0000
  H   H1        1.0  0.3088  0.24118000000000003  0.14974  1.0000
  H   H2        1.0  0.28418999999999994  0.23432  0.46422  1.0000
  H   H3        1.0  0.23085999999999998  0.29611  0.4304  1.0000
  H   H4        1.0  0.22802  0.20887  0.10310999999999997  1.0000
  C   C25       1.0  0.78193  0.9233099999999999  0.5728099999999998  1.0000
  C   C26       1.0  0.80075  0.9340999999999999  0.39225  1.0000
  Cl  Cl5       1.0  0.8453199999999998  0.88655  0.25069  1.0000
  C   C27       1.0  0.78417  0.9833699999999999  0.32192999999999994  1.0000
  Cl  Cl6       1.0  0.8081399999999999  0.9891399999999999  0.08798999999999997  1.0000
  C   C28       1.0  0.7489599999999998  0.02526999999999998  0.4340499999999999  1.0000
  C   C29       1.0  0.7345199999999998  0.08887999999999996  0.3685199999999999  1.0000
  O   O35       1.0  0.69948  0.07111  0.3240199999999999  1.0000
  C   C30       1.0  0.73264  0.16964  0.50641  1.0000
  O   O36       1.0  0.7545699999999999  0.22056999999999996  0.4070099999999999  1.0000
  C   C31       1.0  0.72904  0.010769999999999978  0.6113999999999998  1.0000
  Cl  Cl7       1.0  0.68236  0.05161999999999998  0.7503699999999998  1.0000
  C   C32       1.0  0.74583  0.96167  0.6811499999999999  1.0000
  Cl  Cl8       1.0  0.72232  0.95493  0.91463  1.0000
  H   H5        1.0  0.75589  0.09424999999999999  0.23543999999999998  1.0000
  H   H6        1.0  0.6815  0.04800999999999998  0.4187299999999999  1.0000
  H   H7        1.0  0.74571  0.1653999999999999  0.6162099999999998  1.0000
  H   H8        1.0  0.75982  0.26532  0.50225  1.0000
  C   C33       1.0  0.19105  0.09042999999999998  0.4685899999999999  1.0000
  C   C34       1.0  0.21111000000000002  0.11704  0.6020699999999998  1.0000
  Cl  Cl9       1.0  0.21069000000000002  0.21528999999999998  0.7158099999999997  1.0000
  C   C35       1.0  0.23257000000000003  0.06527  0.64486  1.0000
  Cl  Cl10      1.0  0.26326  0.10194999999999999  0.7831599999999999  1.0000
  C   C36       1.0  0.2322000000000001  0.98551  0.56619  1.0000
  C   C37       1.0  0.26044999999999996  0.9309199999999999  0.5891899999999998  1.0000
  O   O37       1.0  0.24144999999999997  0.8651599999999998  0.63139  1.0000
  C   C38       1.0  0.29801  0.91543  0.41314  1.0000
  O   O38       1.0  0.32351  0.9763199999999999  0.4318099999999999  1.0000
  C   C39       1.0  0.20919  0.9587199999999999  0.4461099999999999  1.0000
  Cl  Cl11      1.0  0.20618000000000003  0.86009  0.3457099999999999  1.0000
  C   C40       1.0  0.18876999999999997  0.01048999999999999  0.3989399999999999  1.0000
  Cl  Cl12      1.0  0.16006  0.97224  0.25031  1.0000
  H   H9        1.0  0.2702  0.95721  0.7133  1.0000
  H   H10       1.0  0.24982000000000001  0.82046  0.52058  1.0000
  H   H11       1.0  0.28901  0.9149699999999998  0.28777999999999987  1.0000
  H   H12       1.0  0.33452000000000004  0.9728099999999997  0.5320099999999999  1.0000
  C   C41       1.0  0.7629699999999999  0.65708  0.024259999999999945  1.0000
  C   C42       1.0  0.77189  0.5818199999999999  0.017919999999999933  1.0000
  Cl  Cl13      1.0  0.8210099999999999  0.5526099999999999  0.9620699999999999  1.0000
  C   C43       1.0  0.74228  0.5285  0.04435999999999995  1.0000
  Cl  Cl14      1.0  0.75627  0.43433999999999995  0.029809999999999993  1.0000
  C   C44       1.0  0.70254  0.55089  0.08624999999999992  1.0000
  C   C45       1.0  0.67042  0.49182999999999993  0.11858999999999975  1.0000
  O   O39       1.0  0.64983  0.50322  0.31038  1.0000
  C   C46       1.0  0.6436499999999999  0.48168  0.9908999999999998  1.0000
  O   O40       1.0  0.60849  0.5261499999999999  0.06844000000000006  1.0000
  C   C47       1.0  0.69374  0.62911  0.10295000000000008  1.0000
  Cl  Cl15      1.0  0.6453299999999998  0.66582  0.17552999999999971  1.0000
  C   C48       1.0  0.72417  0.68107  0.06991999999999976  1.0000
  Cl  Cl16      1.0  0.7131299999999999  0.77681  0.08285999999999992  1.0000
  H   H13       1.0  0.6855500000000001  0.43587999999999993  0.07831999999999993  1.0000
  H   H14       1.0  0.6397199999999998  0.55724  0.3618499999999998  1.0000
  H   H15       1.0  0.6605899999999999  0.49934999999999996  0.8644499999999998  1.0000
  H   H16       1.0  0.5967299999999999  0.5295399999999998  0.20323999999999984  1.0000
  C   C49       1.0  0.44835  0.5592699999999999  0.41171999999999986  1.0000
  C   C50       1.0  0.48068  0.5884799999999999  0.46688  1.0000
  Cl  Cl17      1.0  0.49697  0.6789899999999999  0.439  1.0000
  C   C51       1.0  0.50134  0.5444  0.5333  1.0000
  Cl  Cl18      1.0  0.5425  0.58391  0.59682  1.0000
  C   C52       1.0  0.49079999999999996  0.46826999999999996  0.53535  1.0000
  C   C53       1.0  0.5127  0.4202299999999999  0.6107099999999998  1.0000
  O   O41       1.0  0.4876599999999999  0.38806  0.7494299999999999  1.0000
  C   C54       1.0  0.54058  0.35837  0.44968  1.0000
  O   O42       1.0  0.57487  0.39234  0.36093999999999987  1.0000
  C   C55       1.0  0.46066  0.43616  0.46012  1.0000
  Cl  Cl19      1.0  0.44852999999999976  0.33809  0.44028  1.0000
  C   C56       1.0  0.43986000000000003  0.48155999999999993  0.3974399999999999  1.0000
  Cl  Cl20      1.0  0.40448  0.43936  0.29063  1.0000
  H   H17       1.0  0.53144  0.45722  0.6828  1.0000
  H   H18       1.0  0.4597  0.40045  0.7688399999999997  1.0000
  H   H19       1.0  0.52696  0.33383999999999997  0.33884  1.0000
  H   H20       1.0  0.58762  0.4148800000000001  0.45859  1.0000
  C   C57       1.0  0.9682499999999999  0.9275199999999999  0.8740799999999997  1.0000
  C   C58       1.0  0.99855  0.8993199999999999  0.9229199999999999  1.0000
  Cl  Cl21      1.0  0.9949699999999999  0.81134  0.98806  1.0000
  C   C59       1.0  0.03309000000000001  0.93988  0.9193199999999999  1.0000
  Cl  Cl22      1.0  0.06893999999999999  0.9032099999999998  0.9895999999999999  1.0000
  C   C60       1.0  0.038680000000000006  0.008960000000000077  0.86307  1.0000
  C   C61       1.0  0.07465000000000001  0.056439999999999976  0.8731199999999999  1.0000
  O   O43       1.0  0.09200999999999997  0.07576  0.70223  1.0000
  C   C62       1.0  0.06337  0.12929  0.03927  1.0000
  O   O44       1.0  0.043620000000000006  0.10726  0.20417999999999994  1.0000
  C   C63       1.0  0.009640000000000008  0.03465999999999996  0.8037299999999998  1.0000
  Cl  Cl23      1.0  0.017729999999999996  0.11285  0.69937  1.0000
  C   C64       1.0  0.9747  0.9953999999999997  0.8118799999999998  1.0000
  Cl  Cl24      1.0  0.9390600000000001  0.03535999999999997  0.7471499999999998  1.0000
  H   H21       1.0  0.09652000000000001  0.024579999999999987  0.9007699999999998  1.0000
  H   H22       1.0  0.12011  0.08133999999999998  0.6863799999999998  1.0000
  H   H23       1.0  0.044449999999999996  0.16789999999999994  0.00837  1.0000
  H   H24       1.0  0.02400000000000001  0.14861  0.28416999999999987  1.0000
  C   C65       1.0  0.5582999999999999  0.03322  0.81066  1.0000
  C   C66       1.0  0.56876  0.9658599999999998  0.6648699999999997  1.0000
  Cl  Cl25      1.0  0.6094  0.9623  0.46406  1.0000
  C   C67       1.0  0.54691  0.9000999999999999  0.67783  1.0000
  Cl  Cl26      1.0  0.56155  0.81783  0.48552  1.0000
  C   C68       1.0  0.5135200000000001  0.90032  0.8368099999999998  1.0000
  C   C69       1.0  0.49436  0.82237  0.8436899999999998  1.0000
  O   O45       1.0  0.52291  0.7667  0.81709  1.0000
  C   C70       1.0  0.45744999999999997  0.8122  0.0043599999999996975  1.0000
  O   O46       1.0  0.44670999999999994  0.7355099999999998  0.9571499999999997  1.0000
  C   C71       1.0  0.5006  0.9712199999999999  0.9726599999999999  1.0000
  Cl  Cl27      1.0  0.45329  0.9873299999999999  0.13777999999999996  1.0000
  C   C72       1.0  0.52398  0.03568  0.96379  1.0000
  Cl  Cl28      1.0  0.50802  0.12296  0.13769999999999996  1.0000
  H   H25       1.0  0.48415  0.80737  0.7186699999999998  1.0000
  H   H26       1.0  0.53482  0.78418  0.9187599999999999  1.0000
  H   H27       1.0  0.43317  0.8498199999999999  0.013079999999999757  1.0000
  H   H28       1.0  0.4183999999999999  0.73565  0.9688199999999998  1.0000
  C   C73       1.0  0.05459  0.4269599999999999  0.3597599999999999  1.0000
  C   C74       1.0  0.04953  0.46786999999999995  0.23578999999999994  1.0000
  Cl  Cl29      1.0  0.08818  0.4739  0.03039  1.0000
  C   C75       1.0  0.013859999999999994  0.5061899999999999  0.27442  1.0000
  Cl  Cl30      1.0  0.009269999999999888  0.55596  0.11371999999999997  1.0000
  C   C76       1.0  0.98295  0.50787  0.4421099999999999  1.0000
  C   C77       1.0  0.94549  0.55485  0.4911599999999999  1.0000
  O   O47       1.0  0.91275  0.5122  0.55896  1.0000
  C   C78       1.0  0.94807  0.6338200000000002  0.62591  1.0000
  O   O48       1.0  0.9779  0.67499  0.52873  1.0000
  C   C79       1.0  0.98874  0.47011  0.5700799999999998  1.0000
  Cl  Cl31      1.0  0.95225  0.47423  0.7882899999999998  1.0000
  C   C80       1.0  0.024010000000000004  0.4294099999999999  0.5291999999999999  1.0000
  Cl  Cl32      1.0  0.028549999999999992  0.37996  0.69162  1.0000
  H   H29       1.0  0.94225  0.56713  0.3645499999999999  1.0000
  H   H30       1.0  0.8961799999999998  0.5408799999999999  0.6827099999999998  1.0000
  H   H31       1.0  0.95525  0.62493  0.7482999999999999  1.0000
  H   H32       1.0  0.98619  0.7144699999999998  0.62353  1.0000
