data_image0
_chemical_formula_structural       EuOCO6COC2EuOCO6COC2EuOCO6COC2EuOCO6COC5OC2F2CF2CFCFH2C3OC2F2CF2CFCFH2C3OC2F2CF2CFCFH2C3OC2F2CF2CFCFH2C3OC2F2CF2CFCFH2C3OC2F2CF2CFCFH2C3OC2F2CF2CFCFH2C3OC2F2CF2CFCFH2
_chemical_formula_sum              "Eu4 O40 C80 F48 H16"
_cell_length_a       31.0152
_cell_length_b       15.2117
_cell_length_c       16.063
_cell_angle_alpha    108.73779999999998
_cell_angle_beta     91.3635
_cell_angle_gamma    91.8116

_space_group_name_H-M_alt    "P 1"
_space_group_IT_number       1

loop_
  _space_group_symop_operation_xyz
  'x, y, z'

loop_
  _atom_site_type_symbol
  _atom_site_label
  _atom_site_symmetry_multiplicity
  _atom_site_fract_x
  _atom_site_fract_y
  _atom_site_fract_z
  _atom_site_occupancy
  Eu  Eu1       1.0  0.43163  0.7522999999999996  0.2813999999999999  1.0000
  O   O1        1.0  0.38154  0.89698  0.23259  1.0000
  C   C1        1.0  0.33835  0.69366  0.2947  1.0000
  O   O2        1.0  0.4662099999999999  0.72503  0.10013  1.0000
  O   O3        1.0  0.48448  0.8299599999999998  0.23317999999999994  1.0000
  O   O4        1.0  0.46039  0.5966499999999998  0.3438899999999999  1.0000
  O   O5        1.0  0.33661999999999986  0.7063  0.22345  1.0000
  O   O6        1.0  0.37768  0.6781299999999999  0.3296399999999999  1.0000
  O   O7        1.0  0.40699  0.89225  0.36362  1.0000
  C   C2        1.0  0.39032  0.9394999999999999  0.30947  1.0000
  O   O8        1.0  0.4752  0.75102  0.39767  1.0000
  C   C3        1.0  0.4777  0.66164  0.40214  1.0000
  C   C4        1.0  0.4860699999999999  0.79717  0.14168  1.0000
  Eu  Eu2       1.0  0.8733999999999997  0.72534  0.7197799999999998  1.0000
  O   O9        1.0  0.83165  0.9125799999999996  0.8197999999999998  1.0000
  C   C5        1.0  0.77814  0.7208099999999997  0.7656499999999998  1.0000
  O   O10       1.0  0.9906999999999998  0.75657  0.86485  1.0000
  O   O11       1.0  0.9459699999999998  0.7185999999999998  0.7450099999999997  1.0000
  O   O12       1.0  0.94352  0.7412699999999999  0.58541  1.0000
  O   O13       1.0  0.7972699999999998  0.7307599999999995  0.8355799999999998  1.0000
  O   O14       1.0  0.80082  0.7227899999999998  0.6928999999999997  1.0000
  O   O15       1.0  0.8773599999999998  0.8712399999999998  0.70876  1.0000
  C   C6        1.0  0.84147  0.9172599999999999  0.7483999999999997  1.0000
  O   O16       1.0  0.8790899999999998  0.6620199999999998  0.5713499999999998  1.0000
  C   C7        1.0  0.91777  0.6834799999999998  0.5379899999999997  1.0000
  C   C8        1.0  0.9626599999999997  0.7813399999999998  0.82365  1.0000
  Eu  Eu3       1.0  0.15911  0.26880999999999994  0.24466999999999994  1.0000
  O   O17       1.0  0.18511  0.05615999999999999  0.16055999999999995  1.0000
  C   C9        1.0  0.23673999999999995  0.3627399999999999  0.36777  1.0000
  O   O18       1.0  0.09838  0.24017999999999995  0.07343999999999998  1.0000
  O   O19       1.0  0.11662999999999997  0.14880999999999994  0.15467  1.0000
  O   O20       1.0  0.08736  0.39867  0.32375  1.0000
  O   O21       1.0  0.25894  0.30683  0.3161099999999999  1.0000
  O   O22       1.0  0.19928  0.39204999999999995  0.33740999999999993  1.0000
  O   O23       1.0  0.19778  0.16752999999999996  0.29336  1.0000
  C   C10       1.0  0.19661  0.07543999999999998  0.23722999999999994  1.0000
  O   O24       1.0  0.11405999999999998  0.27662999999999993  0.3559599999999999  1.0000
  C   C11       1.0  0.08765  0.3519  0.37272  1.0000
  C   C12       1.0  0.10603  0.16213999999999995  0.07477  1.0000
  Eu  Eu4       1.0  0.54373  0.2155799999999999  0.7318499999999999  1.0000
  O   O25       1.0  0.6147299999999998  0.07098999999999993  0.7207999999999998  1.0000
  C   C13       1.0  0.61761  0.34831  0.81873  1.0000
  O   O26       1.0  0.51719  0.11664000000000001  0.85291  1.0000
  O   O27       1.0  0.50354  0.08081  0.70768  1.0000
  O   O28       1.0  0.47248  0.35242999999999985  0.7177499999999999  1.0000
  O   O29       1.0  0.60836  0.32992999999999995  0.88513  1.0000
  O   O30       1.0  0.5852499999999998  0.3472599999999999  0.7567099999999998  1.0000
  O   O31       1.0  0.59047  0.14341  0.62677  1.0000
  C   C14       1.0  0.6154699999999997  0.07852999999999996  0.6474299999999998  1.0000
  O   O32       1.0  0.50793  0.24160999999999994  0.6173  1.0000
  C   C15       1.0  0.47622  0.3072999999999999  0.641  1.0000
  C   C16       1.0  0.50025  0.062239999999999934  0.78637  1.0000
  C   C17       1.0  0.29996  0.70611  0.3475499999999999  1.0000
  C   C18       1.0  0.29003999999999996  0.65652  0.4002699999999999  1.0000
  C   C19       1.0  0.30589  0.56693  0.40058  1.0000
  O   O33       1.0  0.33248  0.51294  0.33662999999999993  1.0000
  C   C20       1.0  0.28647  0.54326  0.46464  1.0000
  C   C21       1.0  0.29012  0.45554  0.4887799999999999  1.0000
  F   F1        1.0  0.29792  0.4805699999999998  0.5789399999999998  1.0000
  F   F2        1.0  0.32426999999999984  0.40406999999999976  0.44907999999999987  1.0000
  C   C22       1.0  0.24782999999999994  0.39524  0.4650699999999999  1.0000
  F   F3        1.0  0.25175  0.31771  0.49181  1.0000
  F   F4        1.0  0.21407000000000004  0.44605  0.50919  1.0000
  C   C23       1.0  0.2581799999999999  0.6189299999999998  0.50925  1.0000
  F   F5        1.0  0.23646  0.6265  0.5833799999999998  1.0000
  C   C24       1.0  0.25904  0.68249  0.46947  1.0000
  F   F6        1.0  0.23864999999999995  0.7637400000000001  0.49683  1.0000
  H   H1        1.0  0.28035  0.76433  0.34888  1.0000
  H   H2        1.0  0.32769  0.4434599999999999  0.32371  1.0000
  C   C25       1.0  0.81395  0.9624199999999999  0.6993799999999998  1.0000
  C   C26       1.0  0.7711599999999997  0.97481  0.71002  1.0000
  C   C27       1.0  0.74062  0.9836799999999998  0.64204  1.0000
  O   O34       1.0  0.75105  0.9937999999999997  0.5614499999999998  1.0000
  C   C28       1.0  0.70045  0.96362  0.66113  1.0000
  C   C29       1.0  0.66241  0.9356699999999998  0.5962499999999997  1.0000
  F   F7        1.0  0.63087  0.88829  0.62702  1.0000
  F   F8        1.0  0.6764399999999998  0.8742200000000001  0.51887  1.0000
  C   C30       1.0  0.6423699999999998  0.01831000000000002  0.5758  1.0000
  F   F9        1.0  0.61563  0.98268  0.50125  1.0000
  F   F10       1.0  0.67421  0.07401999999999993  0.5566499999999998  1.0000
  C   C31       1.0  0.7026  0.94849  0.7463399999999999  1.0000
  F   F11       1.0  0.6682599999999997  0.93231  0.7911  1.0000
  C   C32       1.0  0.7431999999999997  0.95598  0.7757599999999998  1.0000
  F   F12       1.0  0.75501  0.9495499999999998  0.8550799999999997  1.0000
  H   H3        1.0  0.82809  0.97174  0.6421799999999998  1.0000
  H   H4        1.0  0.78229  0.012899999999999863  0.5583599999999997  1.0000
  C   C33       1.0  0.20558  0.0011199999999999977  0.27419  1.0000
  C   C34       1.0  0.24077  0.003049999999999972  0.3240899999999999  1.0000
  C   C35       1.0  0.2806  0.06093  0.33544  1.0000
  O   O35       1.0  0.28716  0.12957999999999995  0.2961299999999999  1.0000
  C   C36       1.0  0.30862  0.03594000000000009  0.38754  1.0000
  C   C37       1.0  0.3538199999999999  0.07573000000000005  0.4169799999999999  1.0000
  F   F13       1.0  0.36732  0.04969  0.48822  1.0000
  F   F14       1.0  0.35285  0.17191999999999996  0.4455699999999999  1.0000
  C   C38       1.0  0.387  0.04367999999999993  0.344  1.0000
  F   F15       1.0  0.42734  0.0818700000000001  0.37817999999999996  1.0000
  F   F16       1.0  0.3769799999999999  0.07627000000000006  0.27526  1.0000
  C   C39       1.0  0.2873  0.96164  0.41352  1.0000
  F   F17       1.0  0.30464999999999987  0.9186  0.46779  1.0000
  C   C40       1.0  0.24834  0.94144  0.37529  1.0000
  F   F18       1.0  0.21931999999999993  0.87859  0.38756  1.0000
  H   H5        1.0  0.18094999999999994  0.94687  0.26573999999999987  1.0000
  H   H6        1.0  0.31537  0.16686  0.31309  1.0000
  C   C41       1.0  0.7309599999999999  0.7129799999999997  0.75928  1.0000
  C   C42       1.0  0.70772  0.65351  0.78795  1.0000
  C   C43       1.0  0.7227  0.5780399999999999  0.8184199999999998  1.0000
  O   O36       1.0  0.76628  0.5544699999999998  0.81817  1.0000
  C   C44       1.0  0.6879199999999998  0.53407  0.83821  1.0000
  C   C45       1.0  0.68553  0.45183  0.87187  1.0000
  F   F19       1.0  0.6618099999999998  0.47704999999999986  0.94726  1.0000
  F   F20       1.0  0.72556  0.43087  0.8974  1.0000
  C   C46       1.0  0.6643599999999998  0.36408  0.80085  1.0000
  F   F21       1.0  0.68622  0.2846299999999999  0.79821  1.0000
  F   F22       1.0  0.6666999999999997  0.37289999999999984  0.7174499999999999  1.0000
  C   C47       1.0  0.64926  0.5793799999999998  0.81912  1.0000
  F   F23       1.0  0.6078299999999998  0.55578  0.83031  1.0000
  C   C48       1.0  0.6608499999999998  0.64787  0.78924  1.0000
  F   F24       1.0  0.63342  0.7026399999999999  0.7638499999999998  1.0000
  H   H7        1.0  0.7143  0.7580499999999998  0.7304299999999998  1.0000
  H   H8        1.0  0.77253  0.49658  0.8325  1.0000
  C   C49       1.0  0.50442  0.64647  0.4728099999999999  1.0000
  C   C50       1.0  0.50245  0.57037  0.4979899999999999  1.0000
  C   C51       1.0  0.47061999999999987  0.49176  0.47469  1.0000
  O   O37       1.0  0.43044  0.49186999999999975  0.43364  1.0000
  C   C52       1.0  0.48442  0.42714999999999986  0.50859  1.0000
  C   C53       1.0  0.4660799999999998  0.32868  0.49059  1.0000
  F   F25       1.0  0.49930999999999987  0.2682599999999999  0.46344  1.0000
  F   F26       1.0  0.4360199999999999  0.3052899999999999  0.42138  1.0000
  C   C54       1.0  0.4443699999999999  0.31453  0.57146  1.0000
  F   F27       1.0  0.4206  0.23041000000000003  0.54352  1.0000
  F   F28       1.0  0.4159799999999999  0.3845499999999999  0.6066899999999997  1.0000
  C   C55       1.0  0.52503  0.46369999999999983  0.5581499999999998  1.0000
  F   F29       1.0  0.5498899999999998  0.4182299999999998  0.5999999999999998  1.0000
  C   C56       1.0  0.53477  0.5476899999999998  0.5540099999999998  1.0000
  F   F30       1.0  0.57078  0.60001  0.59054  1.0000
  H   H9        1.0  0.5297699999999995  0.6987  0.50227  1.0000
  H   H10       1.0  0.40777  0.4477499999999998  0.44432  1.0000
  C   C57       1.0  0.9471899999999998  0.87628  0.85699  1.0000
  C   C58       1.0  0.97385  0.9519599999999998  0.8822899999999998  1.0000
  C   C59       1.0  0.02111999999999999  0.9586599999999995  0.87882  1.0000
  O   O38       1.0  0.047269999999999986  0.8824999999999995  0.8459599999999998  1.0000
  C   C60       1.0  0.03421  0.04861999999999992  0.9073999999999998  1.0000
  C   C61       1.0  0.08008  0.08797  0.91087  1.0000
  F   F31       1.0  0.07918  0.1792199999999999  0.9114799999999997  1.0000
  F   F32       1.0  0.09956999999999998  0.039820000000000064  0.83385  1.0000
  C   C62       1.0  0.10709999999999997  0.0798  0.9912399999999999  1.0000
  F   F33       1.0  0.15001999999999993  0.06770999999999996  0.9681499999999998  1.0000
  F   F34       1.0  0.09297  0.00156  0.01197  1.0000
  C   C63       1.0  0.9955899999999998  0.10373999999999986  0.9300499999999998  1.0000
  F   F35       1.0  0.99513  0.1978199999999999  0.9607299999999998  1.0000
  C   C64       1.0  0.96075  0.04767999999999997  0.91528  1.0000
  F   F36       1.0  0.9196599999999998  0.07591999999999993  0.92748  1.0000
  H   H11       1.0  0.9127899999999999  0.88482  0.85861  1.0000
  H   H12       1.0  0.07936999999999997  0.89801  0.85545  1.0000
  C   C65       1.0  0.4736799999999999  0.9809999999999998  0.78832  1.0000
  C   C66       1.0  0.47035  0.9482499999999999  0.85639  1.0000
  C   C67       1.0  0.4940199999999999  0.9749  0.94219  1.0000
  O   O39       1.0  0.53239  0.02921999999999993  0.9628399999999999  1.0000
  C   C68       1.0  0.47572  0.9284899999999998  0.9914899999999999  1.0000
  C   C69       1.0  0.4861999999999999  0.93616  0.08639  1.0000
  F   F37       1.0  0.4474099999999998  0.94312  0.12835  1.0000
  F   F38       1.0  0.50966  0.01819999999999999  0.12909  1.0000
  C   C70       1.0  0.51126  0.8516699999999998  0.09431999999999999  1.0000
  F   F39       1.0  0.5498899999999998  0.88274  0.14102  1.0000
  F   F40       1.0  0.52124  0.79237  0.012019999999999996  1.0000
  C   C71       1.0  0.4407199999999999  0.8676599999999999  0.93841  1.0000
  F   F41       1.0  0.41508  0.8086  0.96504  1.0000
  C   C72       1.0  0.43809  0.8777799999999999  0.85978  1.0000
  F   F42       1.0  0.4086899999999999  0.83249  0.7951  1.0000
  H   H13       1.0  0.45323  0.9479499999999998  0.7302299999999999  1.0000
  H   H14       1.0  0.5503  0.02245  0.0136  1.0000
  C   C73       1.0  0.06263  0.37646  0.45314  1.0000
  C   C74       1.0  0.02628  0.42401999999999995  0.46716  1.0000
  C   C75       1.0  0.99971  0.4592  0.40856  1.0000
  O   O40       1.0  0.008229999999999958  0.4476699999999999  0.3206999999999999  1.0000
  C   C76       1.0  0.96472  0.4974699999999999  0.45162  1.0000
  C   C77       1.0  0.92539  0.5313  0.41495  1.0000
  F   F43       1.0  0.88858  0.49932999999999983  0.44537  1.0000
  F   F44       1.0  0.92258  0.49423999999999996  0.32405  1.0000
  C   C78       1.0  0.92629  0.63836  0.44177  1.0000
  F   F45       1.0  0.89461  0.6641099999999999  0.39318  1.0000
  F   F46       1.0  0.96598  0.67039  0.4222899999999999  1.0000
  C   C79       1.0  0.96817  0.4910199999999998  0.5408699999999997  1.0000
  F   F47       1.0  0.9394399999999998  0.5221699999999999  0.60512  1.0000
  C   C80       1.0  0.0036099999999999986  0.44846  0.54961  1.0000
  F   F48       1.0  0.016839999999999994  0.43222  0.62432  1.0000
  H   H15       1.0  0.07509  0.35258999999999996  0.50564  1.0000
  H   H16       1.0  0.9952399999999999  0.4959999999999999  0.2979599999999999  1.0000
