data_image0
_chemical_formula_structural       EuOCO6COC2EuOCO6COC2EuOCO6COC2EuOCO6COC6F2CF2C7H12C4F2CF2C7H12C4F2CF2C7H12C4F2CF2C7H12C4F2CF2C7H12C4F2CF2C7H12C4F2CF2C7H12C4F2CF2C7H12
_chemical_formula_sum              "Eu4 O32 C112 F32 H96"
_cell_length_a       27.9559
_cell_length_b       16.290300000000002
_cell_length_c       10.1183
_cell_angle_alpha    84.3674
_cell_angle_beta     94.71950000000001
_cell_angle_gamma    90.4829

_space_group_name_H-M_alt    "P 1"
_space_group_IT_number       1

loop_
  _space_group_symop_operation_xyz
  'x, y, z'

loop_
  _atom_site_type_symbol
  _atom_site_label
  _atom_site_symmetry_multiplicity
  _atom_site_fract_x
  _atom_site_fract_y
  _atom_site_fract_z
  _atom_site_occupancy
  Eu  Eu1       1.0  0.36376  0.69318  0.31007999999999997  1.0000
  O   O1        1.0  0.31607  0.86063  0.33256  1.0000
  C   C1        1.0  0.34935  0.58329  0.07913  1.0000
  O   O2        1.0  0.38766  0.7927  0.040619999999999996  1.0000
  O   O3        1.0  0.41018  0.80637  0.25754  1.0000
  O   O4        1.0  0.42389  0.51979  0.36863999999999997  1.0000
  O   O5        1.0  0.35746  0.52964  0.00822  1.0000
  O   O6        1.0  0.38733  0.62711  0.13654  1.0000
  O   O7        1.0  0.33899999999999997  0.75503  0.48606999999999995  1.0000
  C   C2        1.0  0.32469  0.83644  0.44991  1.0000
  O   O8        1.0  0.42984  0.6457  0.44222  1.0000
  C   C3        1.0  0.44984  0.57722  0.39611  1.0000
  C   C4        1.0  0.40828  0.83372  0.12231999999999997  1.0000
  Eu  Eu2       1.0  0.87547  0.79135  0.6767199999999999  1.0000
  O   O9        1.0  0.77521  0.9570399999999999  0.50377  1.0000
  C   C5        1.0  0.8079  0.63577  0.71235  1.0000
  O   O10       1.0  0.96779  0.88918  0.79723  1.0000
  O   O11       1.0  0.89899  0.92513  0.6732899999999999  1.0000
  O   O12       1.0  0.98163  0.70023  0.60916  1.0000
  O   O13       1.0  0.77364  0.67801  0.6659199999999998  1.0000
  O   O14       1.0  0.8539200000000001  0.65733  0.68151  1.0000
  O   O15       1.0  0.81088  0.83278  0.5351799999999999  1.0000
  C   C6        1.0  0.78404  0.89505  0.57923  1.0000
  O   O16       1.0  0.91658  0.76454  0.50045  1.0000
  C   C7        1.0  0.9452900000000001  0.6946  0.53494  1.0000
  C   C8        1.0  0.93297  0.93456  0.77886  1.0000
  Eu  Eu3       1.0  0.14011  0.29423  0.27479  1.0000
  O   O17       1.0  0.21572  0.15408  0.3143  1.0000
  C   C9        1.0  0.22518  0.39919  0.39874999999999994  1.0000
  O   O18       1.0  0.12649  0.19501  0.04217  1.0000
  O   O19       1.0  0.07347  0.2667  0.14142  1.0000
  O   O20       1.0  0.06044  0.41632  0.28653  1.0000
  O   O21       1.0  0.26717  0.41203  0.4343299999999999  1.0000
  O   O22       1.0  0.20838  0.31776  0.40752  1.0000
  O   O23       1.0  0.13789  0.15873  0.35687  1.0000
  C   C10       1.0  0.18118  0.11748  0.35662  1.0000
  O   O24       1.0  0.09144  0.31547  0.43754  1.0000
  C   C11       1.0  0.0557  0.37159  0.3884  1.0000
  C   C12       1.0  0.0846  0.20479  0.0635  1.0000
  Eu  Eu4       1.0  0.61216  0.25116  0.7426499999999998  1.0000
  O   O25       1.0  0.66281  0.08075  0.79902  1.0000
  C   C13       1.0  0.7202800000000001  0.29519999999999996  0.73611  1.0000
  O   O26       1.0  0.56433  0.12022000000000002  0.9272699999999999  1.0000
  O   O27       1.0  0.54032  0.24656999999999998  0.8355799999999999  1.0000
  O   O28       1.0  0.63998  0.37867  0.49737999999999993  1.0000
  O   O29       1.0  0.75831  0.31546  0.69124  1.0000
  O   O30       1.0  0.6851400000000001  0.25785  0.65538  1.0000
  O   O31       1.0  0.59765  0.12574000000000002  0.6643899999999999  1.0000
  C   C14       1.0  0.62685  0.06316000000000001  0.7304799999999999  1.0000
  O   O32       1.0  0.57248  0.3088  0.54982  1.0000
  C   C15       1.0  0.6018099999999998  0.34875  0.45879999999999993  1.0000
  C   C16       1.0  0.53366  0.17370000000000002  0.9157199999999999  1.0000
  C   C17       1.0  0.29956  0.60278  0.10095  1.0000
  C   C18       1.0  0.26731  0.54015  0.13771  1.0000
  C   C19       1.0  0.21951  0.55906  0.15483  1.0000
  C   C20       1.0  0.18533  0.49149999999999994  0.20235999999999998  1.0000
  F   F1        1.0  0.19242  0.42177  0.13792  1.0000
  F   F2        1.0  0.13839  0.51683  0.16672  1.0000
  C   C21       1.0  0.19198999999999997  0.47119  0.35611  1.0000
  F   F3        1.0  0.14824  0.45254  0.4052299999999999  1.0000
  F   F4        1.0  0.20943  0.53961  0.4164399999999999  1.0000
  C   C22       1.0  0.20429  0.6418400000000002  0.13276  1.0000
  C   C23       1.0  0.23587  0.70584  0.0922  1.0000
  C   C24       1.0  0.21707  0.79506  0.06105  1.0000
  C   C25       1.0  0.25579  0.85753  0.015499999999999998  1.0000
  C   C26       1.0  0.19755000000000006  0.8244900000000002  0.18634999999999996  1.0000
  C   C27       1.0  0.17671  0.79719  0.94733  1.0000
  C   C28       1.0  0.28384  0.68458  0.0787  1.0000
  H   H1        1.0  0.27959  0.47687  0.15488999999999997  1.0000
  H   H2        1.0  0.1675  0.65645  0.14675  1.0000
  H   H3        1.0  0.27168  0.83907  0.9263899999999999  1.0000
  H   H4        1.0  0.24017  0.92003  0.9889699999999999  1.0000
  H   H5        1.0  0.28497  0.86256  0.09492  1.0000
  H   H6        1.0  0.18495  0.88945  0.16779999999999998  1.0000
  H   H7        1.0  0.22580000000000003  0.82035  0.27041  1.0000
  H   H8        1.0  0.16699  0.78608  0.21732  1.0000
  H   H9        1.0  0.16252999999999998  0.86071  0.9212400000000001  1.0000
  H   H10       1.0  0.1461  0.75713  0.9745899999999998  1.0000
  H   H11       1.0  0.19069  0.77567  0.8571  1.0000
  H   H12       1.0  0.30927  0.73063  0.04728  1.0000
  C   C29       1.0  0.7614199999999999  0.88328  0.70753  1.0000
  C   C30       1.0  0.71529  0.91524  0.7141499999999998  1.0000
  C   C31       1.0  0.68903  0.89316  0.82491  1.0000
  C   C32       1.0  0.63589  0.91196  0.82986  1.0000
  F   F5        1.0  0.62923  0.93901  0.95277  1.0000
  F   F6        1.0  0.61161  0.83782  0.82325  1.0000
  C   C33       1.0  0.61141  0.9748500000000001  0.72084  1.0000
  F   F7        1.0  0.56257  0.9714899999999999  0.73557  1.0000
  F   F8        1.0  0.61759  0.9532100000000001  0.59482  1.0000
  C   C34       1.0  0.71104  0.8423  0.93244  1.0000
  C   C35       1.0  0.75848  0.81375  0.93365  1.0000
  C   C36       1.0  0.77922  0.7538  0.05235  1.0000
  C   C37       1.0  0.83308  0.73522  0.045699999999999984  1.0000
  C   C38       1.0  0.75105  0.67205  0.05147999999999997  1.0000
  C   C39       1.0  0.7743  0.7888  0.18751999999999996  1.0000
  C   C40       1.0  0.78323  0.83502  0.81852  1.0000
  H   H13       1.0  0.69956  0.95342  0.629  1.0000
  H   H14       1.0  0.68988  0.8225  0.014389999999999903  1.0000
  H   H15       1.0  0.85437  0.79322  0.04113  1.0000
  H   H16       1.0  0.84733  0.69506  0.13516  1.0000
  H   H17       1.0  0.83906  0.70264  0.95762  1.0000
  H   H18       1.0  0.7678  0.62406  0.12634999999999996  1.0000
  H   H19       1.0  0.74987  0.64925  0.95173  1.0000
  H   H20       1.0  0.71346  0.68063  0.07504  1.0000
  H   H21       1.0  0.78406  0.74102  0.27135  1.0000
  H   H22       1.0  0.73729  0.80886  0.19937  1.0000
  H   H23       1.0  0.79881  0.84159  0.20029  1.0000
  H   H24       1.0  0.81906  0.81333  0.81294  1.0000
  C   C41       1.0  0.185  0.03019  0.4119999999999999  1.0000
  C   C42       1.0  0.22859  0.9994399999999999  0.47457999999999995  1.0000
  C   C43       1.0  0.23192  0.91893  0.53862  1.0000
  C   C44       1.0  0.27733  0.8924000000000002  0.62626  1.0000
  F   F9        1.0  0.27223  0.81295  0.6867399999999999  1.0000
  F   F10       1.0  0.28281  0.94513  0.72592  1.0000
  C   C45       1.0  0.32429  0.89574  0.55479  1.0000
  F   F11       1.0  0.362  0.87498  0.64965  1.0000
  F   F12       1.0  0.33314  0.9747899999999999  0.49849999999999994  1.0000
  C   C46       1.0  0.19011000000000003  0.8693600000000001  0.53902  1.0000
  C   C47       1.0  0.14525  0.89944  0.47870999999999997  1.0000
  C   C48       1.0  0.09897  0.84774  0.49665999999999993  1.0000
  C   C49       1.0  0.053270000000000005  0.89096  0.42599  1.0000
  C   C50       1.0  0.09133  0.8329900000000001  0.6465399999999999  1.0000
  C   C51       1.0  0.10299000000000001  0.76351  0.4403099999999999  1.0000
  C   C52       1.0  0.14396  0.98019  0.41292999999999996  1.0000
  H   H25       1.0  0.25895  0.04089000000000009  0.48108  1.0000
  H   H26       1.0  0.19179  0.80857  0.59294  1.0000
  H   H27       1.0  0.05678  0.90376  0.31714  1.0000
  H   H28       1.0  0.02109  0.85119  0.4385  1.0000
  H   H29       1.0  0.0465  0.94976  0.46887  1.0000
  H   H30       1.0  0.05663  0.80119  0.66225  1.0000
  H   H31       1.0  0.09089  0.89258  0.6915  1.0000
  H   H32       1.0  0.12007  0.79345  0.7007499999999999  1.0000
  H   H33       1.0  0.07191  0.72353  0.46566  1.0000
  H   H34       1.0  0.13627  0.73  0.48105999999999993  1.0000
  H   H35       1.0  0.10235  0.77202  0.33007  1.0000
  H   H36       1.0  0.11091999999999999  0.006339999999999999  0.36402  1.0000
  C   C53       1.0  0.80207  0.56088  0.80334  1.0000
  C   C54       1.0  0.75937  0.51547  0.8  1.0000
  C   C55       1.0  0.7533  0.44888000000000006  0.89645  1.0000
  C   C56       1.0  0.70646  0.40087  0.89883  1.0000
  F   F13       1.0  0.67223  0.43563  0.80298  1.0000
  F   F14       1.0  0.6891  0.40574  0.0220800000000001  1.0000
  C   C57       1.0  0.71247  0.30881  0.8781599999999999  1.0000
  F   F15       1.0  0.67212  0.26661  0.91647  1.0000
  F   F16       1.0  0.75071  0.27512  0.9592499999999999  1.0000
  C   C58       1.0  0.79016  0.43068  0.9984899999999999  1.0000
  C   C59       1.0  0.83403  0.47393  0.00162  1.0000
  C   C60       1.0  0.87228  0.45444  0.11929  1.0000
  C   C61       1.0  0.91828  0.50738  0.1085  1.0000
  C   C62       1.0  0.88754  0.36324  0.12771  1.0000
  C   C63       1.0  0.85043  0.47089  0.24921  1.0000
  C   C64       1.0  0.83975  0.53771  0.8999099999999998  1.0000
  H   H37       1.0  0.7309400000000001  0.53292  0.72334  1.0000
  H   H38       1.0  0.78399  0.38373  0.07844999999999999  1.0000
  H   H39       1.0  0.91002  0.57393  0.10844999999999999  1.0000
  H   H40       1.0  0.94479  0.49062  0.19478  1.0000
  H   H41       1.0  0.9357800000000001  0.49731000000000003  0.01669  1.0000
  H   H42       1.0  0.91709  0.34916  0.20696  1.0000
  H   H43       1.0  0.8999  0.34791  0.03147999999999995  1.0000
  H   H44       1.0  0.85732  0.32238  0.15327  1.0000
  H   H45       1.0  0.87787  0.4634100000000001  0.33456  1.0000
  H   H46       1.0  0.82072  0.42748  0.27198  1.0000
  H   H47       1.0  0.8362  0.53477  0.24111999999999997  1.0000
  H   H48       1.0  0.87257  0.57312  0.89844  1.0000
  C   C65       1.0  0.5018  0.57584  0.37635  1.0000
  C   C66       1.0  0.52235  0.50758  0.32804999999999995  1.0000
  C   C67       1.0  0.57077  0.50804  0.3006  1.0000
  C   C68       1.0  0.59167  0.43725  0.23574999999999996  1.0000
  F   F17       1.0  0.64001  0.45068  0.22063  1.0000
  F   F18       1.0  0.56864  0.4358  0.10948999999999999  1.0000
  C   C69       1.0  0.58668  0.35122  0.31236  1.0000
  F   F19       1.0  0.61514  0.29614999999999997  0.25819  1.0000
  F   F20       1.0  0.53978  0.32397  0.29598  1.0000
  C   C70       1.0  0.59853  0.5787  0.32162  1.0000
  C   C71       1.0  0.57869  0.64933  0.36613  1.0000
  C   C72       1.0  0.60966  0.7279  0.37394  1.0000
  C   C73       1.0  0.58238  0.80102  0.41912  1.0000
  C   C74       1.0  0.6262200000000001  0.75589  0.2346  1.0000
  C   C75       1.0  0.65407  0.70962  0.47358  1.0000
  C   C76       1.0  0.53017  0.64592  0.39599  1.0000
  H   H49       1.0  0.50025  0.4547  0.30959  1.0000
  H   H50       1.0  0.63554  0.58025  0.29784  1.0000
  H   H51       1.0  0.57122  0.78638  0.52174  1.0000
  H   H52       1.0  0.60569  0.8565  0.41905  1.0000
  H   H53       1.0  0.55025  0.81748  0.34962  1.0000
  H   H54       1.0  0.64771  0.8135  0.23658  1.0000
  H   H55       1.0  0.59469  0.7676800000000001  0.16099999999999998  1.0000
  H   H56       1.0  0.64894  0.70869  0.19881  1.0000
  H   H57       1.0  0.67591  0.7662800000000002  0.48439  1.0000
  H   H58       1.0  0.67776  0.66271  0.44026  1.0000
  H   H59       1.0  0.64281  0.6864300000000001  0.57329  1.0000
  H   H60       1.0  0.51348  0.6982100000000001  0.43136  1.0000
  C   C77       1.0  0.92568  0.99727  0.87044  1.0000
  C   C78       1.0  0.96432  0.04265  0.92196  1.0000
  C   C79       1.0  0.95699  0.10397  0.00735999999999981  1.0000
  C   C80       1.0  0.99695  0.15943000000000002  0.06058999999999992  1.0000
  F   F21       1.0  0.001139999999999919  0.14541  0.19835  1.0000
  F   F22       1.0  0.9828700000000001  0.24055000000000004  0.02624999999999988  1.0000
  C   C81       1.0  0.04687  0.14756  0.009069999999999911  1.0000
  F   F23       1.0  0.06242  0.06762  0.04802  1.0000
  F   F24       1.0  0.04370000000000001  0.16124  0.8712899999999999  1.0000
  C   C82       1.0  0.9102100000000001  0.11604999999999999  0.04421999999999992  1.0000
  C   C83       1.0  0.87065  0.07018000000000002  0.9943099999999999  1.0000
  C   C84       1.0  0.81881  0.08285  0.030370000000000005  1.0000
  C   C85       1.0  0.8000800000000001  0.002259999999999929  0.10000000000000007  1.0000
  C   C86       1.0  0.78608  0.10744  0.9022699999999999  1.0000
  C   C87       1.0  0.81478  0.15043  0.12537  1.0000
  C   C88       1.0  0.87942  0.011290000000000244  0.9062  1.0000
  H   H61       1.0  0.99948  0.030499999999999996  0.89155  1.0000
  H   H62       1.0  0.90538  0.16265000000000002  0.11102999999999996  1.0000
  H   H63       1.0  0.82376  0.98244  0.19089  1.0000
  H   H64       1.0  0.76306  0.009929999999999994  0.12939999999999993  1.0000
  H   H65       1.0  0.79891  0.95259  0.032829999999999915  1.0000
  H   H66       1.0  0.7491  0.12087000000000003  0.92672  1.0000
  H   H67       1.0  0.78317  0.05736  0.83526  1.0000
  H   H68       1.0  0.80037  0.16326  0.84668  1.0000
  H   H69       1.0  0.77713  0.15789  0.14966999999999975  1.0000
  H   H70       1.0  0.82654  0.21011000000000007  0.07713999999999976  1.0000
  H   H71       1.0  0.8367699999999999  0.13511000000000004  0.22083  1.0000
  H   H72       1.0  0.85017  0.9749799999999998  0.8658299999999999  1.0000
  C   C89       1.0  0.4901  0.16209  0.9884699999999998  1.0000
  C   C90       1.0  0.47132  0.08316  0.017999999999999995  1.0000
  C   C91       1.0  0.43115  0.07145  0.09312  1.0000
  C   C92       1.0  0.4096100000000001  0.98715  0.13232  1.0000
  F   F25       1.0  0.36135  0.98927  0.08764  1.0000
  F   F26       1.0  0.41301  0.9747700000000002  0.27033999999999997  1.0000
  C   C93       1.0  0.43291  0.913  0.07761  1.0000
  F   F27       1.0  0.42932  0.92382  0.9394199999999999  1.0000
  F   F28       1.0  0.48090000000000005  0.90636  0.12423999999999999  1.0000
  C   C94       1.0  0.41016  0.14081  0.13749  1.0000
  C   C95       1.0  0.42791  0.22123  0.10789  1.0000
  C   C96       1.0  0.40464  0.29472  0.16396  1.0000
  C   C97       1.0  0.42754000000000003  0.3783  0.11868  1.0000
  C   C98       1.0  0.41069  0.28308  0.31764999999999993  1.0000
  C   C99       1.0  0.35061  0.30012  0.11745  1.0000
  C   C100      1.0  0.46802  0.23042  0.03130999999999999  1.0000
  H   H73       1.0  0.48849  0.03191999999999995  0.9811799999999999  1.0000
  H   H74       1.0  0.37982  0.13135  0.19712999999999997  1.0000
  H   H75       1.0  0.42188  0.39229  0.00882000000000005  1.0000
  H   H76       1.0  0.41165  0.42897  0.16611  1.0000
  H   H77       1.0  0.46649  0.37819  0.14866  1.0000
  H   H78       1.0  0.39501  0.33609  0.36046  1.0000
  H   H79       1.0  0.4493500000000001  0.27867  0.35296  1.0000
  H   H80       1.0  0.39245  0.22628  0.35761999999999994  1.0000
  H   H81       1.0  0.33413  0.3548  0.15337  1.0000
  H   H82       1.0  0.33064  0.24513000000000001  0.15674999999999997  1.0000
  H   H83       1.0  0.34521  0.30591  0.00692  1.0000
  H   H84       1.0  0.48388  0.28998  0.007609999999999999  1.0000
  C   C101      1.0  0.0115  0.3747900000000001  0.45542  1.0000
  C   C102      1.0  0.99517  0.44988  0.48958  1.0000
  C   C103      1.0  0.94976  0.45607  0.53682  1.0000
  C   C104      1.0  0.9337  0.5371  0.58279  1.0000
  F   F29       1.0  0.96343  0.55073  0.69484  1.0000
  F   F30       1.0  0.88793  0.52639  0.62345  1.0000
  C   C105      1.0  0.93322  0.61411  0.47529999999999994  1.0000
  F   F31       1.0  0.88796  0.62167  0.40849  1.0000
  F   F32       1.0  0.9653  0.6054600000000001  0.38085  1.0000
  C   C106      1.0  0.92223  0.38331000000000004  0.55713  1.0000
  C   C107      1.0  0.93959  0.30548  0.53225  1.0000
  C   C108      1.0  0.90927  0.22716  0.56253  1.0000
  C   C109      1.0  0.93485  0.14682  0.53718  1.0000
  C   C110      1.0  0.8615700000000001  0.23333999999999996  0.47416  1.0000
  C   C111      1.0  0.89829  0.21895  0.7102  1.0000
  C   C112      1.0  0.9846700000000002  0.30292  0.47956  1.0000
  H   H85       1.0  0.018440000000000015  0.50318  0.48058999999999996  1.0000
  H   H86       1.0  0.88739  0.38663  0.5953099999999999  1.0000
  H   H87       1.0  0.9693  0.13880000000000003  0.6002199999999999  1.0000
  H   H88       1.0  0.9123  0.0919  0.56221  1.0000
  H   H89       1.0  0.94192  0.14694  0.43067999999999995  1.0000
  H   H90       1.0  0.8394000000000001  0.17711  0.49350999999999995  1.0000
  H   H91       1.0  0.86857  0.23994999999999997  0.36735  1.0000
  H   H92       1.0  0.84002  0.28707  0.49383  1.0000
  H   H93       1.0  0.87817  0.16111  0.73424  1.0000
  H   H94       1.0  0.8758  0.27052  0.7338  1.0000
  H   H95       1.0  0.93217  0.21764  0.7757899999999999  1.0000
  H   H96       1.0  0.99935  0.24593  0.45421999999999996  1.0000
