data_image0
_chemical_formula_structural       EuOCO6COC2EuOCO6COC2EuOCO6COC2EuOCO6COC5BrC4BrCBrC2BrCBrCH3C3BrC4BrCBrC2BrCBrCH3C3BrC4BrCBrC2BrCBrCH3C3BrC4BrCBrC2BrCBrCH3C3BrC4BrCBrC2BrCBrCH3C3BrC4BrCBrC2BrCBrCH3C3BrC4BrCBrC2BrCBrCH3C3BrC4BrCBrC2BrCBrCH3
_chemical_formula_sum              "Eu4 O32 C112 Br40 H24"
_cell_length_a       39.5085
_cell_length_b       20.2269
_cell_length_c       9.2437
_cell_angle_alpha    93.13870000000001
_cell_angle_beta     85.9892
_cell_angle_gamma    86.34879999999998

_symmetry_space_group_name_H-M    'P 1'
_symmetry_Int_Tables_number       1

loop_
  _symmetry_equiv_pos_as_xyz
  'x,y,z'

loop_
  _atom_site_type_symbol
  _atom_site_label
  _atom_site_symmetry_multiplicity
  _atom_site_fract_x
  _atom_site_fract_y
  _atom_site_fract_z
  _atom_site_occupancy
  Eu  Eu1       1.0  0.39416  0.72056  0.23182000000000003  1.0000
  O   O1        1.0  0.33664  0.77989  0.06889000000000003  1.0000
  C   C1        1.0  0.33066  0.64004  0.18412000000000006  1.0000
  O   O2        1.0  0.42432  0.78375  0.96509  1.0000
  O   O3        1.0  0.44493999999999995  0.7650999999999999  0.1808  1.0000
  O   O4        1.0  0.43473999999999996  0.70691  0.64945  1.0000
  O   O5        1.0  0.35078  0.61133  0.09237  1.0000
  O   O6        1.0  0.34209  0.68229  0.29090000000000005  1.0000
  O   O7        1.0  0.36736  0.8241099999999999  0.24049  1.0000
  C   C2        1.0  0.33792  0.8220399999999999  0.16717000000000004  1.0000
  O   O8        1.0  0.4013999999999999  0.73519  0.47357000000000005  1.0000
  C   C3        1.0  0.42544000000000004  0.69206  0.5298600000000001  1.0000
  C   C4        1.0  0.44290999999999997  0.8011299999999999  0.0577  1.0000
  Eu  Eu2       1.0  0.86982  0.7586899999999999  0.86147  1.0000
  O   O9        1.0  0.8018  0.8229  0.85673  1.0000
  C   C5        1.0  0.84264  0.61724  0.88818  1.0000
  O   O10       1.0  0.92001  0.86169  0.92282  1.0000
  O   O11       1.0  0.8676  0.8706999999999999  0.8413100000000001  1.0000
  O   O12       1.0  0.9394399999999999  0.6975600000000001  0.8670500000000002  1.0000
  O   O13       1.0  0.8163400000000001  0.65115  0.8789400000000002  1.0000
  O   O14       1.0  0.8735700000000001  0.64631  0.8801300000000001  1.0000
  O   O15       1.0  0.83112  0.75215  0.69053  1.0000
  C   C6        1.0  0.80326  0.79567  0.7353700000000001  1.0000
  O   O16       1.0  0.91326  0.74418  0.6858200000000002  1.0000
  C   C7        1.0  0.9391899999999999  0.70428  0.73697  1.0000
  C   C8        1.0  0.89732  0.89779  0.88086  1.0000
  Eu  Eu3       1.0  0.11216999999999999  0.24925  0.22382000000000002  1.0000
  O   O17       1.0  0.18136  0.16904  0.23279  1.0000
  C   C9        1.0  0.17636  0.32206  0.1413  1.0000
  O   O18       1.0  0.05759  0.25118  0.01323  1.0000
  O   O19       1.0  0.06905  0.18193999999999996  0.18884  1.0000
  O   O20       1.0  0.026450000000000005  0.3225999999999999  0.36041  1.0000
  O   O21       1.0  0.17578  0.28212  0.03817000000000001  1.0000
  O   O22       1.0  0.15484999999999996  0.31653999999999993  0.2648700000000001  1.0000
  O   O23       1.0  0.13278  0.17477999999999996  0.37736  1.0000
  C   C10       1.0  0.16307  0.14180999999999996  0.31919  1.0000
  O   O24       1.0  0.08097  0.30496999999999996  0.41388  1.0000
  C   C11       1.0  0.05421999999999999  0.34494  0.36919  1.0000
  C   C12       1.0  0.050039999999999994  0.20236  0.07665  1.0000
  Eu  Eu4       1.0  0.61791  0.2636  0.8234800000000002  1.0000
  O   O25       1.0  0.65664  0.14325  0.88991  1.0000
  C   C13       1.0  0.68412  0.31657  0.9154300000000001  1.0000
  O   O26       1.0  0.58248  0.14434999999999998  0.9544000000000001  1.0000
  O   O27       1.0  0.56268  0.23779999999999998  0.8577  1.0000
  O   O28       1.0  0.59703  0.40438999999999997  0.8084800000000001  1.0000
  O   O29       1.0  0.66762  0.30805999999999994  0.02838999999999992  1.0000
  O   O30       1.0  0.67206  0.29501  0.7845100000000002  1.0000
  O   O31       1.0  0.63224  0.16769  0.6848700000000002  1.0000
  C   C14       1.0  0.65165  0.12551  0.7655000000000001  1.0000
  O   O32       1.0  0.60126  0.32171999999999995  0.6340500000000001  1.0000
  C   C15       1.0  0.5875900000000001  0.3830499999999999  0.6933800000000002  1.0000
  C   C16       1.0  0.5583  0.17577  0.9108800000000001  1.0000
  C   C17       1.0  0.29402  0.63173  0.18236000000000005  1.0000
  C   C18       1.0  0.27092  0.68715  0.21406000000000006  1.0000
  C   C19       1.0  0.23596000000000003  0.68033  0.21594000000000002  1.0000
  Br  Br1       1.0  0.20489  0.75639  0.25417  1.0000
  C   C20       1.0  0.22375  0.61781  0.19089  1.0000
  C   C21       1.0  0.24653999999999998  0.5619199999999999  0.16107  1.0000
  C   C22       1.0  0.23306  0.49576  0.14695000000000003  1.0000
  C   C23       1.0  0.23263999999999999  0.45524  0.26597  1.0000
  Br  Br2       1.0  0.25289  0.48338  0.44147  1.0000
  C   C24       1.0  0.21597999999999998  0.39593  0.25991  1.0000
  Br  Br3       1.0  0.21754  0.33907999999999994  0.42113000000000006  1.0000
  C   C25       1.0  0.19883999999999993  0.37778  0.13603  1.0000
  C   C26       1.0  0.2007  0.41708  0.01399  1.0000
  Br  Br4       1.0  0.17707  0.39486  0.8437000000000001  1.0000
  C   C27       1.0  0.21797999999999998  0.47579  0.019620000000000002  1.0000
  Br  Br5       1.0  0.21952999999999998  0.53111  0.8558900000000002  1.0000
  C   C28       1.0  0.28172  0.56907  0.15406  1.0000
  H   H1        1.0  0.28003  0.73581  0.23564000000000004  1.0000
  H   H2        1.0  0.19656999999999997  0.61253  0.19627000000000003  1.0000
  H   H3        1.0  0.29935  0.52579  0.13232  1.0000
  C   C29       1.0  0.7759200000000002  0.80968  0.63826  1.0000
  C   C30       1.0  0.77232  0.7678199999999997  0.51485  1.0000
  C   C31       1.0  0.74583  0.7810499999999999  0.4253000000000001  1.0000
  Br  Br6       1.0  0.7408799999999999  0.72313  0.2589200000000001  1.0000
  C   C32       1.0  0.72302  0.83661  0.45727  1.0000
  C   C33       1.0  0.72691  0.8796199999999998  0.5782  1.0000
  C   C34       1.0  0.70387  0.93976  0.6122600000000002  1.0000
  C   C35       1.0  0.70755  0.99622  0.53117  1.0000
  Br  Br7       1.0  0.74048  0.9927099999999999  0.3661  1.0000
  C   C36       1.0  0.68871  0.05627  0.57562  1.0000
  Br  Br8       1.0  0.69514  0.13387  0.46701000000000004  1.0000
  C   C37       1.0  0.66665  0.06032999999999999  0.70318  1.0000
  C   C38       1.0  0.66171  0.0026800000000000005  0.77963  1.0000
  Br  Br9       1.0  0.62896  0.005019999999999996  0.9451  1.0000
  C   C39       1.0  0.68027  0.94264  0.7342  1.0000
  Br  Br10      1.0  0.6738900000000001  0.86422  0.8404300000000002  1.0000
  C   C40       1.0  0.7532  0.86577  0.6684900000000003  1.0000
  H   H4        1.0  0.7897099999999999  0.7245299999999999  0.48899  1.0000
  H   H5        1.0  0.70247  0.84647  0.38802  1.0000
  H   H6        1.0  0.75598  0.8992499999999998  0.76198  1.0000
  C   C41       1.0  0.17195  0.07307  0.35668  1.0000
  C   C42       1.0  0.14702  0.03647999999999999  0.42491000000000007  1.0000
  C   C43       1.0  0.15395  0.96954  0.44828  1.0000
  Br  Br11      1.0  0.11941  0.9199599999999998  0.53675  1.0000
  C   C44       1.0  0.18593  0.9386699999999998  0.4051500000000001  1.0000
  C   C45       1.0  0.21158  0.97478  0.34123  1.0000
  C   C46       1.0  0.24552  0.9411199999999998  0.29742  1.0000
  C   C47       1.0  0.26561  0.91456  0.40332  1.0000
  Br  Br12      1.0  0.25105  0.9299299999999998  0.60654  1.0000
  C   C48       1.0  0.29627  0.87693  0.36143  1.0000
  Br  Br13      1.0  0.32075  0.83404  0.50808  1.0000
  C   C49       1.0  0.30761  0.86727  0.21292  1.0000
  C   C50       1.0  0.28841  0.89706  0.10774  1.0000
  Br  Br14      1.0  0.3053  0.8906  0.9062400000000002  1.0000
  C   C51       1.0  0.25714  0.9325999999999998  0.14945000000000006  1.0000
  Br  Br15      1.0  0.22926999999999997  0.9658799999999998  0.0024900000000000005  1.0000
  C   C52       1.0  0.2045  0.042129999999999994  0.31727  1.0000
  H   H7        1.0  0.12185  0.05925  0.45686000000000004  1.0000
  H   H8        1.0  0.19087  0.88662  0.42247  1.0000
  H   H9        1.0  0.22416999999999998  0.06988  0.26622  1.0000
  C   C53       1.0  0.84194  0.5457699999999999  0.91344  1.0000
  C   C54       1.0  0.8708899999999999  0.51122  0.95937  1.0000
  C   C55       1.0  0.86956  0.44545999999999997  0.9973500000000001  1.0000
  Br  Br16      1.0  0.90865  0.39992  0.06563999999999992  1.0000
  C   C56       1.0  0.8394499999999999  0.41331  0.9880600000000002  1.0000
  C   C57       1.0  0.8106100000000002  0.44621  0.9376500000000001  1.0000
  C   C58       1.0  0.77829  0.41267  0.93163  1.0000
  C   C59       1.0  0.77669  0.35436  0.8417300000000002  1.0000
  Br  Br17      1.0  0.81591  0.31973999999999997  0.71793  1.0000
  C   C60       1.0  0.74612  0.32216  0.8383700000000002  1.0000
  Br  Br18      1.0  0.74558  0.23838999999999996  0.72846  1.0000
  C   C61       1.0  0.71643  0.34995999999999994  0.9186300000000001  1.0000
  C   C62       1.0  0.71775  0.4097899999999999  0.003649999999999931  1.0000
  Br  Br19      1.0  0.67661  0.45477  0.09563000000000033  1.0000
  C   C63       1.0  0.7488  0.43943  0.014920000000000044  1.0000
  Br  Br20      1.0  0.75096  0.51516  0.15016000000000007  1.0000
  C   C64       1.0  0.81222  0.51217  0.89822  1.0000
  H   H10       1.0  0.8942999999999999  0.5356200000000001  0.9691600000000001  1.0000
  H   H11       1.0  0.83853  0.36278  0.02039000000000013  1.0000
  H   H12       1.0  0.78998  0.5376799999999999  0.8594400000000002  1.0000
  C   C65       1.0  0.4391  0.6286  0.4529900000000001  1.0000
  C   C66       1.0  0.42097  0.59658  0.34766  1.0000
  C   C67       1.0  0.43296999999999997  0.53454  0.2830400000000001  1.0000
  Br  Br21      1.0  0.4079  0.49092  0.14112  1.0000
  C   C68       1.0  0.46248  0.50252  0.3274300000000001  1.0000
  C   C69       1.0  0.4803200000000001  0.53248  0.43598000000000003  1.0000
  C   C70       1.0  0.50805  0.49387999999999993  0.49984000000000006  1.0000
  C   C71       1.0  0.50237  0.47129999999999994  0.64063  1.0000
  Br  Br22      1.0  0.45814  0.48694  0.74451  1.0000
  C   C72       1.0  0.52842  0.43493  0.7036000000000002  1.0000
  Br  Br23      1.0  0.5198600000000001  0.4030099999999999  0.89531  1.0000
  C   C73       1.0  0.56016  0.41993  0.62507  1.0000
  C   C74       1.0  0.56547  0.44038  0.48256  1.0000
  Br  Br24      1.0  0.60888  0.41994999999999993  0.37608  1.0000
  C   C75       1.0  0.53951  0.4776  0.42004  1.0000
  Br  Br25      1.0  0.54731  0.50741  0.22658  1.0000
  C   C76       1.0  0.46903  0.59604  0.49603  1.0000
  H   H13       1.0  0.39677000000000007  0.61777  0.32055  1.0000
  H   H14       1.0  0.47070999999999996  0.45319999999999994  0.28179  1.0000
  H   H15       1.0  0.48274  0.61853  0.58143  1.0000
  C   C77       1.0  0.90101  0.9697799999999999  0.8719500000000001  1.0000
  C   C78       1.0  0.87475  0.010559999999999903  0.82126  1.0000
  C   C79       1.0  0.8777699999999999  0.07878999999999992  0.8143500000000002  1.0000
  Br  Br26      1.0  0.8418199999999999  0.13347  0.74588  1.0000
  C   C80       1.0  0.9070100000000001  0.10705  0.85798  1.0000
  C   C81       1.0  0.9334799999999999  0.0670900000000001  0.90796  1.0000
  C   C82       1.0  0.9643  0.0976  0.9529  1.0000
  C   C83       1.0  0.99061  0.10845999999999999  0.8481  1.0000
  Br  Br27      1.0  0.9880099999999999  0.07545000000000002  0.64973  1.0000
  C   C84       1.0  0.018750000000000003  0.14266  0.88825  1.0000
  Br  Br28      1.0  0.054859999999999985  0.15634  0.7431600000000003  1.0000
  C   C85       1.0  0.02095  0.16494  0.034580000000000014  1.0000
  C   C86       1.0  0.99521  0.15119  0.14056  1.0000
  Br  Br29      1.0  0.9977699999999999  0.17992999999999998  0.3416  1.0000
  C   C87       1.0  0.96675  0.11833  0.09932000000000002  1.0000
  Br  Br30      1.0  0.9305  0.10321999999999987  0.2425  1.0000
  C   C88       1.0  0.9305299999999999  0.9985799999999998  0.91473  1.0000
  H   H16       1.0  0.8518500000000001  0.9896899999999998  0.7868  1.0000
  H   H17       1.0  0.90921  0.15999  0.85274  1.0000
  H   H18       1.0  0.9511999999999999  0.9680799999999998  0.95312  1.0000
  C   C89       1.0  0.52441  0.14877  0.9135300000000001  1.0000
  C   C90       1.0  0.49626  0.18874  0.87597  1.0000
  C   C91       1.0  0.464  0.16434999999999997  0.87756  1.0000
  Br  Br31      1.0  0.42605  0.21995999999999996  0.8292200000000002  1.0000
  C   C92       1.0  0.4594  0.09959999999999998  0.9157400000000001  1.0000
  C   C93       1.0  0.48717  0.05894  0.95278  1.0000
  C   C94       1.0  0.4817600000000001  0.9902  0.9893700000000001  1.0000
  C   C95       1.0  0.46704999999999997  0.9775499999999999  0.12742  1.0000
  Br  Br32      1.0  0.46020999999999995  0.048479999999999995  0.27748  1.0000
  C   C96       1.0  0.45657999999999993  0.9138699999999998  0.15454000000000007  1.0000
  Br  Br33      1.0  0.43442000000000003  0.8991999999999998  0.3420100000000001  1.0000
  C   C97       1.0  0.46074  0.86282  0.04258  1.0000
  C   C98       1.0  0.47847999999999996  0.8743499999999998  0.90926  1.0000
  Br  Br34      1.0  0.48955999999999994  0.80276  0.7640000000000002  1.0000
  C   C99       1.0  0.48861  0.9381199999999998  0.8821600000000002  1.0000
  Br  Br35      1.0  0.51  0.95535  0.69493  1.0000
  C   C100      1.0  0.51961  0.08339999999999997  0.95181  1.0000
  H   H19       1.0  0.4992500000000001  0.23905  0.8455500000000002  1.0000
  H   H20       1.0  0.43431999999999993  0.08081  0.91636  1.0000
  H   H21       1.0  0.54097  0.051279999999999985  0.9792900000000001  1.0000
  C   C101      1.0  0.05827000000000001  0.4152499999999999  0.34429  1.0000
  C   C102      1.0  0.08603000000000001  0.43432  0.2569  1.0000
  C   C103      1.0  0.08949000000000001  0.5014899999999999  0.23396000000000003  1.0000
  Br  Br36      1.0  0.12697  0.5278599999999999  0.11404000000000002  1.0000
  C   C104      1.0  0.06557  0.54982  0.29957  1.0000
  C   C105      1.0  0.038  0.5313799999999999  0.38873  1.0000
  C   C106      1.0  0.01354  0.58219  0.46527  1.0000
  C   C107      1.0  0.02389000000000001  0.6234399999999999  0.5796900000000001  1.0000
  Br  Br37      1.0  0.07067  0.6181199999999999  0.62894  1.0000
  C   C108      1.0  0.9997900000000001  0.6663  0.6636300000000003  1.0000
  Br  Br38      1.0  0.014440000000000007  0.72392  0.8175800000000001  1.0000
  C   C109      1.0  0.96509  0.66706  0.63567  1.0000
  C   C110      1.0  0.95498  0.62774  0.5173200000000001  1.0000
  Br  Br39      1.0  0.9075599999999999  0.6259499999999999  0.47907  1.0000
  C   C111      1.0  0.97922  0.58579  0.4319000000000001  1.0000
  Br  Br40      1.0  0.96534  0.53239  0.26974  1.0000
  C   C112      1.0  0.03433  0.46397999999999995  0.40975000000000006  1.0000
  H   H22       1.0  0.10440000000000002  0.39713  0.20420000000000002  1.0000
  H   H23       1.0  0.06868  0.6016399999999998  0.2825  1.0000
  H   H24       1.0  0.013179999999999996  0.44963  0.47978  1.0000
