data_image0
_chemical_formula_structural       EuOCO6COC2EuOCO6COC2EuOCO6COC2EuOCO6COC4ClCClC2N2CN2CClCClH2C2ClCClC2N2CN2CClCClH2C2ClCClC2N2CN2CClCClH2C2ClCClC2N2CN2CClCClH2C2ClCClC2N2CN2CClCClH2C2ClCClC2N2CN2CClCClH2C2ClCClC2N2CN2CClCClH2C2ClCClC2N2CN2CClCClH2
_chemical_formula_sum              "Eu4 O32 C80 Cl32 N32 H16"
_cell_length_a       44.7129
_cell_length_b       17.1552
_cell_length_c       9.5697
_cell_angle_alpha    96.9077
_cell_angle_beta     92.549
_cell_angle_gamma    85.4103

_symmetry_space_group_name_H-M    'P 1'
_symmetry_Int_Tables_number       1

loop_
  _symmetry_equiv_pos_as_xyz
  'x,y,z'

loop_
  _atom_site_type_symbol
  _atom_site_label
  _atom_site_symmetry_multiplicity
  _atom_site_fract_x
  _atom_site_fract_y
  _atom_site_fract_z
  _atom_site_occupancy
  Eu  Eu1       1.0  0.3874  0.74039  0.07812  1.0000
  O   O1        1.0  0.3273  0.8163800000000002  0.1116  1.0000
  C   C1        1.0  0.33616000000000007  0.63336  0.00299  1.0000
  O   O2        1.0  0.39113  0.8281600000000002  0.83187  1.0000
  O   O3        1.0  0.4168700000000001  0.83767  0.04002  1.0000
  O   O4        1.0  0.45790000000000003  0.7282  0.10062  1.0000
  O   O5        1.0  0.3415500000000001  0.6551100000000002  0.89094  1.0000
  O   O6        1.0  0.35612  0.64745  0.11721  1.0000
  O   O7        1.0  0.3672  0.8211300000000002  0.26191  1.0000
  C   C2        1.0  0.33816  0.8463900000000002  0.22186  1.0000
  O   O8        1.0  0.42251  0.6831  0.22301  1.0000
  C   C3        1.0  0.45212  0.68517  0.18587000000000004  1.0000
  C   C4        1.0  0.41114  0.85785  0.90438  1.0000
  Eu  Eu2       1.0  0.87115  0.72052  0.85298  1.0000
  O   O9        1.0  0.8581400000000001  0.90451  0.91807  1.0000
  C   C5        1.0  0.83335  0.61111  0.98434  1.0000
  O   O10       1.0  0.92442  0.7423900000000002  0.04008999999999996  1.0000
  O   O11       1.0  0.9081300000000001  0.8043  0.8542  1.0000
  O   O12       1.0  0.8880900000000003  0.55193  0.67446  1.0000
  O   O13       1.0  0.852  0.63199  0.07528000000000001  1.0000
  O   O14       1.0  0.83494  0.63438  0.85096  1.0000
  O   O15       1.0  0.8351  0.81037  0.78032  1.0000
  C   C6        1.0  0.83465  0.88139  0.8672  1.0000
  O   O16       1.0  0.8817000000000003  0.6778  0.62541  1.0000
  C   C7        1.0  0.89742  0.60427  0.61719  1.0000
  C   C8        1.0  0.92919  0.7901700000000002  0.96135  1.0000
  Eu  Eu3       1.0  0.1224  0.25244  0.13969  1.0000
  O   O17       1.0  0.18092000000000003  0.1714  0.10148  1.0000
  C   C9        1.0  0.16751000000000002  0.3655100000000001  0.05843  1.0000
  O   O18       1.0  0.08015000000000001  0.1479  0.9549600000000001  1.0000
  O   O19       1.0  0.10546000000000003  0.13242000000000007  0.16015  1.0000
  O   O20       1.0  0.05494  0.26377  0.15625  1.0000
  O   O21       1.0  0.17368  0.30825  0.97472  1.0000
  O   O22       1.0  0.14059000000000002  0.37191  0.12688  1.0000
  O   O23       1.0  0.15912  0.2239  0.30183  1.0000
  C   C10       1.0  0.18250000000000002  0.1813  0.22942  1.0000
  O   O24       1.0  0.09067  0.31319  0.30627  1.0000
  C   C11       1.0  0.06128  0.31335  0.25234  1.0000
  C   C12       1.0  0.08574999999999999  0.10774000000000003  0.05055  1.0000
  Eu  Eu4       1.0  0.6116700000000002  0.29439  0.88756  1.0000
  O   O25       1.0  0.62753  0.14491  0.024899999999999922  1.0000
  C   C13       1.0  0.66639  0.3448200000000001  0.0651600000000001  1.0000
  O   O26       1.0  0.56051  0.24594000000000002  0.042340000000000044  1.0000
  O   O27       1.0  0.5740900000000001  0.21549  0.81765  1.0000
  O   O28       1.0  0.6005600000000001  0.45133  0.75956  1.0000
  O   O29       1.0  0.65621  0.29585000000000006  0.12675999999999998  1.0000
  O   O30       1.0  0.64978  0.37341  0.9543500000000001  1.0000
  O   O31       1.0  0.6459800000000001  0.19015000000000007  0.83708  1.0000
  C   C14       1.0  0.649  0.14758  0.95204  1.0000
  O   O32       1.0  0.61145  0.32598  0.66404  1.0000
  C   C15       1.0  0.59717  0.40089000000000014  0.66063  1.0000
  C   C16       1.0  0.55591  0.20823000000000005  0.9284699999999999  1.0000
  C   C17       1.0  0.30822  0.59432  0.01928  1.0000
  C   C18       1.0  0.30871  0.53132  0.10234  1.0000
  Cl  Cl1       1.0  0.34293999999999997  0.49071000000000004  0.17291  1.0000
  C   C19       1.0  0.2819  0.49846999999999997  0.12687  1.0000
  Cl  Cl2       1.0  0.2826  0.42173  0.23451  1.0000
  C   C20       1.0  0.25452  0.52713  0.06687  1.0000
  C   C21       1.0  0.22626  0.4955300000000001  0.09918  1.0000
  N   N1        1.0  0.20878000000000005  0.52716  0.20593  1.0000
  N   N2        1.0  0.18524000000000002  0.48446000000000006  0.20152  1.0000
  C   C22       1.0  0.18863  0.4271  0.09221  1.0000
  N   N3        1.0  0.21435  0.43263  0.027029999999999995  1.0000
  N   N4        1.0  0.22572  0.38707  0.90605  1.0000
  C   C23       1.0  0.25395  0.58797  0.9804200000000001  1.0000
  Cl  Cl3       1.0  0.21950000000000003  0.6226400000000002  0.90285  1.0000
  C   C24       1.0  0.28062000000000004  0.62205  0.9571900000000001  1.0000
  Cl  Cl4       1.0  0.27861  0.70285  0.8566800000000001  1.0000
  H   H1        1.0  0.20915000000000006  0.38916  0.82585  1.0000
  H   H2        1.0  0.2293  0.32874  0.92828  1.0000
  C   C25       1.0  0.80579  0.92878  0.8931299999999999  1.0000
  C   C26       1.0  0.7802700000000001  0.89165  0.926  1.0000
  Cl  Cl5       1.0  0.78207  0.78881  0.9338  1.0000
  C   C27       1.0  0.7533400000000002  0.93647  0.9585300000000001  1.0000
  Cl  Cl6       1.0  0.72207  0.8900400000000003  0.008119999999999905  1.0000
  C   C28       1.0  0.7514000000000001  0.018400000000000197  0.9548099999999999  1.0000
  C   C29       1.0  0.72358  0.06530000000000001  0.9970200000000001  1.0000
  N   N5        1.0  0.71668  0.08705  0.13280000000000003  1.0000
  N   N6        1.0  0.6885600000000001  0.11808  0.13227999999999995  1.0000
  C   C30       1.0  0.67861  0.11447  0.99625  1.0000
  N   N7        1.0  0.70014  0.08236999999999998  0.9093000000000001  1.0000
  N   N8        1.0  0.69732  0.062220000000000004  0.76298  1.0000
  C   C31       1.0  0.77621  0.055630000000000006  0.9164400000000001  1.0000
  Cl  Cl7       1.0  0.77325  0.15861000000000006  0.90814  1.0000
  C   C32       1.0  0.8034600000000001  0.011009999999999963  0.8863  1.0000
  Cl  Cl8       1.0  0.8341200000000002  0.05875000000000031  0.83417  1.0000
  H   H3        1.0  0.7138700000000001  0.08933  0.71559  1.0000
  H   H4        1.0  0.70205  0.0013099999999999239  0.74296  1.0000
  C   C33       1.0  0.20902000000000007  0.14641000000000004  0.30247  1.0000
  C   C34       1.0  0.23741  0.17345000000000008  0.28505  1.0000
  Cl  Cl9       1.0  0.23999  0.26188  0.21025  1.0000
  C   C35       1.0  0.26358  0.12906  0.32309  1.0000
  Cl  Cl10      1.0  0.29916  0.16102000000000005  0.29461  1.0000
  C   C36       1.0  0.26138  0.056860000000000015  0.37672  1.0000
  C   C37       1.0  0.28792  9.999999999998926e-05  0.37824  1.0000
  N   N9        1.0  0.31134000000000006  0.005750000000000001  0.47143  1.0000
  N   N10       1.0  0.3320400000000001  0.94885  0.42838999999999994  1.0000
  C   C38       1.0  0.32104  0.9097300000000003  0.30892  1.0000
  N   N11       1.0  0.29334  0.94066  0.27608  1.0000
  N   N12       1.0  0.27491  0.9213300000000002  0.15629  1.0000
  C   C39       1.0  0.23301999999999995  0.03328  0.40525  1.0000
  Cl  Cl11      1.0  0.23028000000000004  0.94452  0.47859  1.0000
  C   C40       1.0  0.20681  0.07847000000000003  0.36936  1.0000
  Cl  Cl12      1.0  0.17111  0.04637  0.39756  1.0000
  H   H5        1.0  0.27055  0.86205  0.15325  1.0000
  H   H6        1.0  0.28685  0.92805  0.06753  1.0000
  C   C41       1.0  0.8089700000000002  0.56285  0.016059999999999963  1.0000
  C   C42       1.0  0.80038  0.49941  0.9181900000000001  1.0000
  Cl  Cl13      1.0  0.8194100000000001  0.47367  0.75907  1.0000
  C   C43       1.0  0.77721  0.45388  0.9487  1.0000
  Cl  Cl14      1.0  0.76762  0.37265  0.82737  1.0000
  C   C44       1.0  0.76241  0.4712100000000001  0.07640000000000002  1.0000
  C   C45       1.0  0.73788  0.4235999999999999  0.1079300000000001  1.0000
  N   N13       1.0  0.73948  0.37810000000000005  0.21381000000000006  1.0000
  N   N14       1.0  0.71367  0.34445999999999993  0.2110399999999999  1.0000
  C   C46       1.0  0.6965600000000001  0.37032000000000004  0.10417999999999994  1.0000
  N   N15       1.0  0.71114  0.41997999999999996  0.03746999999999989  1.0000
  N   N16       1.0  0.70022  0.46039000000000013  0.92394  1.0000
  C   C47       1.0  0.77109  0.53376  0.17486000000000002  1.0000
  Cl  Cl15      1.0  0.7524500000000001  0.55595  0.3355999999999999  1.0000
  C   C48       1.0  0.79399  0.5801  0.14434999999999998  1.0000
  Cl  Cl16      1.0  0.80233  0.66275  0.26539  1.0000
  H   H7        1.0  0.68219  0.49914  0.96014  1.0000
  H   H8        1.0  0.71652  0.49598  0.8977300000000001  1.0000
  C   C49       1.0  0.4763400000000001  0.63369  0.24730999999999997  1.0000
  C   C50       1.0  0.47419  0.6135200000000001  0.38523  1.0000
  Cl  Cl17      1.0  0.4455800000000001  0.6587000000000002  0.49671000000000004  1.0000
  C   C51       1.0  0.49561000000000005  0.5593000000000002  0.43899  1.0000
  Cl  Cl18      1.0  0.49028  0.52681  0.60397  1.0000
  C   C52       1.0  0.52033  0.5279400000000001  0.35897  1.0000
  C   C53       1.0  0.54271  0.47069000000000005  0.41535  1.0000
  N   N17       1.0  0.54599  0.39374  0.36427  1.0000
  N   N18       1.0  0.56696  0.36002  0.44463  1.0000
  C   C54       1.0  0.5763400000000001  0.41679  0.54314  1.0000
  N   N19       1.0  0.5615900000000001  0.48671  0.52672  1.0000
  N   N20       1.0  0.56679  0.56034  0.60141  1.0000
  C   C55       1.0  0.52313  0.54908  0.22332000000000002  1.0000
  Cl  Cl19      1.0  0.55451  0.51046  0.12387  1.0000
  C   C56       1.0  0.50117  0.60097  0.16664  1.0000
  Cl  Cl20      1.0  0.50488  0.6211799999999998  0.99174  1.0000
  H   H9        1.0  0.5719  0.59765  0.5289  1.0000
  H   H10       1.0  0.54685  0.58341  0.64823  1.0000
  C   C57       1.0  0.95713  0.8322900000000001  0.9796599999999999  1.0000
  C   C58       1.0  0.96751  0.86261  0.11548  1.0000
  Cl  Cl21      1.0  0.94651  0.8558  0.26513  1.0000
  C   C59       1.0  0.9943400000000001  0.90086  0.13307  1.0000
  Cl  Cl22      1.0  0.006599999999999936  0.94  0.30368  1.0000
  C   C60       1.0  0.011049999999999994  0.9091700000000003  0.015400000000000002  1.0000
  C   C61       1.0  0.03961  0.94756  0.0352  1.0000
  N   N21       1.0  0.06352  0.9200100000000001  0.1103  1.0000
  N   N22       1.0  0.08341  0.9742500000000001  0.12199999999999998  1.0000
  C   C62       1.0  0.07149000000000001  0.03382000000000001  0.052520000000000004  1.0000
  N   N23       1.0  0.04412  0.01864000000000001  0.99683  1.0000
  N   N24       1.0  0.022890000000000004  0.07223  0.94024  1.0000
  C   C63       1.0  0.000829999999999995  0.8793500000000002  0.87996  1.0000
  Cl  Cl23      1.0  0.022820000000000007  0.8848  0.73293  1.0000
  C   C64       1.0  0.9738900000000001  0.8414100000000002  0.86182  1.0000
  Cl  Cl24      1.0  0.96228  0.80242  0.69056  1.0000
  H   H11       1.0  0.01536  0.04601  0.84233  1.0000
  H   H12       1.0  0.004599999999999937  0.08087000000000003  0.006329999999999947  1.0000
  C   C65       1.0  0.53128  0.15464  0.90739  1.0000
  C   C66       1.0  0.5023  0.17946  0.95663  1.0000
  Cl  Cl25      1.0  0.49456000000000006  0.27525  0.04415  1.0000
  C   C67       1.0  0.4788100000000001  0.12905000000000005  0.93162  1.0000
  Cl  Cl26      1.0  0.4424800000000001  0.16157  0.99015  1.0000
  C   C68       1.0  0.4841  0.053720000000000004  0.8572000000000001  1.0000
  C   C69       1.0  0.45953  0.0009900000000000466  0.82941  1.0000
  N   N25       1.0  0.44531  0.9866100000000001  0.70298  1.0000
  N   N26       1.0  0.42591  0.9332900000000002  0.71588  1.0000
  C   C70       1.0  0.42873  0.91552  0.8495699999999999  1.0000
  N   N27       1.0  0.44976000000000005  0.95684  0.9231199999999999  1.0000
  N   N28       1.0  0.45883000000000007  0.95528  0.06478  1.0000
  C   C71       1.0  0.51289  0.028500000000000008  0.80855  1.0000
  Cl  Cl27      1.0  0.51965  0.9331100000000002  0.71729  1.0000
  C   C72       1.0  0.53646  0.07846  0.83423  1.0000
  Cl  Cl28      1.0  0.57276  0.04342  0.77795  1.0000
  H   H13       1.0  0.48209  0.94305  0.06948  1.0000
  H   H14       1.0  0.45431  0.011859999999999982  0.11622  1.0000
  C   C73       1.0  0.03797  0.37367999999999996  0.30741  1.0000
  C   C74       1.0  0.03400999999999999  0.3909300000000001  0.45337000000000005  1.0000
  Cl  Cl29      1.0  0.05657999999999999  0.3395900000000001  0.57415  1.0000
  C   C75       1.0  0.01122  0.44726000000000005  0.50392  1.0000
  Cl  Cl30      1.0  0.0077800000000000005  0.47270000000000006  0.68752  1.0000
  C   C76       1.0  0.9918600000000001  0.48505000000000004  0.40866  1.0000
  C   C77       1.0  0.9670800000000002  0.54158  0.46029  1.0000
  N   N29       1.0  0.9652499999999999  0.61882  0.44343  1.0000
  N   N30       1.0  0.9395000000000001  0.65009  0.49657000000000007  1.0000
  C   C78       1.0  0.9258900000000002  0.5917000000000001  0.54447  1.0000
  N   N31       1.0  0.94268  0.5230500000000002  0.52299  1.0000
  N   N32       1.0  0.9342599999999999  0.4477700000000001  0.54188  1.0000
  C   C79       1.0  0.9963700000000001  0.46992000000000006  0.26331  1.0000
  Cl  Cl31      1.0  0.9725800000000001  0.5184900000000002  0.14286  1.0000
  C   C80       1.0  0.019430000000000006  0.41486  0.21276  1.0000
  Cl  Cl32      1.0  0.025690000000000004  0.40061000000000013  0.03016  1.0000
  H   H15       1.0  0.9359000000000002  0.41229  0.44545  1.0000
  H   H16       1.0  0.94979  0.4238500000000001  0.6126  1.0000
