data_image0
_chemical_formula_structural       EuOCO6COC2EuOCO6COC2EuOCO6COC2EuOCO6COC5OC3F2CF2CH4C3OC3F2CF2CH4C3OC3F2CF2CH4C3OC3F2CF2CH4C3OC3F2CF2CH4C3OC3F2CF2CH4C3OC3F2CF2CH4C3OC3F2CF2CH4
_chemical_formula_sum              "Eu4 O40 C80 F32 H32"
_cell_length_a       33.27
_cell_length_b       14.137900000000002
_cell_length_c       9.7302
_cell_angle_alpha    71.7842
_cell_angle_beta     70.8974
_cell_angle_gamma    90.98499999999999

_space_group_name_H-M_alt    "P 1"
_space_group_IT_number       1

loop_
  _space_group_symop_operation_xyz
  'x, y, z'

loop_
  _atom_site_type_symbol
  _atom_site_label
  _atom_site_symmetry_multiplicity
  _atom_site_fract_x
  _atom_site_fract_y
  _atom_site_fract_z
  _atom_site_occupancy
  Eu  Eu1       1.0  0.38696000000000014  0.72889  0.29329  1.0000
  O   O1        1.0  0.36917  0.9198199999999999  0.11835000000000001  1.0000
  C   C1        1.0  0.34082  0.59498  0.18104  1.0000
  O   O2        1.0  0.48055  0.72648  0.15389  1.0000
  O   O3        1.0  0.44402  0.785  0.34242  1.0000
  O   O4        1.0  0.36939000000000005  0.49410000000000004  0.41912  1.0000
  O   O5        1.0  0.37851000000000007  0.58987  0.11602  1.0000
  O   O6        1.0  0.3308499999999999  0.67095  0.24411000000000002  1.0000
  O   O7        1.0  0.34065  0.83345  0.38544  1.0000
  C   C2        1.0  0.34073  0.90492  0.24763999999999997  1.0000
  O   O8        1.0  0.3689900000000001  0.6094  0.53377  1.0000
  C   C3        1.0  0.37926000000000015  0.51902  0.51446  1.0000
  C   C4        1.0  0.48000000000000015  0.74725  0.26814  1.0000
  Eu  Eu2       1.0  0.88113  0.7963  0.85865  1.0000
  O   O9        1.0  0.8261100000000002  0.9236800000000001  0.0039000000000000146  1.0000
  C   C5        1.0  0.8010700000000001  0.6316699999999998  0.9651  1.0000
  O   O10       1.0  0.94237  0.75598  0.04025999999999996  1.0000
  O   O11       1.0  0.9358399999999999  0.89543  0.86186  1.0000
  O   O12       1.0  0.9286300000000001  0.77508  0.63749  1.0000
  O   O13       1.0  0.81339  0.60179  0.07617999999999991  1.0000
  O   O14       1.0  0.8262599999999999  0.71023  0.83429  1.0000
  O   O15       1.0  0.85739  0.93992  0.75114  1.0000
  C   C6        1.0  0.82907  0.96858  0.8706099999999999  1.0000
  O   O16       1.0  0.9265000000000001  0.78098  0.63117  1.0000
  C   C7        1.0  0.9536700000000001  0.71248  0.66134  1.0000
  C   C8        1.0  0.95714  0.8425000000000001  0.95758  1.0000
  Eu  Eu3       1.0  0.10451999999999999  0.26506  0.14479  1.0000
  O   O17       1.0  0.16389  0.10861  0.09992  1.0000
  C   C9        1.0  0.15872  0.43564  0.16643  1.0000
  O   O18       1.0  0.09493  0.3349899999999999  0.84196  1.0000
  O   O19       1.0  0.06366  0.19478  0.0473  1.0000
  O   O20       1.0  0.05402000000000002  0.44767  0.16281  1.0000
  O   O21       1.0  0.16027  0.46861  0.03171  1.0000
  O   O22       1.0  0.14433  0.33332  0.2488  1.0000
  O   O23       1.0  0.10709000000000002  0.11173000000000001  0.30500999999999995  1.0000
  C   C10       1.0  0.14726  0.08122  0.24036  1.0000
  O   O24       1.0  0.045070000000000006  0.28734999999999994  0.32135  1.0000
  C   C11       1.0  0.039099999999999996  0.38848  0.29447  1.0000
  C   C12       1.0  0.06968  0.25798  0.89801  1.0000
  Eu  Eu4       1.0  0.61912  0.35002  0.61073  1.0000
  O   O25       1.0  0.67573  0.20413999999999993  0.72097  1.0000
  C   C13       1.0  0.67089  0.52  0.63429  1.0000
  O   O26       1.0  0.57504  0.181  0.92802  1.0000
  O   O27       1.0  0.58524  0.19127  0.68218  1.0000
  O   O28       1.0  0.54167  0.43575  0.53399  1.0000
  O   O29       1.0  0.66639  0.44723000000000007  0.75044  1.0000
  O   O30       1.0  0.65405  0.5097999999999998  0.52526  1.0000
  O   O31       1.0  0.67936  0.29766999999999993  0.48055000000000003  1.0000
  C   C14       1.0  0.69201  0.22106  0.58332  1.0000
  O   O32       1.0  0.59949  0.38072  0.40088  1.0000
  C   C15       1.0  0.55596  0.38826  0.44836  1.0000
  C   C16       1.0  0.57713  0.13658  0.83621  1.0000
  C   C17       1.0  0.30693  0.51485  0.20774  1.0000
  C   C18       1.0  0.3181100000000001  0.42474  0.18371  1.0000
  C   C19       1.0  0.2868000000000001  0.34503  0.22136  1.0000
  O   O33       1.0  0.29992  0.2549099999999999  0.20205  1.0000
  C   C20       1.0  0.24324  0.35641  0.28197  1.0000
  C   C21       1.0  0.23128  0.44586  0.30833  1.0000
  C   C22       1.0  0.18488  0.45866  0.37473  1.0000
  F   F1        1.0  0.18082000000000004  0.52169  0.46111  1.0000
  F   F2        1.0  0.16079  0.36697  0.47479000000000005  1.0000
  C   C23       1.0  0.16598  0.50643  0.2476  1.0000
  F   F3        1.0  0.12662  0.53648  0.31111  1.0000
  F   F4        1.0  0.1937  0.59094  0.13817  1.0000
  C   C24       1.0  0.26345  0.52444  0.27344  1.0000
  H   H1        1.0  0.3518  0.41404  0.14372  1.0000
  H   H2        1.0  0.27478  0.20148  0.23201  1.0000
  H   H3        1.0  0.21903000000000009  0.29358  0.31238  1.0000
  H   H4        1.0  0.25467  0.5914099999999999  0.29889  1.0000
  C   C25       1.0  0.80609  0.055839999999999904  0.83467  1.0000
  C   C26       1.0  0.7877599999999999  0.10299999999999998  0.94427  1.0000
  C   C27       1.0  0.76679  0.188  0.90324  1.0000
  O   O34       1.0  0.75091  0.24219  0.00338  1.0000
  C   C28       1.0  0.76209  0.22021  0.76005  1.0000
  C   C29       1.0  0.77843  0.17085  0.65147  1.0000
  C   C30       1.0  0.77071  0.20234  0.50166  1.0000
  F   F5        1.0  0.80085  0.1696  0.39428  1.0000
  F   F6        1.0  0.7760500000000004  0.30639  0.4409  1.0000
  C   C31       1.0  0.72543  0.15961  0.52057  1.0000
  F   F7        1.0  0.72436  0.16253  0.37769  1.0000
  F   F8        1.0  0.71493  0.06042000000000001  0.61637  1.0000
  C   C32       1.0  0.80088  0.08908  0.69057  1.0000
  H   H5        1.0  0.79045  0.07572000000000001  0.056419999999999915  1.0000
  H   H6        1.0  0.7575  0.21533  0.10373999999999999  1.0000
  H   H7        1.0  0.74671  0.28592  0.73073  1.0000
  H   H8        1.0  0.81396  0.050040000000000015  0.60961  1.0000
  C   C33       1.0  0.1685  0.017190000000000014  0.34045  1.0000
  C   C34       1.0  0.16181  0.024230000000000015  0.48545999999999995  1.0000
  C   C35       1.0  0.18501  0.97304  0.57452  1.0000
  O   O35       1.0  0.17939000000000008  0.9858699999999999  0.71623  1.0000
  C   C36       1.0  0.21544000000000002  0.91319  0.51792  1.0000
  C   C37       1.0  0.22166999999999998  0.90239  0.37424  1.0000
  C   C38       1.0  0.25772  0.8488  0.30919  1.0000
  F   F9        1.0  0.24331999999999998  0.80685  0.21476  1.0000
  F   F10       1.0  0.26506  0.77153  0.42186  1.0000
  C   C39       1.0  0.29946  0.9239  0.20418  1.0000
  F   F11       1.0  0.30727  0.91976  0.04914  1.0000
  F   F12       1.0  0.2893  0.016969999999999926  0.2164  1.0000
  C   C40       1.0  0.19866  0.95638  0.28527  1.0000
  H   H9        1.0  0.14122000000000004  0.07357000000000002  0.52615  1.0000
  H   H10       1.0  0.19983000000000004  0.95099  0.76917  1.0000
  H   H11       1.0  0.23476999999999998  0.87732  0.58577  1.0000
  H   H12       1.0  0.20556  0.95576  0.16723  1.0000
  C   C41       1.0  0.75966  0.58763  0.97068  1.0000
  C   C42       1.0  0.74019  0.49248000000000003  0.07723999999999998  1.0000
  C   C43       1.0  0.69989  0.45179  0.08542  1.0000
  O   O36       1.0  0.68306  0.3539  0.183  1.0000
  C   C44       1.0  0.67964  0.50803  0.99023  1.0000
  C   C45       1.0  0.6994  0.6002900000000001  0.87506  1.0000
  C   C46       1.0  0.6794900000000001  0.65318  0.75797  1.0000
  F   F13       1.0  0.69002  0.75585  0.71131  1.0000
  F   F14       1.0  0.63481  0.63299  0.82566  1.0000
  C   C47       1.0  0.69372  0.61966  0.61163  1.0000
  F   F15       1.0  0.68652  0.6929  0.49184999999999995  1.0000
  F   F16       1.0  0.73746  0.61291  0.5674  1.0000
  C   C48       1.0  0.74037  0.6393  0.86395  1.0000
  H   H13       1.0  0.75593  0.44786  0.15104  1.0000
  H   H14       1.0  0.65665  0.32795  0.17096  1.0000
  H   H15       1.0  0.6470500000000001  0.4783  0.00396  1.0000
  H   H16       1.0  0.757  0.70873  0.77148  1.0000
  C   C49       1.0  0.40426  0.4564  0.59693  1.0000
  C   C50       1.0  0.4042  0.45975  0.73857  1.0000
  C   C51       1.0  0.42905999999999994  0.3999700000000001  0.81401  1.0000
  O   O37       1.0  0.42817000000000005  0.40507  0.9555400000000001  1.0000
  C   C52       1.0  0.4551  0.33837  0.74465  1.0000
  C   C53       1.0  0.45691  0.3373  0.59866  1.0000
  C   C54       1.0  0.48641999999999996  0.27483  0.5193  1.0000
  F   F17       1.0  0.46474  0.22655999999999998  0.45522  1.0000
  F   F18       1.0  0.49868  0.20043999999999995  0.62584  1.0000
  C   C55       1.0  0.5278500000000003  0.33934000000000003  0.3884699999999999  1.0000
  F   F19       1.0  0.55092  0.27745  0.31475  1.0000
  F   F20       1.0  0.51717  0.415  0.28111  1.0000
  C   C56       1.0  0.43128  0.39611  0.52589  1.0000
  H   H17       1.0  0.38476  0.50829  0.79094  1.0000
  H   H18       1.0  0.44689000000000023  0.35983  0.0031399999999999206  1.0000
  H   H19       1.0  0.47446999999999995  0.29298  0.80474  1.0000
  H   H20       1.0  0.43313  0.39547999999999994  0.41302  1.0000
  C   C57       1.0  0.9969000000000001  0.8916499999999999  0.9564500000000001  1.0000
  C   C58       1.0  0.02299  0.8355000000000001  0.03159000000000001  1.0000
  C   C59       1.0  0.062160000000000014  0.88059  0.017449999999999966  1.0000
  O   O38       1.0  0.08839  0.82546  0.09289999999999998  1.0000
  C   C60       1.0  0.07662999999999999  0.9827099999999998  0.93132  1.0000
  C   C61       1.0  0.05103000000000001  0.040000000000000015  0.85378  1.0000
  C   C62       1.0  0.06844  0.14695000000000003  0.74159  1.0000
  F   F21       1.0  0.06101  0.15565999999999997  0.60565  1.0000
  F   F22       1.0  0.11206  0.16698999999999994  0.70225  1.0000
  C   C63       1.0  0.04698999999999998  0.22929  0.80426  1.0000
  F   F23       1.0  0.04976000000000002  0.31439999999999996  0.68033  1.0000
  F   F24       1.0  0.003719999999999944  0.19885000000000003  0.89191  1.0000
  C   C64       1.0  0.01144999999999996  0.99392  0.87036  1.0000
  H   H21       1.0  0.01298  0.7558899999999998  0.09609000000000001  1.0000
  H   H22       1.0  0.07402  0.75436  0.16303  1.0000
  H   H23       1.0  0.10659  0.015990000000000004  0.9233  1.0000
  H   H24       1.0  0.9909700000000001  0.03718000000000001  0.81166  1.0000
  C   C65       1.0  0.5734  0.02410999999999999  0.88871  1.0000
  C   C66       1.0  0.5702300000000002  0.9677899999999999  0.79588  1.0000
  C   C67       1.0  0.57209  0.86265  0.84429  1.0000
  O   O39       1.0  0.57313  0.80623  0.74926  1.0000
  C   C68       1.0  0.57016  0.81314  0.9957  1.0000
  C   C69       1.0  0.56599  0.8666700000000002  0.09894999999999987  1.0000
  C   C70       1.0  0.55227  0.81172  0.27163  1.0000
  F   F25       1.0  0.54062  0.87801  0.35488  1.0000
  F   F26       1.0  0.58818  0.77247  0.3000100000000001  1.0000
  C   C71       1.0  0.51478  0.72438  0.33526  1.0000
  F   F27       1.0  0.5310900000000002  0.64022  0.30911  1.0000
  F   F28       1.0  0.49696999999999997  0.70191  0.49631000000000003  1.0000
  C   C72       1.0  0.5709  0.97203  0.04129000000000005  1.0000
  H   H25       1.0  0.5679399999999999  0.002939999999999999  0.68224  1.0000
  H   H26       1.0  0.5784400000000002  0.84859  0.63741  1.0000
  H   H27       1.0  0.57008  0.73252  0.03289999999999993  1.0000
  H   H28       1.0  0.57473  0.013759999999999998  0.11282  1.0000
  C   C73       1.0  0.012939999999999998  0.42155999999999993  0.42034  1.0000
  C   C74       1.0  0.97908  0.35355  0.54461  1.0000
  C   C75       1.0  0.95835  0.37921  0.67728  1.0000
  O   O40       1.0  0.9242300000000001  0.31312  0.79843  1.0000
  C   C76       1.0  0.9717299999999999  0.4707200000000001  0.68789  1.0000
  C   C77       1.0  0.0055600000000000155  0.53879  0.56334  1.0000
  C   C78       1.0  0.021940000000000293  0.6337499999999999  0.58314  1.0000
  F   F29       1.0  0.0651  0.6631399999999998  0.48863  1.0000
  F   F30       1.0  0.021350000000000206  0.61779  0.73343  1.0000
  C   C79       1.0  0.99696  0.72157  0.53982  1.0000
  F   F31       1.0  0.01915  0.80737  0.52883  1.0000
  F   F32       1.0  0.99215  0.73257  0.39679  1.0000
  C   C80       1.0  0.024769999999999997  0.5148699999999998  0.42891  1.0000
  H   H29       1.0  0.9705  0.28149999999999986  0.54215  1.0000
  H   H30       1.0  0.9102699999999999  0.26383  0.76588  1.0000
  H   H31       1.0  0.95715  0.4863  0.79314  1.0000
  H   H32       1.0  0.05018  0.5691  0.33144  1.0000
