data_image0
_chemical_formula_structural       EuOCO6COC2EuOCO6COC2EuOCO6COC2EuOCO6COC5OC2F2CF2C2H4C3OC2F2CF2C2H4C3OC2F2CF2C2H4C3OC2F2CF2C2H4C3OC2F2CF2C2H4C3OC2F2CF2C2H4C3OC2F2CF2C2H4C3OC2F2CF2C2H4
_chemical_formula_sum              "Eu4 O40 C80 F32 H32"
_cell_length_a       30.9711
_cell_length_b       21.1381
_cell_length_c       5.888
_cell_angle_alpha    87.1968
_cell_angle_beta     100.161
_cell_angle_gamma    85.82020000000001

_symmetry_space_group_name_H-M    'P 1'
_symmetry_Int_Tables_number       1

loop_
  _symmetry_equiv_pos_as_xyz
  'x,y,z'

loop_
  _atom_site_type_symbol
  _atom_site_label
  _atom_site_symmetry_multiplicity
  _atom_site_fract_x
  _atom_site_fract_y
  _atom_site_fract_z
  _atom_site_occupancy
  Eu  Eu1       1.0  0.35246999999999995  0.75125  0.01438  1.0000
  O   O1        1.0  0.2864099999999999  0.8562000000000001  0.97127  1.0000
  C   C1        1.0  0.26467000000000007  0.6996  0.12091  1.0000
  O   O2        1.0  0.45087  0.74705  0.91643  1.0000
  O   O3        1.0  0.39631999999999995  0.8253  0.90584  1.0000
  O   O4        1.0  0.38403  0.62308  0.9949599999999998  1.0000
  O   O5        1.0  0.25597  0.75063  0.19652  1.0000
  O   O6        1.0  0.30828  0.67775  0.12405999999999999  1.0000
  O   O7        1.0  0.3372  0.81948  0.28248  1.0000
  C   C2        1.0  0.30758  0.86743  0.15877  1.0000
  O   O8        1.0  0.4098999999999999  0.6931  0.24791999999999997  1.0000
  C   C3        1.0  0.4109  0.63251  0.16464  1.0000
  C   C4        1.0  0.44035  0.80372  0.91778  1.0000
  Eu  Eu2       1.0  0.8873899999999998  0.72902  0.86562  1.0000
  O   O9        1.0  0.81013  0.79536  0.042689999999999895  1.0000
  C   C5        1.0  0.81553  0.63017  0.87497  1.0000
  O   O10       1.0  0.96986  0.7784  0.14747  1.0000
  O   O11       1.0  0.91643  0.82505  0.8663399999999998  1.0000
  O   O12       1.0  0.97793  0.69964  0.7418199999999999  1.0000
  O   O13       1.0  0.7927999999999998  0.67964  0.87116  1.0000
  O   O14       1.0  0.85971  0.63113  0.85786  1.0000
  O   O15       1.0  0.82436  0.78495  0.68231  1.0000
  C   C6        1.0  0.8078999999999998  0.8199199999999999  0.8473099999999999  1.0000
  O   O16       1.0  0.90965  0.70819  0.52595  1.0000
  C   C7        1.0  0.95289  0.68111  0.57927  1.0000
  C   C8        1.0  0.95407  0.8268  0.03320999999999996  1.0000
  Eu  Eu3       1.0  0.1289  0.25601  0.19293  1.0000
  O   O17       1.0  0.22964  0.23038999999999998  0.3826  1.0000
  C   C9        1.0  0.16298  0.38323  0.05626  1.0000
  O   O18       1.0  0.10136  0.16367  0.82253  1.0000
  O   O19       1.0  0.08268  0.17687  0.17272  1.0000
  O   O20       1.0  0.04389  0.33397  0.04754  1.0000
  O   O21       1.0  0.14481  0.3698600000000001  0.86571  1.0000
  O   O22       1.0  0.17463  0.33581  0.23249  1.0000
  O   O23       1.0  0.16931999999999997  0.20224000000000003  0.51451  1.0000
  C   C10       1.0  0.21247  0.18977000000000002  0.48294  1.0000
  O   O24       1.0  0.08557  0.31164  0.40027  1.0000
  C   C11       1.0  0.051340000000000004  0.34634  0.25031  1.0000
  C   C12       1.0  0.08218  0.14387  0.9724299999999999  1.0000
  Eu  Eu4       1.0  0.63399  0.22017000000000003  0.9384499999999999  1.0000
  O   O25       1.0  0.68651  0.1088  0.83071  1.0000
  C   C13       1.0  0.71439  0.29687  0.10114000000000001  1.0000
  O   O26       1.0  0.5524  0.16267  0.0414000000000001  1.0000
  O   O27       1.0  0.59821  0.13573  0.7965299999999998  1.0000
  O   O28       1.0  0.57773  0.32581  0.04644000000000004  1.0000
  O   O29       1.0  0.73261  0.24318  0.11952999999999991  1.0000
  O   O30       1.0  0.66875  0.30583  0.07267000000000001  1.0000
  O   O31       1.0  0.6803899999999998  0.20927000000000004  0.6788  1.0000
  C   C14       1.0  0.70223  0.14851  0.72039  1.0000
  O   O32       1.0  0.5839099999999999  0.28877  0.69894  1.0000
  C   C15       1.0  0.56515  0.33091  0.8371  1.0000
  C   C16       1.0  0.56266  0.12516  0.90486  1.0000
  C   C17       1.0  0.22977  0.65751  0.04584  1.0000
  C   C18       1.0  0.18992  0.66228  0.12842  1.0000
  C   C19       1.0  0.15918  0.61691  0.08015  1.0000
  O   O33       1.0  0.12058000000000002  0.62544  0.17125  1.0000
  C   C20       1.0  0.16910999999999998  0.56433  0.9499  1.0000
  C   C21       1.0  0.14622000000000002  0.50255  0.94469  1.0000
  F   F1        1.0  0.10648  0.5087  0.0205  1.0000
  F   F2        1.0  0.13703  0.4856  0.7187199999999999  1.0000
  C   C22       1.0  0.17582  0.44930000000000003  0.10282  1.0000
  F   F3        1.0  0.17202  0.46006  0.32938999999999996  1.0000
  F   F4        1.0  0.22020999999999996  0.45025000000000004  0.08977999999999998  1.0000
  C   C23       1.0  0.20656999999999998  0.5652  0.84406  1.0000
  C   C24       1.0  0.23694999999999997  0.61017  0.8955299999999999  1.0000
  H   H1        1.0  0.18321000000000004  0.70006  0.23852999999999994  1.0000
  H   H2        1.0  0.09365  0.61122  0.07154  1.0000
  H   H3        1.0  0.21435999999999994  0.52748  0.73578  1.0000
  H   H4        1.0  0.26673  0.60688  0.82279  1.0000
  C   C25       1.0  0.79278  0.8878800000000001  0.80036  1.0000
  C   C26       1.0  0.7654  0.9170399999999999  0.93754  1.0000
  C   C27       1.0  0.75926  0.98327  0.93657  1.0000
  O   O34       1.0  0.73329  0.009609999999999896  0.08428999999999998  1.0000
  C   C28       1.0  0.78072  0.02188  0.79574  1.0000
  C   C29       1.0  0.78068  0.09371  0.8134299999999999  1.0000
  F   F5        1.0  0.77622  0.10962  0.03489000000000009  1.0000
  F   F6        1.0  0.82173  0.11193  0.7846899999999998  1.0000
  C   C30       1.0  0.74432  0.13219  0.6304  1.0000
  F   F7        1.0  0.73431  0.0987  0.43467  1.0000
  F   F8        1.0  0.7603  0.18864  0.56665  1.0000
  C   C31       1.0  0.8052  0.99204  0.64418  1.0000
  C   C32       1.0  0.81079  0.9257  0.64485  1.0000
  H   H5        1.0  0.75087  0.88846  0.05688000000000004  1.0000
  H   H6        1.0  0.70218  0.99515  0.047940000000000094  1.0000
  H   H7        1.0  0.82168  0.020410000000000005  0.53219  1.0000
  H   H8        1.0  0.83146  0.90437  0.53443  1.0000
  C   C33       1.0  0.23483  0.12523  0.53082  1.0000
  C   C34       1.0  0.28011  0.11528000000000001  0.53236  1.0000
  C   C35       1.0  0.30091  0.0539  0.54467  1.0000
  O   O35       1.0  0.34661  0.04934  0.556  1.0000
  C   C36       1.0  0.27524  0.0005200000000000758  0.53692  1.0000
  C   C37       1.0  0.29303  0.93397  0.48791  1.0000
  F   F9        1.0  0.32989  0.91346  0.65055  1.0000
  F   F10       1.0  0.26198  0.8907  0.50569  1.0000
  C   C38       1.0  0.30402  0.9333900000000002  0.24173  1.0000
  F   F11       1.0  0.34385  0.95839  0.2374  1.0000
  F   F12       1.0  0.2716599999999999  0.9706000000000001  0.09024  1.0000
  C   C39       1.0  0.23017999999999994  0.011190000000000033  0.55048  1.0000
  C   C40       1.0  0.21032999999999993  0.07275999999999999  0.54753  1.0000
  H   H9        1.0  0.2997000000000001  0.15542  0.52555  1.0000
  H   H10       1.0  0.36171  0.00552  0.59479  1.0000
  H   H11       1.0  0.20929  0.97228  0.55011  1.0000
  H   H12       1.0  0.17526  0.07902  0.54728  1.0000
  C   C41       1.0  0.79589  0.56904  0.88981  1.0000
  C   C42       1.0  0.75613  0.5660000000000001  0.9697699999999998  1.0000
  C   C43       1.0  0.73496  0.5096  0.96969  1.0000
  O   O36       1.0  0.69485  0.51254  0.04979  1.0000
  C   C44       1.0  0.75453  0.45368  0.88875  1.0000
  C   C45       1.0  0.73342  0.39059  0.8766299999999999  1.0000
  F   F13       1.0  0.6891699999999996  0.4011199999999999  0.7832799999999998  1.0000
  F   F14       1.0  0.7514899999999999  0.35215  0.7276799999999999  1.0000
  C   C46       1.0  0.74086  0.35394  0.11542000000000006  1.0000
  F   F15       1.0  0.72789  0.39203000000000005  0.2795700000000001  1.0000
  F   F16       1.0  0.78519  0.33492  0.18259  1.0000
  C   C47       1.0  0.79556  0.45710999999999996  0.81803  1.0000
  C   C48       1.0  0.81612  0.51383  0.8209299999999999  1.0000
  H   H13       1.0  0.7407699999999999  0.60826  0.028550000000000075  1.0000
  H   H14       1.0  0.6787  0.47281000000000006  0.042559999999999924  1.0000
  H   H15       1.0  0.81213  0.41579  0.75853  1.0000
  H   H16       1.0  0.84716  0.51471  0.7606499999999999  1.0000
  C   C49       1.0  0.44301  0.57999  0.27682  1.0000
  C   C50       1.0  0.43765  0.51772  0.21041  1.0000
  C   C51       1.0  0.46907  0.46755  0.29555  1.0000
  O   O37       1.0  0.46023  0.40809  0.21132999999999996  1.0000
  C   C52       1.0  0.50728  0.47907  0.45735999999999993  1.0000
  C   C53       1.0  0.54369  0.427  0.55602  1.0000
  F   F17       1.0  0.55668  0.39448000000000005  0.37884  1.0000
  F   F18       1.0  0.58076  0.45366000000000006  0.66689  1.0000
  C   C54       1.0  0.52885  0.38092  0.7328699999999999  1.0000
  F   F19       1.0  0.49317  0.35001  0.63455  1.0000
  F   F20       1.0  0.5161999999999998  0.41605  0.9045499999999999  1.0000
  C   C55       1.0  0.51141  0.54165  0.52917  1.0000
  C   C56       1.0  0.47976  0.59139  0.44003  1.0000
  H   H17       1.0  0.40911  0.50792  0.08574999999999999  1.0000
  H   H18       1.0  0.48532  0.37382  0.24329999999999996  1.0000
  H   H19       1.0  0.5391699999999998  0.55282  0.65539  1.0000
  H   H20       1.0  0.48439  0.6389  0.49578  1.0000
  C   C57       1.0  0.97451  0.88768  0.06652999999999998  1.0000
  C   C58       1.0  0.95158  0.9447000000000002  0.9665599999999999  1.0000
  C   C59       1.0  0.97042  0.00296  0.98909  1.0000
  O   O38       1.0  0.94431  0.05678999999999999  0.8811299999999999  1.0000
  C   C60       1.0  0.014040000000000052  0.00451  0.11591  1.0000
  C   C61       1.0  0.0372  0.0656  0.15066  1.0000
  F   F21       1.0  0.007789999999999963  0.11486999999999999  0.18774  1.0000
  F   F22       1.0  0.06946  0.05751  0.34869  1.0000
  C   C62       1.0  0.05954999999999998  0.08308999999999998  0.9435599999999998  1.0000
  F   F23       1.0  0.028869999999999996  0.0901  0.7404099999999999  1.0000
  F   F24       1.0  0.09075  0.03452000000000001  0.9223799999999999  1.0000
  C   C63       1.0  0.03673  0.94652  0.21529  1.0000
  C   C64       1.0  0.017199999999999886  0.88911  0.19288  1.0000
  H   H21       1.0  0.9183799999999998  0.94459  0.86991  1.0000
  H   H22       1.0  0.95975  0.09653  0.8647400000000001  1.0000
  H   H23       1.0  0.07006  0.94518  0.31136  1.0000
  H   H24       1.0  0.03574000000000011  0.84572  0.27177  1.0000
  C   C65       1.0  0.53831  0.06801  0.85869  1.0000
  C   C66       1.0  0.49758  0.06251  0.92799  1.0000
  C   C67       1.0  0.47449  0.008320000000000003  0.88718  1.0000
  O   O39       1.0  0.43406  0.00823  0.96334  1.0000
  C   C68       1.0  0.4927000000000001  0.95722  0.77408  1.0000
  C   C69       1.0  0.46963999999999995  0.8965500000000001  0.72391  1.0000
  F   F25       1.0  0.42599  0.91267  0.62755  1.0000
  F   F26       1.0  0.48774  0.8636800000000001  0.5614899999999999  1.0000
  C   C70       1.0  0.47458000000000006  0.85126  0.9419899999999999  1.0000
  F   F27       1.0  0.4703  0.88485  0.13242  1.0000
  F   F28       1.0  0.5163  0.81975  0.98245  1.0000
  C   C71       1.0  0.53389  0.9632800000000001  0.7073299999999999  1.0000
  C   C72       1.0  0.55619  0.017960000000000004  0.74749  1.0000
  H   H25       1.0  0.48328  0.10081000000000001  0.014229999999999963  1.0000
  H   H26       1.0  0.41843  0.96812  0.9448  1.0000
  H   H27       1.0  0.54915  0.92573  0.62251  1.0000
  H   H28       1.0  0.5878  0.02049  0.6943  1.0000
  C   C73       1.0  0.025210000000000007  0.39874  0.33428  1.0000
  C   C74       1.0  0.98681  0.42827  0.19526  1.0000
  C   C75       1.0  0.96298  0.47964  0.27078  1.0000
  O   O40       1.0  0.9245499999999999  0.50408  0.12172  1.0000
  C   C76       1.0  0.9786299999999998  0.50382  0.48978999999999995  1.0000
  C   C77       1.0  0.9573899999999999  0.56281  0.58044  1.0000
  F   F29       1.0  0.9125299999999997  0.55926  0.55845  1.0000
  F   F30       1.0  0.97346  0.56515  0.8152299999999999  1.0000
  C   C78       1.0  0.9674  0.62484  0.45608  1.0000
  F   F31       1.0  0.94573  0.63111  0.2291  1.0000
  F   F32       1.0  0.012250000000000096  0.62445  0.45749  1.0000
  C   C79       1.0  0.0168  0.47251999999999994  0.62821  1.0000
  C   C80       1.0  0.03924  0.42056000000000004  0.55238  1.0000
  H   H29       1.0  0.97505  0.41139000000000003  0.026669999999999996  1.0000
  H   H30       1.0  0.90618  0.53883  0.18059  1.0000
  H   H31       1.0  0.030040000000000004  0.48853  0.7959  1.0000
  H   H32       1.0  0.06848  0.39867  0.66345  1.0000
