data_image0
_chemical_formula_structural       EuOCO6COC2EuOCO6COC2EuOCO6COC2EuOCO6COC5NC3F2CF2CH5C3NC3F2CF2CH4C3NC3F2CF2CH5C3NC3F2CF2CH5C3NC3F2CF2CH5C3NC3F2CF2CH5C3NC3F2CF2CH5C3NC3F2CF2CH5
_chemical_formula_sum              "Eu4 O32 C80 N8 F32 H39"
_cell_length_a       30.9455
_cell_length_b       14.959
_cell_length_c       8.9598
_cell_angle_alpha    101.8721
_cell_angle_beta     89.42739999999999
_cell_angle_gamma    89.7138

_symmetry_space_group_name_H-M    'P 1'
_symmetry_Int_Tables_number       1

loop_
  _symmetry_equiv_pos_as_xyz
  'x,y,z'

loop_
  _atom_site_type_symbol
  _atom_site_label
  _atom_site_symmetry_multiplicity
  _atom_site_fract_x
  _atom_site_fract_y
  _atom_site_fract_z
  _atom_site_occupancy
  Eu  Eu1       1.0  0.41287  0.74035  0.17644999999999994  1.0000
  O   O1        1.0  0.34884  0.90742  0.1989  1.0000
  C   C1        1.0  0.34118  0.59965  0.11623999999999998  1.0000
  O   O2        1.0  0.51025  0.92376  0.25178  1.0000
  O   O3        1.0  0.4406500000000001  0.88365  0.21402999999999994  1.0000
  O   O4        1.0  0.46781  0.57822  0.24337  1.0000
  O   O5        1.0  0.33078  0.62362  0.99975  1.0000
  O   O6        1.0  0.3847400000000001  0.59745  0.15085  1.0000
  O   O7        1.0  0.35488  0.79309  0.3285299999999999  1.0000
  C   C2        1.0  0.33051  0.85555  0.2679099999999999  1.0000
  O   O8        1.0  0.45316  0.72052  0.37912  1.0000
  C   C3        1.0  0.47868  0.64193  0.34343  1.0000
  C   C4        1.0  0.48356  0.88093  0.16658  1.0000
  Eu  Eu2       1.0  0.87617  0.75482  0.71315  1.0000
  O   O9        1.0  0.7746000000000002  0.74997  0.41745  1.0000
  C   C5        1.0  0.8035000000000002  0.68877  0.90355  1.0000
  O   O10       1.0  0.9462500000000003  0.84538  0.91627  1.0000
  O   O11       1.0  0.9308800000000003  0.84915  0.67166  1.0000
  O   O12       1.0  0.91617  0.48256000000000016  0.56695  1.0000
  O   O13       1.0  0.79715  0.76998  0.9526  1.0000
  O   O14       1.0  0.82298  0.6591  0.7612299999999997  1.0000
  O   O15       1.0  0.8427600000000002  0.7773300000000002  0.49793  1.0000
  C   C6        1.0  0.79846  0.7905900000000001  0.51658  1.0000
  O   O16       1.0  0.90635  0.63062  0.55303  1.0000
  C   C7        1.0  0.92028  0.5628500000000001  0.6283  1.0000
  C   C8        1.0  0.95769  0.8676  0.7981499999999999  1.0000
  Eu  Eu3       1.0  0.09943  0.26072  0.06317  1.0000
  O   O17       1.0  0.16815  0.10707999999999998  0.9911399999999999  1.0000
  C   C9        1.0  0.18508  0.37536  0.1426  1.0000
  O   O18       1.0  0.98931  0.21595  0.77198  1.0000
  O   O19       1.0  0.029739999999999996  0.23293000000000005  0.9843899999999999  1.0000
  O   O20       1.0  0.0354  0.41305  0.23936999999999997  1.0000
  O   O21       1.0  0.21748000000000006  0.3842500000000001  0.0684  1.0000
  O   O22       1.0  0.16982000000000005  0.28725  0.13946  1.0000
  O   O23       1.0  0.10342  0.11653  0.11134  1.0000
  C   C10       1.0  0.14357  0.07556  0.07366  1.0000
  O   O24       1.0  0.07597000000000002  0.30249  0.30894  1.0000
  C   C11       1.0  0.05299  0.38466  0.34101  1.0000
  C   C12       1.0  0.02503000000000001  0.20927  0.82627  1.0000
  Eu  Eu4       1.0  0.61386  0.27496000000000004  0.9142799999999999  1.0000
  O   O25       1.0  0.6460600000000001  0.12058000000000002  0.61155  1.0000
  C   C13       1.0  0.6868200000000002  0.36487  0.11453000000000002  1.0000
  O   O26       1.0  0.55606  0.18112  0.29811999999999994  1.0000
  O   O27       1.0  0.59261  0.26201  0.1535599999999999  1.0000
  O   O28       1.0  0.5629900000000002  0.2677100000000001  0.61933  1.0000
  O   O29       1.0  0.70014  0.35412  0.23753999999999983  1.0000
  O   O30       1.0  0.68335  0.2887  0.9962299999999998  1.0000
  O   O31       1.0  0.6256900000000002  0.12116999999999997  0.8561299999999997  1.0000
  C   C14       1.0  0.6415900000000001  0.07815999999999997  0.7129099999999999  1.0000
  O   O32       1.0  0.63244  0.30152  0.6817899999999999  1.0000
  C   C15       1.0  0.59421  0.31523  0.60757  1.0000
  C   C16       1.0  0.56661  0.18845000000000003  0.16961  1.0000
  C   C17       1.0  0.3078800000000001  0.5802  0.22520999999999994  1.0000
  C   C18       1.0  0.31852  0.58131  0.3776599999999999  1.0000
  C   C19       1.0  0.28621  0.57298  0.48452  1.0000
  N   N1        1.0  0.29709  0.57907  0.64113  1.0000
  C   C20       1.0  0.24308000000000005  0.56288  0.43933  1.0000
  C   C21       1.0  0.23184  0.5581  0.28625  1.0000
  C   C22       1.0  0.18478  0.5506  0.23942  1.0000
  F   F1        1.0  0.18039  0.56647  0.09318  1.0000
  F   F2        1.0  0.16156  0.61847  0.3363199999999999  1.0000
  C   C23       1.0  0.1643  0.45713  0.2467  1.0000
  F   F3        1.0  0.12155  0.46085  0.20764  1.0000
  F   F4        1.0  0.16584000000000004  0.44358  0.39484  1.0000
  C   C24       1.0  0.26467  0.56714  0.18014  1.0000
  H   H1        1.0  0.35162  0.5914400000000001  0.41464999999999996  1.0000
  H   H2        1.0  0.32916  0.58425  0.6756999999999997  1.0000
  H   H3        1.0  0.27335  0.5743100000000001  0.7226  1.0000
  H   H4        1.0  0.2182  0.55935  0.52381  1.0000
  H   H5        1.0  0.25663  0.56463  0.06186  1.0000
  C   C25       1.0  0.78033  0.8570300000000002  0.64931  1.0000
  C   C26       1.0  0.80689  0.91587  0.75156  1.0000
  C   C27       1.0  0.78836  0.9837099999999999  0.8663299999999998  1.0000
  N   N2        1.0  0.8158  0.04299999999999992  0.9688499999999999  1.0000
  C   C28       1.0  0.7431400000000002  0.9923200000000001  0.88147  1.0000
  C   C29       1.0  0.71629  0.93173  0.78487  1.0000
  C   C30       1.0  0.66741  0.9341500000000001  0.80297  1.0000
  F   F5        1.0  0.65533  0.9808399999999999  0.9476399999999999  1.0000
  F   F6        1.0  0.65344  0.84503  0.7917899999999999  1.0000
  C   C31       1.0  0.64455  0.9751299999999999  0.6775099999999997  1.0000
  F   F7        1.0  0.60283  0.94244  0.66307  1.0000
  F   F8        1.0  0.6651200000000003  0.94689  0.53778  1.0000
  C   C32       1.0  0.7352900000000002  0.8658100000000002  0.66848  1.0000
  H   H6        1.0  0.84185  0.90919  0.74467  1.0000
  H   H7        1.0  0.80294  0.09004999999999996  0.06179  1.0000
  H   H8        1.0  0.7292000000000002  0.045509999999999926  0.9694499999999999  1.0000
  H   H9        1.0  0.71484  0.82072  0.59002  1.0000
  C   C33       1.0  0.15627  0.99425  0.13417  1.0000
  C   C34       1.0  0.12645  0.95302  0.21740999999999994  1.0000
  C   C35       1.0  0.13834  0.87701  0.27708  1.0000
  N   N3        1.0  0.10809  0.83724  0.36526  1.0000
  C   C36       1.0  0.18028  0.84085  0.25135  1.0000
  C   C37       1.0  0.21074  0.88093  0.16826  1.0000
  C   C38       1.0  0.2565  0.84278  0.14434  1.0000
  F   F9        1.0  0.27754  0.87983  0.03434  1.0000
  F   F10       1.0  0.25448  0.7493  0.08952  1.0000
  C   C39       1.0  0.28223  0.86291  0.2953499999999999  1.0000
  F   F11       1.0  0.27005  0.80115  0.38396  1.0000
  F   F12       1.0  0.27292  0.95045  0.37723  1.0000
  C   C40       1.0  0.19832000000000002  0.9575800000000002  0.11004999999999997  1.0000
  H   H10       1.0  0.09372000000000003  0.9791  0.2345  1.0000
  H   H11       1.0  0.07699  0.8643  0.38688  1.0000
  H   H12       1.0  0.11691000000000003  0.78187  0.41277  1.0000
  H   H13       1.0  0.18933  0.78212  0.29754  1.0000
  H   H14       1.0  0.22154000000000001  0.9900900000000001  0.04763  1.0000
  C   C41       1.0  0.79206  0.62187  0.99652  1.0000
  C   C42       1.0  0.82388  0.56195  0.028759999999999893  1.0000
  C   C43       1.0  0.8141800000000001  0.49928  0.12026  1.0000
  N   N4        1.0  0.84713  0.44016  0.15660999999999994  1.0000
  C   C44       1.0  0.7721  0.49514  0.17725  1.0000
  C   C45       1.0  0.73922  0.5522800000000001  0.14163999999999977  1.0000
  C   C46       1.0  0.6928600000000003  0.54143  0.19341999999999993  1.0000
  F   F13       1.0  0.66878  0.61813  0.18205  1.0000
  F   F14       1.0  0.6921  0.53485  0.34556  1.0000
  C   C47       1.0  0.67089  0.4564  0.09138  1.0000
  F   F15       1.0  0.62682  0.46122  0.12237999999999993  1.0000
  F   F16       1.0  0.67715  0.46067  0.93933  1.0000
  C   C48       1.0  0.74989  0.61744  0.053600000000000085  1.0000
  H   H15       1.0  0.85659  0.56592  0.9860799999999998  1.0000
  H   H16       1.0  0.8792200000000002  0.44623  0.12254  1.0000
  H   H17       1.0  0.8399  0.3904  0.21957999999999994  1.0000
  H   H18       1.0  0.76528  0.44729  0.24949999999999997  1.0000
  H   H19       1.0  0.7251900000000002  0.66228  0.023830000000000014  1.0000
  C   C49       1.0  0.52019  0.63825  0.41945  1.0000
  C   C50       1.0  0.55179  0.70333  0.40823  1.0000
  C   C51       1.0  0.59321  0.69506  0.46495999999999993  1.0000
  N   N5        1.0  0.62643  0.75656  0.4402099999999999  1.0000
  C   C52       1.0  0.60253  0.62404  0.54051  1.0000
  C   C53       1.0  0.5707200000000002  0.55979  0.55698  1.0000
  C   C54       1.0  0.58028  0.48293  0.63908  1.0000
  F   F17       1.0  0.54456  0.47097  0.72792  1.0000
  F   F18       1.0  0.61505  0.50554  0.73606  1.0000
  C   C55       1.0  0.5903900000000002  0.39302  0.52514  1.0000
  F   F19       1.0  0.62879  0.4015  0.44889  1.0000
  F   F20       1.0  0.55763  0.37443  0.41926999999999987  1.0000
  C   C56       1.0  0.52973  0.56656  0.4931  1.0000
  H   H20       1.0  0.54487  0.75791  0.3486899999999999  1.0000
  H   H21       1.0  0.6200100000000002  0.80901  0.3818799999999999  1.0000
  H   H22       1.0  0.65828  0.74546  0.46893  1.0000
  H   H23       1.0  0.63472  0.61842  0.5838099999999998  1.0000
  H   H24       1.0  0.50517  0.51613  0.50051  1.0000
  C   C57       1.0  0.0009999999999998892  0.9064700000000002  0.78586  1.0000
  C   C58       1.0  0.03698  0.8695800000000002  0.84681  1.0000
  C   C59       1.0  0.07879  0.89811  0.81981  1.0000
  N   N6        1.0  0.11535  0.8524500000000003  0.8668799999999998  1.0000
  C   C60       1.0  0.08455  0.96941  0.74213  1.0000
  C   C61       1.0  0.048760000000000005  0.010750000000000025  0.68736  1.0000
  C   C62       1.0  0.05559  0.08911999999999999  0.6065099999999999  1.0000
  F   F21       1.0  0.02072  0.09806  0.51434  1.0000
  F   F22       1.0  0.09158  0.07051  0.51172  1.0000
  C   C63       1.0  0.06303  0.18014  0.71949  1.0000
  F   F23       1.0  0.06937  0.24645000000000006  0.6354900000000001  1.0000
  F   F24       1.0  0.10011  0.17374  0.80086  1.0000
  C   C64       1.0  0.007049999999999999  0.9767399999999999  0.70547  1.0000
  H   H25       1.0  0.03286  0.8166699999999999  0.9109899999999997  1.0000
  H   H26       1.0  0.11148  0.80343  0.9335799999999999  1.0000
  H   H27       1.0  0.14665  0.86782  0.83582  1.0000
  H   H28       1.0  0.11691000000000003  0.99267  0.72402  1.0000
  H   H29       1.0  0.97921  0.0062800000000000035  0.66073  1.0000
  C   C65       1.0  0.5512700000000003  0.11938  0.03964999999999996  1.0000
  C   C66       1.0  0.5304  0.14382  0.91555  1.0000
  C   C67       1.0  0.51317  0.07630999999999999  0.79961  1.0000
  N   N7        1.0  0.49167000000000005  0.10124000000000001  0.67333  1.0000
  C   C68       1.0  0.5159600000000002  0.98405  0.80988  1.0000
  C   C69       1.0  0.53681  0.9583  0.93328  1.0000
  C   C70       1.0  0.5388500000000003  0.8583999999999999  0.9460899999999999  1.0000
  F   F25       1.0  0.57285  0.84379  0.03808999999999996  1.0000
  F   F26       1.0  0.54686  0.80492  0.80285  1.0000
  C   C71       1.0  0.49622  0.82679  0.010350000000000081  1.0000
  F   F27       1.0  0.5003  0.73582  0.018669999999999964  1.0000
  F   F28       1.0  0.46316  0.83375  0.91054  1.0000
  C   C72       1.0  0.55467  0.0268  0.046839999999999986  1.0000
  H   H30       1.0  0.52659  0.21504  0.9109999999999998  1.0000
  H   H31       1.0  0.48688  0.16978  0.6692  1.0000
  H   H32       1.0  0.48065000000000013  0.0512  0.58276  1.0000
  H   H33       1.0  0.5018  0.9323599999999999  0.7216099999999999  1.0000
  H   H34       1.0  0.57102  0.008499999999999954  0.14299  1.0000
  C   C73       1.0  0.05288  0.43852  0.49868999999999997  1.0000
  C   C74       1.0  0.08544  0.42189  0.59713  1.0000
  C   C75       1.0  0.08542  0.46679  0.7492199999999998  1.0000
  N   N8        1.0  0.11824000000000003  0.44672  0.8479399999999998  1.0000
  C   C76       1.0  0.05337  0.5316999999999997  0.80419  1.0000
  C   C77       1.0  0.021030000000000004  0.55228  0.70671  1.0000
  C   C78       1.0  0.9876600000000001  0.62603  0.7657699999999998  1.0000
  F   F29       1.0  0.98755  0.6872600000000001  0.66944  1.0000
  F   F30       1.0  0.9991  0.67322  0.90932  1.0000
  C   C79       1.0  0.94186  0.58826  0.78053  1.0000
  F   F31       1.0  0.9168200000000002  0.65386  0.87418  1.0000
  F   F32       1.0  0.94415  0.51285  0.84759  1.0000
  C   C80       1.0  0.02135  0.50581  0.55284  1.0000
  H   H35       1.0  0.11082  0.3724  0.55639  1.0000
  H   H36       1.0  0.1409  0.39447  0.81158  1.0000
  H   H37       1.0  0.12070000000000003  0.48688  0.9569499999999999  1.0000
  H   H38       1.0  0.05369  0.56514  0.92321  1.0000
  H   H39       1.0  0.99696  0.52091  0.47552999999999995  1.0000
