data_image0
_chemical_formula_structural       EuOCO6COC2EuOCO6COC2EuOCO6COC2EuOCO6COC9F2CF2CH6C7F2CF2CH6C7F2CF2CH6C7F2CF2CH6C7F2CF2CH6C7F2CF2CH6C7F2CF2CH6C7F2CF2CH6
_chemical_formula_sum              "Eu4 O32 C88 F32 H48"
_cell_length_a       31.4615
_cell_length_b       17.5501
_cell_length_c       8.8416
_cell_angle_alpha    101.16249999999998
_cell_angle_beta     82.9569
_cell_angle_gamma    86.36630000000001

_symmetry_space_group_name_H-M    'P 1'
_symmetry_Int_Tables_number       1

loop_
  _symmetry_equiv_pos_as_xyz
  'x,y,z'

loop_
  _atom_site_type_symbol
  _atom_site_label
  _atom_site_symmetry_multiplicity
  _atom_site_fract_x
  _atom_site_fract_y
  _atom_site_fract_z
  _atom_site_occupancy
  Eu  Eu1       1.0  0.42144  0.71491  0.1974  1.0000
  O   O1        1.0  0.35010000000000013  0.81222  0.15343  1.0000
  C   C1        1.0  0.3514700000000001  0.59314  0.18041  1.0000
  O   O2        1.0  0.4694400000000002  0.77213  0.9172899999999999  1.0000
  O   O3        1.0  0.48654  0.76373  0.15504  1.0000
  O   O4        1.0  0.47349000000000013  0.57496  0.18374  1.0000
  O   O5        1.0  0.3781100000000001  0.55977  0.07225  1.0000
  O   O6        1.0  0.3567800000000001  0.66809  0.25747  1.0000
  O   O7        1.0  0.3905000000000001  0.83054  0.34777  1.0000
  C   C2        1.0  0.35360000000000014  0.84818  0.28348  1.0000
  O   O8        1.0  0.44659  0.66658  0.39354999999999996  1.0000
  C   C3        1.0  0.47161999999999993  0.5976500000000002  0.32385  1.0000
  C   C4        1.0  0.49624000000000007  0.77906  0.00646  1.0000
  Eu  Eu2       1.0  0.87675  0.72743  0.86965  1.0000
  O   O9        1.0  0.8584600000000002  0.8664900000000002  0.71157  1.0000
  C   C5        1.0  0.8057900000000002  0.61543  0.8819499999999998  1.0000
  O   O10       1.0  0.94002  0.78606  0.0928  1.0000
  O   O11       1.0  0.9064699999999999  0.84283  0.92695  1.0000
  O   O12       1.0  0.96445  0.67927  0.68327  1.0000
  O   O13       1.0  0.793  0.6683  0.99266  1.0000
  O   O14       1.0  0.8478800000000004  0.6112  0.8097  1.0000
  O   O15       1.0  0.8147400000000002  0.7918300000000001  0.8302799999999998  1.0000
  C   C6        1.0  0.82178  0.8530800000000001  0.75343  1.0000
  O   O16       1.0  0.90091  0.71613  0.61255  1.0000
  C   C7        1.0  0.9443400000000002  0.6912000000000003  0.57871  1.0000
  C   C8        1.0  0.9344000000000002  0.84354  0.037190000000000056  1.0000
  Eu  Eu3       1.0  0.11094  0.22578  0.05199  1.0000
  O   O17       1.0  0.19580000000000006  0.15011000000000002  0.08268  1.0000
  C   C9        1.0  0.17890000000000006  0.33966  0.99524  1.0000
  O   O18       1.0  0.04258  0.22361000000000003  0.85611  1.0000
  O   O19       1.0  0.06589000000000002  0.13249000000000002  0.9818899999999999  1.0000
  O   O20       1.0  0.06184  0.38016  0.07189  1.0000
  O   O21       1.0  0.17528000000000005  0.3050100000000001  0.86431  1.0000
  O   O22       1.0  0.15531000000000006  0.31993000000000005  0.12398  1.0000
  O   O23       1.0  0.13202  0.16272  0.23597999999999997  1.0000
  C   C10       1.0  0.17555  0.13755  0.20043  1.0000
  O   O24       1.0  0.056350000000000025  0.29382  0.22979  1.0000
  C   C11       1.0  0.04294  0.3628900000000001  0.18748  1.0000
  C   C12       1.0  0.03757000000000001  0.16071  0.8923999999999999  1.0000
  Eu  Eu4       1.0  0.60639  0.25334  0.82267  1.0000
  O   O25       1.0  0.6817100000000003  0.17382  0.9437099999999999  1.0000
  C   C13       1.0  0.64077  0.41051  0.93835  1.0000
  O   O26       1.0  0.5237100000000001  0.19191000000000003  0.8538899999999998  1.0000
  O   O27       1.0  0.5893100000000002  0.13074  0.83915  1.0000
  O   O28       1.0  0.5290600000000002  0.31329  0.68197  1.0000
  O   O29       1.0  0.6581300000000002  0.3678800000000001  0.011160000000000059  1.0000
  O   O30       1.0  0.6204  0.378  0.81327  1.0000
  O   O31       1.0  0.6754100000000002  0.21028000000000005  0.71505  1.0000
  C   C14       1.0  0.69954  0.18299  0.81865  1.0000
  O   O32       1.0  0.59017  0.23686000000000001  0.57474  1.0000
  C   C15       1.0  0.55297  0.28185  0.564  1.0000
  C   C16       1.0  0.54472  0.13457  0.8721  1.0000
  C   C17       1.0  0.31315000000000004  0.5552800000000002  0.23341  1.0000
  C   C18       1.0  0.28937  0.5868500000000002  0.38  1.0000
  C   C19       1.0  0.25317  0.55248  0.43477  1.0000
  C   C20       1.0  0.22835  0.58509  0.5926999999999998  1.0000
  C   C21       1.0  0.2401000000000001  0.48694000000000004  0.34114  1.0000
  C   C22       1.0  0.2629100000000001  0.4547  0.19320999999999994  1.0000
  C   C23       1.0  0.24731  0.38352  0.09579  1.0000
  F   F1        1.0  0.27974  0.34624  0.97952  1.0000
  F   F2        1.0  0.23776  0.3312400000000001  0.19177  1.0000
  C   C24       1.0  0.2074  0.40557  0.01967  1.0000
  F   F3        1.0  0.18247000000000002  0.46962  0.11181  1.0000
  F   F4        1.0  0.22111000000000006  0.42505  0.8779999999999999  1.0000
  C   C25       1.0  0.29988  0.48884000000000005  0.14064999999999997  1.0000
  H   H1        1.0  0.29914  0.63794  0.45288  1.0000
  H   H2        1.0  0.24388000000000004  0.63407  0.65714  1.0000
  H   H3        1.0  0.22639  0.53876  0.66229  1.0000
  H   H4        1.0  0.19531  0.60673  0.57989  1.0000
  H   H5        1.0  0.21200000000000005  0.46062000000000003  0.384  1.0000
  H   H6        1.0  0.3178100000000001  0.46468000000000004  0.027149999999999997  1.0000
  C   C26       1.0  0.7850500000000002  0.9019800000000002  0.72355  1.0000
  C   C27       1.0  0.74381  0.8759500000000002  0.73416  1.0000
  C   C28       1.0  0.70864  0.92223  0.70739  1.0000
  C   C29       1.0  0.6646  0.8943500000000002  0.71806  1.0000
  C   C30       1.0  0.71471  0.9958300000000001  0.67289  1.0000
  C   C31       1.0  0.75569  0.023209999999999998  0.66273  1.0000
  C   C32       1.0  0.76179  0.10402000000000003  0.63031  1.0000
  F   F5        1.0  0.80473  0.10950999999999998  0.57912  1.0000
  F   F6        1.0  0.73889  0.11607  0.51139  1.0000
  C   C33       1.0  0.7477200000000003  0.16838000000000003  0.77758  1.0000
  F   F7        1.0  0.76569  0.14852000000000004  0.9018  1.0000
  F   F8        1.0  0.7632600000000003  0.23745000000000002  0.7517899999999997  1.0000
  C   C34       1.0  0.79089  0.9753  0.6863199999999998  1.0000
  H   H7        1.0  0.73894  0.81947  0.76246  1.0000
  H   H8        1.0  0.6648600000000002  0.8345000000000002  0.74223  1.0000
  H   H9        1.0  0.6514300000000001  0.8941900000000003  0.60712  1.0000
  H   H10       1.0  0.64345  0.9342900000000001  0.81368  1.0000
  H   H11       1.0  0.68726  0.03169  0.6543  1.0000
  H   H12       1.0  0.82267  0.9957800000000001  0.67972  1.0000
  C   C35       1.0  0.19705  0.09638000000000001  0.30463  1.0000
  C   C36       1.0  0.17909  0.10444000000000003  0.46019  1.0000
  C   C37       1.0  0.19939999999999997  0.06593000000000027  0.56018  1.0000
  C   C38       1.0  0.18127000000000004  0.07789999999999986  0.7284  1.0000
  C   C39       1.0  0.23753  0.017450000000000188  0.50357  1.0000
  C   C40       1.0  0.25585  0.00792999999999999  0.34684  1.0000
  C   C41       1.0  0.29648  0.9555800000000001  0.27407  1.0000
  F   F9        1.0  0.28653  0.90766  0.14126999999999995  1.0000
  F   F10       1.0  0.32682  0.0030399999999999954  0.22899999999999995  1.0000
  C   C42       1.0  0.31659  0.9041  0.37624  1.0000
  F   F11       1.0  0.28582  0.8598600000000002  0.43273  1.0000
  F   F12       1.0  0.33137  0.9508000000000001  0.50056  1.0000
  C   C43       1.0  0.23558  0.04907  0.2496  1.0000
  H   H13       1.0  0.1498  0.14211  0.50448  1.0000
  H   H14       1.0  0.15207  0.1198999999999999  0.75789  1.0000
  H   H15       1.0  0.2060700000000001  0.10132000000000006  0.7987099999999998  1.0000
  H   H16       1.0  0.17279000000000003  0.021530000000000275  0.75741  1.0000
  H   H17       1.0  0.25259  0.9884600000000001  0.58316  1.0000
  H   H18       1.0  0.24958  0.04273  0.12894  1.0000
  C   C44       1.0  0.77634  0.55819  0.82019  1.0000
  C   C45       1.0  0.79205  0.49394  0.70061  1.0000
  C   C46       1.0  0.7637799999999999  0.4428700000000001  0.63331  1.0000
  C   C47       1.0  0.7803200000000002  0.3754900000000001  0.50237  1.0000
  C   C48       1.0  0.7195700000000003  0.45638  0.68577  1.0000
  C   C49       1.0  0.7032800000000002  0.52048  0.80511  1.0000
  C   C50       1.0  0.6552500000000002  0.5381600000000001  0.85539  1.0000
  F   F13       1.0  0.6456400000000002  0.61793  0.90598  1.0000
  F   F14       1.0  0.63348  0.51595  0.72917  1.0000
  C   C51       1.0  0.63904  0.4978  0.9890099999999998  1.0000
  F   F15       1.0  0.66289  0.51695  0.11064000000000006  1.0000
  F   F16       1.0  0.59664  0.52522  0.04361999999999999  1.0000
  C   C52       1.0  0.73207  0.57029  0.87316  1.0000
  H   H19       1.0  0.8261000000000002  0.48417000000000004  0.65802  1.0000
  H   H20       1.0  0.81594  0.3709600000000001  0.47630999999999996  1.0000
  H   H21       1.0  0.7666200000000002  0.38328000000000007  0.39586  1.0000
  H   H22       1.0  0.77061  0.32017  0.53339  1.0000
  H   H23       1.0  0.69782  0.41741  0.6319399999999997  1.0000
  H   H24       1.0  0.7196900000000003  0.6199500000000002  0.96469  1.0000
  C   C53       1.0  0.49617000000000017  0.55281  0.41509  1.0000
  C   C54       1.0  0.49797  0.58205  0.57333  1.0000
  C   C55       1.0  0.52274  0.5405100000000003  0.65728  1.0000
  C   C56       1.0  0.52419  0.5703000000000003  0.82709  1.0000
  C   C57       1.0  0.54602  0.4698  0.58221  1.0000
  C   C58       1.0  0.54318  0.4378300000000001  0.42579  1.0000
  C   C59       1.0  0.56573  0.358  0.34888  1.0000
  F   F17       1.0  0.56672  0.34636000000000006  0.18869999999999998  1.0000
  F   F18       1.0  0.60804  0.35494000000000003  0.37805  1.0000
  C   C60       1.0  0.54273  0.2912600000000001  0.40618  1.0000
  F   F19       1.0  0.49866000000000005  0.30466  0.41042  1.0000
  F   F20       1.0  0.5561300000000002  0.22183000000000008  0.30185  1.0000
  C   C61       1.0  0.5184  0.48028000000000004  0.34292  1.0000
  H   H25       1.0  0.48059  0.63741  0.63087  1.0000
  H   H26       1.0  0.49967  0.61996  0.8756699999999998  1.0000
  H   H27       1.0  0.5564400000000003  0.58957  0.84445  1.0000
  H   H28       1.0  0.5176600000000002  0.52313  0.89194  1.0000
  H   H29       1.0  0.56573  0.4390200000000001  0.64703  1.0000
  H   H30       1.0  0.5159900000000002  0.45655  0.22205999999999998  1.0000
  C   C62       1.0  0.9566000000000001  0.91436  0.08584999999999998  1.0000
  C   C63       1.0  0.9818400000000002  0.9204300000000001  0.20741  1.0000
  C   C64       1.0  0.0023999999999999616  0.98827  0.25234  1.0000
  C   C65       1.0  0.029220000000000024  0.9951699999999999  0.38258  1.0000
  C   C66       1.0  0.99739  0.05066000000000015  0.17609  1.0000
  C   C67       1.0  0.9720400000000002  0.04593  0.05503999999999999  1.0000
  C   C68       1.0  0.96508  0.11442999999999998  0.9759999999999999  1.0000
  F   F21       1.0  0.9261600000000001  0.11048999999999999  0.91737  1.0000
  F   F22       1.0  0.9616500000000002  0.18375000000000005  0.0851599999999999  1.0000
  C   C69       1.0  0.0011799999999999964  0.11509  0.83997  1.0000
  F   F23       1.0  0.017520000000000004  0.039770000000000014  0.76871  1.0000
  F   F24       1.0  0.9837800000000001  0.14908  0.7294299999999998  1.0000
  C   C70       1.0  0.9520600000000001  0.97721  0.010380000000000056  1.0000
  H   H31       1.0  0.9853300000000004  0.87281  0.26777  1.0000
  H   H32       1.0  0.029989999999999954  0.94184  0.43287  1.0000
  H   H33       1.0  0.015580000000000156  0.045500000000000096  0.47592000000000007  1.0000
  H   H34       1.0  0.06269  0.004709999999999991  0.3391  1.0000
  H   H35       1.0  0.012790000000000001  0.10330000000000002  0.21272  1.0000
  H   H36       1.0  0.93288  0.9726000000000001  0.91592  1.0000
  C   C71       1.0  0.52291  0.0728  0.93494  1.0000
  C   C72       1.0  0.47805  0.08151000000000001  0.97581  1.0000
  C   C73       1.0  0.45716  0.027009999999999992  0.04672999999999994  1.0000
  C   C74       1.0  0.40962  0.03784999999999998  0.09536999999999973  1.0000
  C   C75       1.0  0.4809000000000001  0.96243  0.07494  1.0000
  C   C76       1.0  0.52562  0.9507200000000001  0.03002  1.0000
  C   C77       1.0  0.5506800000000002  0.87936  0.0598  1.0000
  F   F25       1.0  0.5944900000000002  0.8853700000000001  0.029549999999999965  1.0000
  F   F26       1.0  0.54173  0.8762700000000002  0.21576  1.0000
  C   C78       1.0  0.5403400000000003  0.8028200000000001  0.9566399999999999  1.0000
  F   F27       1.0  0.54391  0.81094  0.80282  1.0000
  F   F28       1.0  0.57035  0.74336  0.9659799999999998  1.0000
  C   C79       1.0  0.54639  0.007070000000000002  0.9614  1.0000
  H   H37       1.0  0.4593800000000001  0.13175000000000003  0.9559300000000001  1.0000
  H   H38       1.0  0.39506  0.09216000000000002  0.06855999999999995  1.0000
  H   H39       1.0  0.4028800000000001  0.04138  0.22291  1.0000
  H   H40       1.0  0.39466  0.9875499999999999  0.032969999999999715  1.0000
  H   H41       1.0  0.4643  0.9217600000000001  0.13316  1.0000
  H   H42       1.0  0.58086  0.0007799999999999967  0.93052  1.0000
  C   C80       1.0  0.006020000000000004  0.41428  0.28149  1.0000
  C   C81       1.0  0.9822300000000003  0.39109  0.40733  1.0000
  C   C82       1.0  0.9471300000000002  0.4392300000000001  0.49655  1.0000
  C   C83       1.0  0.9216600000000003  0.41409  0.63045  1.0000
  C   C84       1.0  0.93547  0.5108500000000001  0.45886  1.0000
  C   C85       1.0  0.9591300000000003  0.53575  0.33488  1.0000
  C   C86       1.0  0.9479100000000001  0.6158  0.30204  1.0000
  F   F29       1.0  0.9646100000000001  0.61844  0.15076  1.0000
  F   F30       1.0  0.90364  0.63012  0.31464  1.0000
  C   C87       1.0  0.96651  0.68002  0.41415  1.0000
  F   F31       1.0  0.010220000000000121  0.66172  0.40846  1.0000
  F   F32       1.0  0.96082  0.74998  0.36648  1.0000
  C   C88       1.0  0.99431  0.4869200000000001  0.24638  1.0000
  H   H43       1.0  0.99072  0.33529  0.43583  1.0000
  H   H44       1.0  0.9416600000000003  0.3730000000000001  0.67935  1.0000
  H   H45       1.0  0.8936100000000002  0.38492  0.5899999999999999  1.0000
  H   H46       1.0  0.9100700000000003  0.46530000000000005  0.72526  1.0000
  H   H47       1.0  0.9082100000000002  0.5476  0.5277399999999999  1.0000
  H   H48       1.0  0.01305  0.50597  0.1517  1.0000
