data_image0
_chemical_formula_structural       Ho2C6O12Ho2C6O12Ho2C6O12Ho2C6O12C3OC4N2CN2CH6C3OC4N2CN2CH6C3OC4N2CN2CH6C3OC4N2CN2CH6C3OC4N2CN2CH6C3OC4N2CN2CH6C3OC4N2CN2CH6C3OC4N2CN2CH6C3OC4N2CN2CH6C3OC4N2CN2CH6C3OC4N2CN2CH6C3OC4N2CN2CH6
_chemical_formula_sum              "Ho8 C132 O60 N48 H72"
_cell_length_a       15.7209
_cell_length_b       18.5751
_cell_length_c       31.6125
_cell_angle_alpha    110.8981
_cell_angle_beta     91.3622
_cell_angle_gamma    89.5237

_symmetry_space_group_name_H-M    'P 1'
_symmetry_Int_Tables_number       1

loop_
  _symmetry_equiv_pos_as_xyz
  'x,y,z'

loop_
  _atom_site_type_symbol
  _atom_site_label
  _atom_site_symmetry_multiplicity
  _atom_site_fract_x
  _atom_site_fract_y
  _atom_site_fract_z
  _atom_site_occupancy
  Ho  Ho1       1.0  0.73381  0.16585999999999998  0.4209300000000001  1.0000
  Ho  Ho2       1.0  0.7727100000000002  0.33200000000000013  0.5804500000000001  1.0000
  C   C1        1.0  0.8575900000000002  0.21114  0.37923  1.0000
  C   C2        1.0  0.61908  0.1185  0.35395  1.0000
  C   C3        1.0  0.8617600000000002  0.22145999999999996  0.50156  1.0000
  C   C4        1.0  0.6655500000000004  0.2769  0.62463  1.0000
  C   C5        1.0  0.8678  0.29537999999999986  0.63979  1.0000
  C   C6        1.0  0.67229  0.31716  0.49029  1.0000
  O   O1        1.0  0.8562900000000002  0.22026  0.42067  1.0000
  O   O2        1.0  0.7881  0.18238999999999994  0.35936  1.0000
  O   O3        1.0  0.6147300000000002  0.10866  0.39125  1.0000
  O   O4        1.0  0.6860800000000002  0.15477  0.35174  1.0000
  O   O5        1.0  0.8454500000000003  0.22584999999999997  0.46278  1.0000
  O   O6        1.0  0.87807  0.2839899999999999  0.53432  1.0000
  O   O7        1.0  0.7213300000000002  0.23744999999999997  0.59762  1.0000
  O   O8        1.0  0.66242  0.34617  0.6258  1.0000
  O   O9        1.0  0.8279000000000002  0.24649  0.60676  1.0000
  O   O10       1.0  0.8591  0.36377999999999994  0.64053  1.0000
  O   O11       1.0  0.6946600000000003  0.28347  0.51758  1.0000
  O   O12       1.0  0.67146  0.27903999999999995  0.44769  1.0000
  Ho  Ho3       1.0  0.22894000000000006  0.7621999999999998  0.44219  1.0000
  Ho  Ho4       1.0  0.30544  0.78812  0.59131  1.0000
  C   C7        1.0  0.32446000000000014  0.7489199999999999  0.37285  1.0000
  C   C8        1.0  0.09949  0.76412  0.39165  1.0000
  C   C9        1.0  0.33977  0.6896  0.49361  1.0000
  C   C10       1.0  0.20296000000000006  0.69359  0.6159  1.0000
  C   C11       1.0  0.41265  0.80163  0.6562900000000003  1.0000
  C   C12       1.0  0.18936000000000006  0.8628499999999999  0.54077  1.0000
  O   O13       1.0  0.3259400000000001  0.8067599999999999  0.40935  1.0000
  O   O14       1.0  0.26338  0.7032499999999998  0.37059  1.0000
  O   O15       1.0  0.1251  0.82314  0.42454  1.0000
  O   O16       1.0  0.14969  0.70574  0.38163  1.0000
  O   O17       1.0  0.32609000000000005  0.68451  0.45303  1.0000
  O   O18       1.0  0.2802400000000001  0.7133  0.52142  1.0000
  O   O19       1.0  0.2542  0.67264  0.58473  1.0000
  O   O20       1.0  0.20563000000000006  0.76469  0.63421  1.0000
  O   O21       1.0  0.4155500000000001  0.74566  0.61827  1.0000
  O   O22       1.0  0.3509600000000001  0.8483499999999999  0.6598  1.0000
  O   O23       1.0  0.19648000000000004  0.8518499999999999  0.57816  1.0000
  O   O24       1.0  0.24937000000000012  0.8411599999999999  0.51258  1.0000
  Ho  Ho5       1.0  0.22339000000000012  0.28708999999999996  0.084  1.0000
  Ho  Ho6       1.0  0.27657  0.27233999999999997  0.93148  1.0000
  C   C13       1.0  0.3164300000000001  0.22727999999999995  0.13485  1.0000
  C   C14       1.0  0.12527  0.30699  0.15188  1.0000
  C   C15       1.0  0.35387  0.33331  0.028480000000000064  1.0000
  C   C16       1.0  0.12997  0.2568199999999999  0.88657  1.0000
  C   C17       1.0  0.3253300000000001  0.3032499999999999  0.86212  1.0000
  C   C18       1.0  0.21239000000000005  0.17319  0.98384  1.0000
  O   O25       1.0  0.2889600000000001  0.1894099999999999  0.09517  1.0000
  O   O26       1.0  0.29354000000000013  0.29744  0.14788  1.0000
  O   O27       1.0  0.10589000000000003  0.26249  0.11157  1.0000
  O   O28       1.0  0.19722  0.3416  0.15577  1.0000
  O   O29       1.0  0.34467  0.32739  0.06698  1.0000
  O   O30       1.0  0.28849000000000014  0.33532999999999996  0.0046800000000000175  1.0000
  O   O31       1.0  0.14199000000000006  0.30220000000000014  0.92689  1.0000
  O   O32       1.0  0.19668  0.22017999999999982  0.86933  1.0000
  O   O33       1.0  0.32568000000000014  0.35429000000000005  0.90229  1.0000
  O   O34       1.0  0.2936100000000001  0.23788999999999996  0.85909  1.0000
  O   O35       1.0  0.24062000000000006  0.16827000000000017  0.9454800000000001  1.0000
  O   O36       1.0  0.18945000000000006  0.23859  0.011200000000000002  1.0000
  Ho  Ho7       1.0  0.72502  0.7676  0.07235000000000001  1.0000
  Ho  Ho8       1.0  0.83358  0.72097  0.92624  1.0000
  C   C19       1.0  0.80602  0.7878699999999997  0.15001  1.0000
  C   C20       1.0  0.6054500000000003  0.75111  0.12397  1.0000
  C   C21       1.0  0.8309100000000003  0.85095  0.023400000000000087  1.0000
  C   C22       1.0  0.7835800000000003  0.80615  0.87854  1.0000
  C   C23       1.0  0.9459000000000002  0.68834  0.86279  1.0000
  C   C24       1.0  0.7407100000000002  0.63811  0.97806  1.0000
  O   O37       1.0  0.8238  0.7354499999999998  0.11305  1.0000
  O   O38       1.0  0.7472300000000002  0.83181  0.1455  1.0000
  O   O39       1.0  0.6322800000000002  0.69581  0.08947  1.0000
  O   O40       1.0  0.6408900000000002  0.8163299999999999  0.12997  1.0000
  O   O41       1.0  0.8089300000000003  0.85543  0.06298  1.0000
  O   O42       1.0  0.7862800000000002  0.80978  0.98905  1.0000
  O   O43       1.0  0.8528200000000001  0.81646  0.90145  1.0000
  O   O44       1.0  0.7397400000000002  0.7520500000000001  0.88244  1.0000
  O   O45       1.0  0.94182  0.75524  0.8941100000000002  1.0000
  O   O46       1.0  0.8927500000000003  0.64026  0.8669400000000002  1.0000
  O   O47       1.0  0.75432  0.6328599999999998  0.93779  1.0000
  O   O48       1.0  0.77872  0.69116  0.00929  1.0000
  C   C25       1.0  0.8460000000000002  0.14905  0.50932  1.0000
  C   C26       1.0  0.7634800000000002  0.1229  0.51176  1.0000
  C   C27       1.0  0.7507200000000003  0.05914999999999996  0.52512  1.0000
  O   O49       1.0  0.67061  0.036979999999999985  0.53532  1.0000
  C   C28       1.0  0.5965000000000003  0.07662000000000001  0.52858  1.0000
  C   C29       1.0  0.8212000000000003  0.016289999999999687  0.53015  1.0000
  C   C30       1.0  0.90368  0.03640999999999999  0.52244  1.0000
  C   C31       1.0  0.9769  0.9875999999999999  0.52493  1.0000
  N   N1        1.0  0.9728900000000003  0.94138  0.54979  1.0000
  N   N2        1.0  0.03981  0.89944  0.55346  1.0000
  C   C32       1.0  0.11279000000000003  0.9008899999999999  0.53169  1.0000
  N   N3        1.0  0.11677000000000003  0.9465699999999999  0.50655  1.0000
  N   N4        1.0  0.049970000000000014  0.98893  0.50309  1.0000
  C   C33       1.0  0.9157500000000002  0.10447999999999999  0.51354  1.0000
  H   H1        1.0  0.70961  0.15326000000000006  0.50502  1.0000
  H   H2        1.0  0.5402500000000001  0.05178000000000001  0.53898  1.0000
  H   H3        1.0  0.5883100000000002  0.06854999999999999  0.49219  1.0000
  H   H4        1.0  0.59994  0.13865  0.54993  1.0000
  H   H5        1.0  0.8110300000000003  0.9661399999999999  0.53936  1.0000
  H   H6        1.0  0.9794100000000002  0.12292999999999998  0.50979  1.0000
  C   C34       1.0  0.21217000000000005  0.10479999999999998  0.99672  1.0000
  C   C35       1.0  0.2894500000000001  0.07368  0.00507  1.0000
  C   C36       1.0  0.29018  0.01019  0.01975  1.0000
  O   O50       1.0  0.3646800000000001  0.9794499999999999  0.03245  1.0000
  C   C37       1.0  0.44315  0.0181  0.03357  1.0000
  C   C38       1.0  0.21273  0.9760299999999998  0.0229  1.0000
  C   C39       1.0  0.13503  0.0042599999999999305  0.01231  1.0000
  C   C40       1.0  0.05462000000000001  0.9656899999999998  0.015180000000000003  1.0000
  N   N5        1.0  0.04488  0.93599  0.04827  1.0000
  N   N6        1.0  0.9736600000000003  0.8993199999999998  0.05045  1.0000
  C   C41       1.0  0.9100100000000002  0.88932  0.019100000000000002  1.0000
  N   N7        1.0  0.9192200000000003  0.9194899999999999  0.98617  1.0000
  N   N8        1.0  0.9901800000000002  0.9571399999999999  0.98429  1.0000
  C   C42       1.0  0.13508000000000003  0.06942999999999995  0.99962  1.0000
  H   H7        1.0  0.3477900000000001  0.10149  0.0017  1.0000
  H   H8        1.0  0.49414000000000013  0.9894099999999998  0.046499999999999986  1.0000
  H   H9        1.0  0.43967  0.07915999999999997  0.05685  1.0000
  H   H10       1.0  0.45964  0.014309999999999982  0.99889  1.0000
  H   H11       1.0  0.21348000000000006  0.92652  0.0334  1.0000
  H   H12       1.0  0.07544000000000002  0.09273999999999995  0.99216  1.0000
  C   C43       1.0  0.4271900000000001  0.68618  0.50952  1.0000
  C   C44       1.0  0.48004000000000013  0.74995  0.51695  1.0000
  C   C45       1.0  0.56622  0.74737  0.5296  1.0000
  O   O51       1.0  0.6233300000000003  0.80875  0.53766  1.0000
  C   C46       1.0  0.60209  0.86596  0.51899  1.0000
  C   C47       1.0  0.59853  0.67997  0.53364  1.0000
  C   C48       1.0  0.54659  0.61534  0.52518  1.0000
  C   C49       1.0  0.5859200000000002  0.54144  0.52088  1.0000
  N   N9        1.0  0.64606  0.51188  0.48932  1.0000
  N   N10       1.0  0.6769600000000001  0.4415799999999999  0.4815  1.0000
  C   C50       1.0  0.6503700000000002  0.39894  0.50564  1.0000
  N   N11       1.0  0.59121  0.4289899999999998  0.53791  1.0000
  N   N12       1.0  0.5592600000000002  0.49915999999999994  0.54534  1.0000
  C   C51       1.0  0.4600700000000001  0.61907  0.51416  1.0000
  H   H13       1.0  0.4533300000000001  0.8006499999999999  0.51244  1.0000
  H   H14       1.0  0.6584000000000002  0.90334  0.52366  1.0000
  H   H15       1.0  0.54756  0.9012  0.53691  1.0000
  H   H16       1.0  0.5880300000000003  0.8391000000000001  0.48202  1.0000
  H   H17       1.0  0.6655100000000003  0.6774799999999997  0.54202  1.0000
  H   H18       1.0  0.4198700000000002  0.5688199999999998  0.50671  1.0000
  C   C52       1.0  0.4392  0.3279099999999999  0.01051000000000002  1.0000
  C   C53       1.0  0.48351  0.25847  5.999999999994898e-05  1.0000
  C   C54       1.0  0.5698300000000002  0.25380000000000014  0.9880100000000002  1.0000
  O   O52       1.0  0.61736  0.18496999999999997  0.97541  1.0000
  C   C55       1.0  0.57404  0.11612000000000001  0.97259  1.0000
  C   C56       1.0  0.61093  0.3207399999999999  0.98831  1.0000
  C   C57       1.0  0.56584  0.3901  0.99794  1.0000
  C   C58       1.0  0.60726  0.4582100000000001  0.9948100000000001  1.0000
  N   N13       1.0  0.66455  0.49940999999999997  0.026939999999999964  1.0000
  N   N14       1.0  0.7036300000000002  0.56003  0.02302000000000004  1.0000
  C   C59       1.0  0.6865200000000002  0.58164  0.9869100000000001  1.0000
  N   N15       1.0  0.62896  0.54042  0.95496  1.0000
  N   N16       1.0  0.58933  0.48030999999999996  0.95906  1.0000
  C   C60       1.0  0.47971  0.3933299999999999  0.00857  1.0000
  H   H19       1.0  0.4498700000000001  0.20917  0.0020299999999999763  1.0000
  H   H20       1.0  0.61811  0.06658999999999997  0.95979  1.0000
  H   H21       1.0  0.51866  0.10539  0.94857  1.0000
  H   H22       1.0  0.55324  0.12038  0.00672  1.0000
  H   H23       1.0  0.6777000000000002  0.31810000000000005  0.98001  1.0000
  H   H24       1.0  0.4453800000000001  0.44733999999999996  0.01694  1.0000
  C   C61       1.0  0.9362000000000003  0.22737999999999997  0.35957000000000006  1.0000
  C   C62       1.0  0.012990000000000059  0.2265  0.38351  1.0000
  C   C63       1.0  0.09132  0.24275999999999998  0.36856  1.0000
  O   O53       1.0  0.17044  0.2393  0.38986  1.0000
  C   C64       1.0  0.17433  0.2000399999999999  0.42139  1.0000
  C   C65       1.0  0.09133000000000002  0.2640799999999999  0.33066  1.0000
  C   C66       1.0  0.01575  0.26624999999999993  0.30641  1.0000
  C   C67       1.0  0.022810000000000007  0.2904099999999999  0.26715  1.0000
  N   N17       1.0  0.9907100000000001  0.24620999999999998  0.22585  1.0000
  N   N18       1.0  0.01734  0.25616  0.18854  1.0000
  C   C68       1.0  0.07703  0.31039  0.19141  1.0000
  N   N19       1.0  0.10517  0.35714  0.23278  1.0000
  N   N20       1.0  0.07841999999999993  0.34748  0.26991  1.0000
  C   C69       1.0  0.9378500000000002  0.24541999999999997  0.32003  1.0000
  H   H25       1.0  0.011239999999999917  0.2123  0.41379  1.0000
  H   H26       1.0  0.24160000000000006  0.19737  0.43203  1.0000
  H   H27       1.0  0.15070000000000006  0.13991999999999993  0.4053  1.0000
  H   H28       1.0  0.13810000000000006  0.23171999999999998  0.45224  1.0000
  H   H29       1.0  0.15175  0.27705  0.31917  1.0000
  H   H30       1.0  0.87938  0.24632  0.30133  1.0000
  C   C70       1.0  0.012910000000000008  0.76116  0.3735400000000001  1.0000
  C   C71       1.0  0.9463300000000002  0.76115  0.40234  1.0000
  C   C72       1.0  0.86114  0.76753  0.38946  1.0000
  O   O54       1.0  0.7909800000000002  0.76707  0.41649  1.0000
  C   C73       1.0  0.80701  0.76539  0.46088  1.0000
  C   C74       1.0  0.8446000000000002  0.7752299999999998  0.34762  1.0000
  C   C75       1.0  0.9109300000000002  0.7752000000000001  0.31843  1.0000
  C   C76       1.0  0.8903000000000002  0.78458  0.27502  1.0000
  N   N21       1.0  0.9351300000000002  0.7470000000000001  0.23723000000000002  1.0000
  N   N22       1.0  0.9104500000000002  0.75005  0.19725  1.0000
  C   C77       1.0  0.8411  0.792  0.19393  1.0000
  N   N23       1.0  0.79757  0.8307099999999998  0.23178  1.0000
  N   N24       1.0  0.8215400000000003  0.82691  0.27152000000000004  1.0000
  C   C78       1.0  0.99553  0.7673799999999997  0.33143  1.0000
  H   H31       1.0  0.9621000000000002  0.7567  0.43483  1.0000
  H   H32       1.0  0.74541  0.7650899999999998  0.47718  1.0000
  H   H33       1.0  0.84281  0.8175899999999998  0.48224  1.0000
  H   H34       1.0  0.84174  0.7121  0.45923  1.0000
  H   H35       1.0  0.77912  0.78045  0.33762  1.0000
  H   H36       1.0  0.04757000000000001  0.76956  0.31002  1.0000
  C   C79       1.0  0.04769000000000001  0.24690999999999988  0.86267  1.0000
  C   C80       1.0  0.9745300000000001  0.23663999999999988  0.88433  1.0000
  C   C81       1.0  0.89529  0.22223  0.86096  1.0000
  O   O55       1.0  0.8193800000000002  0.20828999999999992  0.87964  1.0000
  C   C82       1.0  0.82292  0.20527000000000006  0.92413  1.0000
  C   C83       1.0  0.8905500000000002  0.22168  0.8166  1.0000
  C   C84       1.0  0.9627800000000002  0.23597  0.79561  1.0000
  C   C85       1.0  0.95261  0.24526999999999996  0.75158  1.0000
  N   N25       1.0  0.9776900000000001  0.31147  0.7465  1.0000
  N   N26       1.0  0.9548100000000003  0.32631999999999994  0.70953  1.0000
  C   C86       1.0  0.9072500000000002  0.2747699999999999  0.6762  1.0000
  N   N27       1.0  0.8845700000000002  0.20764999999999995  0.6807  1.0000
  N   N28       1.0  0.9062300000000001  0.19337000000000004  0.7179000000000001  1.0000
  C   C87       1.0  0.04182000000000001  0.24694000000000002  0.81836  1.0000
  H   H37       1.0  0.9805800000000002  0.23820999999999998  0.9188300000000001  1.0000
  H   H38       1.0  0.7586900000000002  0.19113999999999998  0.93268  1.0000
  H   H39       1.0  0.84235  0.26201000000000013  0.94934  1.0000
  H   H40       1.0  0.8671400000000002  0.15932999999999992  0.92559  1.0000
  H   H41       1.0  0.8292400000000002  0.21273999999999996  0.79899  1.0000
  H   H42       1.0  0.09819000000000003  0.25645  0.80195  1.0000
  C   C88       1.0  0.5524400000000003  0.08884999999999998  0.3181  1.0000
  C   C89       1.0  0.4999400000000001  0.029010000000000005  0.31995  1.0000
  C   C90       1.0  0.4315200000000001  0.0012099999999999978  0.28906  1.0000
  O   O56       1.0  0.3732800000000001  0.9450000000000001  0.29099  1.0000
  C   C91       1.0  0.3729900000000001  0.926  0.33102  1.0000
  C   C92       1.0  0.4180200000000001  0.03237999999999999  0.25531  1.0000
  C   C93       1.0  0.46855000000000013  0.09285999999999996  0.25284  1.0000
  C   C94       1.0  0.44257000000000013  0.12861999999999998  0.21936  1.0000
  N   N29       1.0  0.40746  0.08394  0.17882  1.0000
  N   N30       1.0  0.3697100000000001  0.11538999999999998  0.15142  1.0000
  C   C95       1.0  0.3650000000000001  0.19302  0.16348  1.0000
  N   N31       1.0  0.4015200000000001  0.238  0.20355  1.0000
  N   N32       1.0  0.43941  0.20647999999999994  0.23105  1.0000
  C   C96       1.0  0.53647  0.12117  0.28448  1.0000
  H   H43       1.0  0.51268  0.004520000000000012  0.34581  1.0000
  H   H44       1.0  0.31703  0.88897  0.32946  1.0000
  H   H45       1.0  0.36678  0.97868  0.36172  1.0000
  H   H46       1.0  0.43153000000000014  0.8936799999999999  0.33345  1.0000
  H   H47       1.0  0.3641200000000001  0.01175000000000001  0.23219  1.0000
  H   H48       1.0  0.57532  0.16855  0.28352  1.0000
  C   C97       1.0  0.76158  0.8484999999999998  0.84808  1.0000
  C   C98       1.0  0.81589  0.90737  0.84684  1.0000
  C   C99       1.0  0.8006400000000002  0.94552  0.81591  1.0000
  O   O57       1.0  0.8537900000000003  0.0035400000000001  0.81199  1.0000
  C   C100      1.0  0.93114  0.02014000000000009  0.83817  1.0000
  C   C101      1.0  0.7289200000000002  0.92525  0.78729  1.0000
  C   C102      1.0  0.6746900000000002  0.8663699999999998  0.7879600000000001  1.0000
  C   C103      1.0  0.60213  0.8454099999999998  0.75625  1.0000
  N   N33       1.0  0.6029600000000003  0.7787699999999997  0.71976  1.0000
  N   N34       1.0  0.5411900000000002  0.76352  0.68821  1.0000
  C   C104      1.0  0.4766200000000001  0.8143399999999997  0.69234  1.0000
  N   N35       1.0  0.4755800000000001  0.8806699999999998  0.72901  1.0000
  N   N36       1.0  0.53759  0.8962100000000001  0.7603500000000001  1.0000
  C   C105      1.0  0.6913  0.8273399999999999  0.8179  1.0000
  H   H49       1.0  0.87011  0.92246  0.86992  1.0000
  H   H50       1.0  0.9675  0.06371999999999998  0.82952  1.0000
  H   H51       1.0  0.9707000000000002  0.9672599999999999  0.83009  1.0000
  H   H52       1.0  0.9173300000000002  0.04414000000000009  0.87485  1.0000
  H   H53       1.0  0.71596  0.9549499999999999  0.76386  1.0000
  H   H54       1.0  0.6500900000000002  0.78046  0.81726  1.0000
  C   C106      1.0  0.39903  0.72656  0.34391  1.0000
  C   C107      1.0  0.47005  0.6996799999999999  0.36175  1.0000
  C   C108      1.0  0.54463  0.6766399999999998  0.33667  1.0000
  O   O58       1.0  0.61818  0.6489099999999999  0.35242  1.0000
  C   C109      1.0  0.61855  0.64553  0.3969  1.0000
  C   C110      1.0  0.54672  0.6814499999999998  0.29362  1.0000
  C   C111      1.0  0.4765500000000001  0.7088399999999999  0.27545  1.0000
  C   C112      1.0  0.4865  0.7181100000000001  0.23158  1.0000
  N   N37       1.0  0.51121  0.65692  0.19527  1.0000
  N   N38       1.0  0.5422000000000002  0.66709  0.15897  1.0000
  C   C113      1.0  0.5508100000000002  0.7390399999999999  0.15785  1.0000
  N   N39       1.0  0.5236200000000002  0.8000999999999998  0.19357000000000002  1.0000
  N   N40       1.0  0.4917600000000001  0.78984  0.22971  1.0000
  C   C114      1.0  0.4020100000000001  0.73108  0.30057  1.0000
  H   H55       1.0  0.46591  0.6965699999999999  0.39519  1.0000
  H   H56       1.0  0.681  0.62293  0.40359  1.0000
  H   H57       1.0  0.5683700000000003  0.60579  0.39974  1.0000
  H   H58       1.0  0.61032  0.70397  0.4228  1.0000
  H   H59       1.0  0.6046600000000002  0.66531  0.27455  1.0000
  H   H60       1.0  0.3477400000000001  0.7522499999999999  0.28675  1.0000
  C   C115      1.0  0.6215500000000003  0.2454  0.65522  1.0000
  C   C116      1.0  0.6483600000000003  0.17255  0.65514  1.0000
  C   C117      1.0  0.61771  0.14225999999999997  0.68676  1.0000
  O   O59       1.0  0.64554  0.07216999999999998  0.69035  1.0000
  C   C118      1.0  0.71754  0.03439  0.66512  1.0000
  C   C119      1.0  0.55631  0.18362  0.71677  1.0000
  C   C120      1.0  0.5274  0.2554499999999999  0.71714  1.0000
  C   C121      1.0  0.46096  0.29231  0.74971  1.0000
  N   N41       1.0  0.48334  0.34435999999999994  0.79105  1.0000
  N   N42       1.0  0.43442  0.35523  0.82678  1.0000
  C   C122      1.0  0.36219  0.31340000000000007  0.82247  1.0000
  N   N43       1.0  0.3377500000000001  0.2645  0.78078  1.0000
  N   N44       1.0  0.38606  0.2542699999999999  0.74514  1.0000
  C   C123      1.0  0.5615200000000002  0.28780000000000006  0.68711  1.0000
  H   H61       1.0  0.6947000000000002  0.14031  0.63089  1.0000
  H   H62       1.0  0.7735200000000002  0.07349  0.67337  1.0000
  H   H63       1.0  0.73405  0.98395  0.6747  1.0000
  H   H64       1.0  0.7024900000000002  0.013009999999999996  0.6282  1.0000
  H   H65       1.0  0.5312  0.15968  0.7406400000000001  1.0000
  H   H66       1.0  0.5416000000000002  0.3446199999999999  0.68851  1.0000
  C   C124      1.0  0.14875000000000005  0.6418199999999998  0.62941  1.0000
  C   C125      1.0  0.12421999999999998  0.57005  0.59764  1.0000
  C   C126      1.0  0.07259  0.5198999999999999  0.61048  1.0000
  O   O60       1.0  0.04001000000000001  0.44964  0.57976  1.0000
  C   C127      1.0  0.03902000000000001  0.43857  0.53262  1.0000
  C   C128      1.0  0.05162000000000023  0.54061  0.6561  1.0000
  C   C129      1.0  0.07743  0.61179  0.68851  1.0000
  C   C130      1.0  0.054100000000000044  0.6321999999999999  0.73649  1.0000
  N   N45       1.0  0.0240800000000001  0.57696  0.75092  1.0000
  N   N46       1.0  0.99542  0.59507  0.79262  1.0000
  C   C131      1.0  0.9965200000000002  0.6689899999999998  0.82195  1.0000
  N   N47       1.0  0.028990000000000293  0.7244399999999999  0.80827  1.0000
  N   N48       1.0  0.05766  0.70622  0.76629  1.0000
  C   C132      1.0  0.12331  0.6633  0.67442  1.0000
  H   H67       1.0  0.14481000000000005  0.5543999999999998  0.56309  1.0000
  H   H68       1.0  0.002960000000000073  0.3852499999999999  0.51366  1.0000
  H   H69       1.0  0.10464  0.43128999999999995  0.51947  1.0000
  H   H70       1.0  0.006550000000000004  0.48756999999999995  0.52659  1.0000
  H   H71       1.0  0.012699999999999934  0.50154  0.66595  1.0000
  H   H72       1.0  0.14184000000000005  0.7191099999999999  0.69867  1.0000
