data_image0
_chemical_formula_structural       EuOCO6COC2EuOCO6COC2EuOCO6COC2EuOCO6COC4NC3F2CF2CH3C2NC3F2CF2CH3C2NC3F2CF2CH3C2NC3F2CF2CH3C2NC3F2CF2CH3C2NC3F2CF2CH3C2NC3F2CF2CH3C2NC3F2CF2CH3
_chemical_formula_sum              "Eu4 O32 C72 N8 F32 H24"
_cell_length_a       35.847
_cell_length_b       13.6714
_cell_length_c       6.606600000000001
_cell_angle_alpha    97.41369999999999
_cell_angle_beta     91.0108
_cell_angle_gamma    86.0792

_space_group_name_H-M_alt    "P 1"
_space_group_IT_number       1

loop_
  _space_group_symop_operation_xyz
  'x, y, z'

loop_
  _atom_site_type_symbol
  _atom_site_label
  _atom_site_symmetry_multiplicity
  _atom_site_fract_x
  _atom_site_fract_y
  _atom_site_fract_z
  _atom_site_occupancy
  Eu  Eu1       1.0  0.3636  0.75511  0.11941000000000002  1.0000
  O   O1        1.0  0.2693  0.9151500000000001  0.1274  1.0000
  C   C1        1.0  0.33208000000000004  0.54266  0.13132  1.0000
  O   O2        1.0  0.41015  0.9282500000000002  0.73061  1.0000
  O   O3        1.0  0.38403  0.89866  0.024040000000000002  1.0000
  O   O4        1.0  0.42223  0.6045000000000001  0.13701  1.0000
  O   O5        1.0  0.34134  0.52764  0.95347  1.0000
  O   O6        1.0  0.34383  0.6233900000000002  0.25807  1.0000
  O   O7        1.0  0.31922  0.8541600000000001  0.30279  1.0000
  C   C2        1.0  0.284  0.84535  0.20784  1.0000
  O   O8        1.0  0.40788  0.73942  0.36465000000000003  1.0000
  C   C3        1.0  0.42714  0.6475300000000003  0.30649  1.0000
  C   C4        1.0  0.41355  0.88776  0.8851  1.0000
  Eu  Eu2       1.0  0.9006100000000001  0.7760400000000002  0.79166  1.0000
  O   O9        1.0  0.8389200000000001  0.97129  0.7263600000000001  1.0000
  C   C5        1.0  0.8365400000000002  0.63994  0.79085  1.0000
  O   O10       1.0  0.93002  0.8356500000000002  0.1976600000000002  1.0000
  O   O11       1.0  0.9323  0.91061  0.91446  1.0000
  O   O12       1.0  0.99194  0.58535  0.54928  1.0000
  O   O13       1.0  0.82814  0.7094600000000002  0.92101  1.0000
  O   O14       1.0  0.86986  0.6385800000000003  0.6850600000000002  1.0000
  O   O15       1.0  0.8728999999999999  0.85003  0.53197  1.0000
  C   C6        1.0  0.83894  0.9006800000000003  0.59302  1.0000
  O   O16       1.0  0.94811  0.7130400000000002  0.5747500000000001  1.0000
  C   C7        1.0  0.97157  0.6434000000000001  0.66033  1.0000
  C   C8        1.0  0.9439100000000001  0.8977500000000003  0.11256  1.0000
  Eu  Eu3       1.0  0.14323  0.23048  0.36448  1.0000
  O   O17       1.0  0.20455000000000007  0.08442000000000001  0.61698  1.0000
  C   C9        1.0  0.22445  0.20840000000000006  0.18195000000000003  1.0000
  O   O18       1.0  0.08192  0.27003  0.03817  1.0000
  O   O19       1.0  0.07977  0.23823000000000003  0.36657000000000006  1.0000
  O   O20       1.0  0.10180000000000002  0.43421  0.41638  1.0000
  O   O21       1.0  0.2533  0.15606  0.15730000000000002  1.0000
  O   O22       1.0  0.20687  0.21784  0.37014  1.0000
  O   O23       1.0  0.1421  0.12015000000000002  0.59778  1.0000
  C   C10       1.0  0.17355  0.05390000000000002  0.58012  1.0000
  O   O24       1.0  0.14222  0.3594000000000001  0.62197  1.0000
  C   C11       1.0  0.11253000000000002  0.4272900000000001  0.58947  1.0000
  C   C12       1.0  0.0629  0.25247  0.17963  1.0000
  Eu  Eu4       1.0  0.6038899999999999  0.26279  0.67921  1.0000
  O   O25       1.0  0.66893  0.13679000000000002  0.8054500000000001  1.0000
  C   C13       1.0  0.66612  0.37771000000000005  0.89094  1.0000
  O   O26       1.0  0.53465  0.29535  0.9401600000000001  1.0000
  O   O27       1.0  0.55091  0.18010000000000004  0.6774300000000001  1.0000
  O   O28       1.0  0.55967  0.4563900000000001  0.25738  1.0000
  O   O29       1.0  0.65035  0.34432  0.027279999999999974  1.0000
  O   O30       1.0  0.65716  0.34502000000000005  0.68897  1.0000
  O   O31       1.0  0.6346300000000001  0.12395  0.51321  1.0000
  C   C14       1.0  0.6617800000000001  0.08724  0.6433  1.0000
  O   O32       1.0  0.5857700000000001  0.32031  0.3794100000000001  1.0000
  C   C15       1.0  0.5737300000000001  0.42095  0.40371  1.0000
  C   C16       1.0  0.53219  0.2107700000000001  0.85939  1.0000
  C   C17       1.0  0.30544000000000004  0.4826200000000001  0.21787  1.0000
  C   C18       1.0  0.30813  0.4716100000000001  0.42516  1.0000
  N   N1        1.0  0.28  0.4344300000000001  0.5186800000000001  1.0000
  C   C19       1.0  0.24832000000000004  0.4076000000000001  0.41699  1.0000
  C   C20       1.0  0.24423  0.4152000000000001  0.20799000000000006  1.0000
  C   C21       1.0  0.20895  0.38292  0.09379  1.0000
  F   F1        1.0  0.17813  0.40775  0.21960000000000002  1.0000
  F   F2        1.0  0.20354000000000003  0.4331600000000001  0.92569  1.0000
  C   C22       1.0  0.21076  0.27051000000000003  0.0194  1.0000
  F   F3        1.0  0.17565  0.24225000000000005  0.95483  1.0000
  F   F4        1.0  0.23462000000000002  0.25107  0.8544900000000001  1.0000
  C   C23       1.0  0.27379  0.45077000000000006  0.10686  1.0000
  H   H1        1.0  0.33216000000000007  0.4957800000000001  0.51483  1.0000
  H   H2        1.0  0.22589  0.38340000000000013  0.50201  1.0000
  H   H3        1.0  0.27125  0.45909  0.94659  1.0000
  C   C24       1.0  0.8036300000000001  0.86986  0.49143  1.0000
  C   C25       1.0  0.80014  0.7709500000000002  0.40945000000000004  1.0000
  N   N2        1.0  0.76667  0.74094  0.33329  1.0000
  C   C26       1.0  0.73648  0.8051000000000001  0.3222100000000001  1.0000
  C   C27       1.0  0.7386400000000001  0.9058600000000002  0.39600000000000013  1.0000
  C   C28       1.0  0.70478  0.97915  0.39137  1.0000
  F   F5        1.0  0.71686  0.07123999999999998  0.3643300000000001  1.0000
  F   F6        1.0  0.68227  0.9496800000000002  0.22450000000000003  1.0000
  C   C29       1.0  0.68149  0.9858200000000001  0.58919  1.0000
  F   F7        1.0  0.6543  0.9172300000000001  0.56281  1.0000
  F   F8        1.0  0.70427  0.9642800000000001  0.75229  1.0000
  C   C30       1.0  0.77248  0.9372000000000003  0.48425  1.0000
  H   H4        1.0  0.82356  0.71674  0.41299000000000013  1.0000
  H   H5        1.0  0.71079  0.77763  0.25731  1.0000
  H   H6        1.0  0.77454  0.014460000000000141  0.54605  1.0000
  C   C31       1.0  0.16984  0.9494300000000001  0.49667  1.0000
  C   C32       1.0  0.13504  0.9085099999999999  0.49244  1.0000
  N   N3        1.0  0.13079  0.81696  0.39198  1.0000
  C   C33       1.0  0.15966  0.7622800000000002  0.29273  1.0000
  C   C34       1.0  0.19561  0.7989400000000001  0.28963000000000005  1.0000
  C   C35       1.0  0.22371000000000002  0.74924  0.13022  1.0000
  F   F9        1.0  0.21608000000000002  0.64988  0.08790000000000003  1.0000
  F   F10       1.0  0.21788999999999997  0.7912  0.95055  1.0000
  C   C36       1.0  0.26582  0.74864  0.18958  1.0000
  F   F11       1.0  0.27137  0.7078400000000002  0.36989  1.0000
  F   F12       1.0  0.28473  0.68911  0.035  1.0000
  C   C37       1.0  0.2002  0.8930500000000002  0.39874  1.0000
  H   H7        1.0  0.11112000000000002  0.9500500000000002  0.56557  1.0000
  H   H8        1.0  0.15401  0.69215  0.20647000000000004  1.0000
  H   H9        1.0  0.22619999999999998  0.9269000000000002  0.3967400000000001  1.0000
  C   C38       1.0  0.8112600000000001  0.55977  0.74054  1.0000
  C   C39       1.0  0.82424  0.4689000000000001  0.6336700000000001  1.0000
  N   N4        1.0  0.8005  0.39597000000000004  0.58482  1.0000
  C   C40       1.0  0.76364  0.40815  0.63311  1.0000
  C   C41       1.0  0.74896  0.4980500000000001  0.73748  1.0000
  C   C42       1.0  0.70749  0.5126800000000001  0.7822500000000002  1.0000
  F   F13       1.0  0.69806  0.6118100000000002  0.8460400000000001  1.0000
  F   F14       1.0  0.6887700000000001  0.49055  0.59932  1.0000
  C   C43       1.0  0.69564  0.4506700000000001  0.9507700000000001  1.0000
  F   F15       1.0  0.6814800000000001  0.5153500000000001  0.11507  1.0000
  F   F16       1.0  0.72629  0.3981800000000001  0.02526000000000006  1.0000
  C   C44       1.0  0.77333  0.57364  0.79329  1.0000
  H   H10       1.0  0.85325  0.4548900000000001  0.59024  1.0000
  H   H11       1.0  0.7457399999999998  0.3480900000000001  0.59059  1.0000
  H   H12       1.0  0.76286  0.64415  0.8724600000000001  1.0000
  C   C45       1.0  0.45096  0.59916  0.45073  1.0000
  C   C46       1.0  0.43532000000000004  0.5397300000000002  0.57994  1.0000
  N   N5        1.0  0.45696000000000003  0.49941  0.7226100000000001  1.0000
  C   C47       1.0  0.49413  0.5129900000000001  0.74121  1.0000
  C   C48       1.0  0.51165  0.5678300000000001  0.60855  1.0000
  C   C49       1.0  0.55333  0.58307  0.62805  1.0000
  F   F17       1.0  0.56415  0.63929  0.48284  1.0000
  F   F18       1.0  0.5599  0.63526  0.81696  1.0000
  C   C50       1.0  0.57859  0.48585  0.60519  1.0000
  F   F19       1.0  0.61516  0.5114500000000001  0.61773  1.0000
  F   F20       1.0  0.57272  0.43339  0.76605  1.0000
  C   C51       1.0  0.48916000000000004  0.61299  0.46518000000000004  1.0000
  H   H13       1.0  0.40581  0.52784  0.57162  1.0000
  H   H14       1.0  0.5095800000000001  0.48269000000000006  0.8626400000000001  1.0000
  H   H15       1.0  0.50131  0.65713  0.36226  1.0000
  C   C52       1.0  0.97341  0.9554700000000003  0.21810000000000002  1.0000
  C   C53       1.0  0.99933  0.9112200000000003  0.34579  1.0000
  N   N6        1.0  0.024979999999999992  0.9659000000000002  0.4535  1.0000
  C   C54       1.0  0.02625  0.0643800000000001  0.4449500000000001  1.0000
  C   C55       1.0  0.0007700000000000015  0.11266  0.32154  1.0000
  C   C56       1.0  0.9985800000000001  0.22393000000000005  0.32883  1.0000
  F   F21       1.0  0.96151  0.2575  0.30843  1.0000
  F   F22       1.0  0.010640000000000002  0.26763  0.51774  1.0000
  C   C57       1.0  0.02073  0.25814  0.15521000000000001  1.0000
  F   F23       1.0  0.009280000000000002  0.35564  0.13951  1.0000
  F   F24       1.0  0.0117  0.20262000000000005  0.9727000000000001  1.0000
  C   C58       1.0  0.97465  0.05642999999999998  0.2045  1.0000
  H   H16       1.0  0.9993099999999999  0.83303  0.35823  1.0000
  H   H17       1.0  0.04684999999999999  0.10452000000000018  0.53626  1.0000
  H   H18       1.0  0.95424  0.09181  0.11032  1.0000
  C   C59       1.0  0.51221  0.14012000000000002  0.9625900000000001  1.0000
  C   C60       1.0  0.50289  0.16277000000000005  0.16883000000000006  1.0000
  N   N7        1.0  0.49026  0.0925  0.27295  1.0000
  C   C61       1.0  0.48423000000000005  0.00032000000000009733  0.18025000000000002  1.0000
  C   C62       1.0  0.48988  0.9753600000000002  0.96841  1.0000
  C   C63       1.0  0.48486  0.8707900000000003  0.86148  1.0000
  F   F25       1.0  0.48512  0.8700800000000002  0.65166  1.0000
  F   F26       1.0  0.51514  0.8106700000000002  0.9132200000000001  1.0000
  C   C64       1.0  0.44866  0.8250000000000002  0.91858  1.0000
  F   F27       1.0  0.4457900000000001  0.7356100000000001  0.79958  1.0000
  F   F28       1.0  0.4506800000000001  0.80616  0.11731  1.0000
  C   C65       1.0  0.50438  0.047050000000000036  0.86088  1.0000
  H   H19       1.0  0.50867  0.23408000000000007  0.25268  1.0000
  H   H20       1.0  0.4753  0.9474700000000003  0.27391  1.0000
  H   H21       1.0  0.51087  0.029320000000000013  0.70027  1.0000
  C   C66       1.0  0.09302  0.48715000000000014  0.76241  1.0000
  C   C67       1.0  0.11294  0.53537  0.9243600000000001  1.0000
  N   N8        1.0  0.09444  0.5870300000000002  0.08587999999999996  1.0000
  C   C68       1.0  0.0565500000000001  0.5929200000000001  0.09641999999999995  1.0000
  C   C69       1.0  0.035069999999999935  0.5458500000000001  0.9371800000000001  1.0000
  C   C70       1.0  0.99292  0.5471600000000001  0.9537500000000001  1.0000
  F   F29       1.0  0.97955  0.4643200000000001  0.8388  1.0000
  F   F30       1.0  0.9839300000000001  0.5429600000000001  0.15500000000000003  1.0000
  C   C71       1.0  0.9724100000000001  0.6406  0.8883800000000002  1.0000
  F   F31       1.0  0.9361400000000001  0.6443700000000002  0.95776  1.0000
  F   F32       1.0  0.9894499999999999  0.7233800000000002  0.9787200000000003  1.0000
  C   C72       1.0  0.05403000000000003  0.49163  0.77049  1.0000
  H   H22       1.0  0.14312  0.53324  0.92126  1.0000
  H   H23       1.0  0.042990000000000084  0.6343  0.22877999999999998  1.0000
  H   H24       1.0  0.03862999999999995  0.4515000000000001  0.64847  1.0000
