data_image0
_chemical_formula_structural       EuOCO6COC2EuOCO6COC2EuOCO6COC2EuOCO6COC11F2CF2CFCFH10C9F2CF2CFCFH10C9F2CF2CFCFH10C9F2CF2CFCFH10C9F2CF2CFCFH10C9F2CF2CFCFH10C9F2CF2CFCFH10C9F2CF2CFCFH10
_chemical_formula_sum              "Eu4 O32 C112 F48 H80"
_cell_length_a       35.4761
_cell_length_b       18.3815
_cell_length_c       9.624400000000001
_cell_angle_alpha    86.6165
_cell_angle_beta     87.80619999999999
_cell_angle_gamma    89.6062

_symmetry_space_group_name_H-M    'P 1'
_symmetry_Int_Tables_number       1

loop_
  _symmetry_equiv_pos_as_xyz
  'x,y,z'

loop_
  _atom_site_type_symbol
  _atom_site_label
  _atom_site_symmetry_multiplicity
  _atom_site_fract_x
  _atom_site_fract_y
  _atom_site_fract_z
  _atom_site_occupancy
  Eu  Eu1       1.0  0.3787  0.74564  0.26875  1.0000
  O   O1        1.0  0.32766  0.90923  0.29500000000000004  1.0000
  C   C1        1.0  0.3535100000000001  0.60252  0.16409  1.0000
  O   O2        1.0  0.45457000000000003  0.9162  0.1291  1.0000
  O   O3        1.0  0.42178  0.83667  0.27186  1.0000
  O   O4        1.0  0.44933000000000006  0.6533699999999999  0.30965  1.0000
  O   O5        1.0  0.38535  0.61325  0.11498  1.0000
  O   O6        1.0  0.33764  0.65192  0.25481  1.0000
  O   O7        1.0  0.33894  0.80389  0.41947  1.0000
  C   C2        1.0  0.3409500000000001  0.87956  0.39901  1.0000
  O   O8        1.0  0.40333  0.68814  0.46099  1.0000
  C   C3        1.0  0.43491000000000013  0.64671  0.42701  1.0000
  C   C4        1.0  0.42723  0.8763499999999999  0.14444  1.0000
  Eu  Eu2       1.0  0.89211  0.71517  0.79167  1.0000
  O   O9        1.0  0.82611  0.81141  0.71122  1.0000
  C   C5        1.0  0.8451800000000003  0.57989  0.75029  1.0000
  O   O10       1.0  0.90703  0.8755599999999999  0.8474100000000001  1.0000
  O   O11       1.0  0.9444200000000001  0.77535  0.8532200000000001  1.0000
  O   O12       1.0  0.98515  0.65285  0.73835  1.0000
  O   O13       1.0  0.87395  0.55606  0.80224  1.0000
  O   O14       1.0  0.8400100000000003  0.65479  0.7301500000000001  1.0000
  O   O15       1.0  0.8842600000000003  0.79899  0.61044  1.0000
  C   C6        1.0  0.84833  0.8298  0.61571  1.0000
  O   O16       1.0  0.92806  0.64811  0.6438100000000001  1.0000
  C   C7        1.0  0.9654800000000001  0.67044  0.6404200000000001  1.0000
  C   C8        1.0  0.93897  0.85049  0.84369  1.0000
  Eu  Eu3       1.0  0.13645  0.27944  0.29403  1.0000
  O   O17       1.0  0.17261000000000007  0.17618  0.08927  1.0000
  C   C9        1.0  0.18891000000000005  0.38869  0.12321000000000001  1.0000
  O   O18       1.0  0.04906  0.30148  0.09004  1.0000
  O   O19       1.0  0.1059  0.2464  0.10126  1.0000
  O   O20       1.0  0.06562  0.35914  0.34214  1.0000
  O   O21       1.0  0.21562  0.41465  0.053810000000000004  1.0000
  O   O22       1.0  0.18852  0.31388  0.15887  1.0000
  O   O23       1.0  0.1587  0.16229  0.32131  1.0000
  C   C10       1.0  0.17238  0.13637  0.19523  1.0000
  O   O24       1.0  0.08573000000000003  0.25314  0.44201  1.0000
  C   C11       1.0  0.06278  0.31485  0.44156  1.0000
  C   C12       1.0  0.06675  0.24562  0.11804000000000002  1.0000
  Eu  Eu4       1.0  0.61131  0.2600799999999999  0.74763  1.0000
  O   O25       1.0  0.6457  0.16745  0.9879800000000001  1.0000
  C   C13       1.0  0.66394  0.387  0.7894  1.0000
  O   O26       1.0  0.55897  0.22847999999999996  0.99501  1.0000
  O   O27       1.0  0.57779  0.15863  0.81992  1.0000
  O   O28       1.0  0.50242  0.33038  0.6227900000000001  1.0000
  O   O29       1.0  0.6968400000000002  0.40570999999999996  0.77402  1.0000
  O   O30       1.0  0.64614  0.3599  0.67696  1.0000
  O   O31       1.0  0.66643  0.19646000000000002  0.76703  1.0000
  C   C14       1.0  0.67259  0.17462  0.90551  1.0000
  O   O32       1.0  0.55689  0.32674999999999993  0.73563  1.0000
  C   C15       1.0  0.53543  0.31114  0.62294  1.0000
  C   C16       1.0  0.56098  0.1677  0.95076  1.0000
  C   C17       1.0  0.33235  0.53646  0.12478000000000002  1.0000
  C   C18       1.0  0.2917  0.53567  0.18  1.0000
  C   C19       1.0  0.26463  0.58795  0.1319  1.0000
  C   C20       1.0  0.27504  0.64537  0.01698  1.0000
  C   C21       1.0  0.22731  0.58635  0.19289000000000003  1.0000
  C   C22       1.0  0.19931  0.64712  0.15830000000000002  1.0000
  C   C23       1.0  0.21663000000000004  0.52857  0.29163  1.0000
  C   C24       1.0  0.17683000000000001  0.52148  0.35611  1.0000
  C   C25       1.0  0.15465  0.45316  0.3197400000000001  1.0000
  F   F1        1.0  0.16647  0.39303  0.40037  1.0000
  F   F2        1.0  0.11741  0.46599  0.35898  1.0000
  C   C26       1.0  0.15590000000000007  0.43633  0.16325  1.0000
  F   F3        1.0  0.15664000000000006  0.50041  0.08042  1.0000
  F   F4        1.0  0.12335000000000002  0.40008  0.13418  1.0000
  C   C27       1.0  0.24408000000000002  0.47835  0.33754  1.0000
  F   F5        1.0  0.23557000000000003  0.42638  0.4396900000000001  1.0000
  C   C28       1.0  0.28087  0.48186  0.28304  1.0000
  F   F6        1.0  0.3062100000000001  0.43199  0.3326100000000001  1.0000
  H   H1        1.0  0.33297000000000004  0.5335  0.009780000000000002  1.0000
  H   H2        1.0  0.3481700000000001  0.48758999999999997  0.16389  1.0000
  H   H3        1.0  0.25474  0.6438  0.9322  1.0000
  H   H4        1.0  0.30323  0.63818  0.96693  1.0000
  H   H5        1.0  0.2746  0.70021  0.05962  1.0000
  H   H6        1.0  0.19055000000000002  0.67367  0.2551300000000001  1.0000
  H   H7        1.0  0.21041  0.69111  0.08526  1.0000
  H   H8        1.0  0.17416  0.62526  0.11067  1.0000
  H   H9        1.0  0.1787  0.52103  0.47124  1.0000
  H   H10       1.0  0.15917  0.56971  0.32926  1.0000
  C   C29       1.0  0.8369400000000002  0.8839  0.50165  1.0000
  C   C30       1.0  0.81101  0.94211  0.55787  1.0000
  C   C31       1.0  0.77127  0.94088  0.54402  1.0000
  C   C32       1.0  0.75417  0.88236  0.46097000000000005  1.0000
  C   C33       1.0  0.74827  0.9942500000000001  0.6087  1.0000
  C   C34       1.0  0.70567  0.9880299999999999  0.60708  1.0000
  C   C35       1.0  0.7657500000000003  0.051309999999999995  0.67668  1.0000
  C   C36       1.0  0.74379  0.11430999999999997  0.7358300000000001  1.0000
  C   C37       1.0  0.7329600000000002  0.09929  0.89189  1.0000
  F   F7        1.0  0.71061  0.03771000000000001  0.91073  1.0000
  F   F8        1.0  0.76565  0.08618999999999999  0.9639700000000001  1.0000
  C   C38       1.0  0.71213  0.16407  0.9557000000000001  1.0000
  F   F9        1.0  0.73212  0.22782  0.92487  1.0000
  F   F10       1.0  0.71047  0.15165  0.09933999999999998  1.0000
  C   C39       1.0  0.80512  0.05123  0.68717  1.0000
  F   F11       1.0  0.82242  0.10417999999999998  0.75382  1.0000
  C   C40       1.0  0.82723  0.99683  0.63121  1.0000
  F   F12       1.0  0.8650600000000003  0.99775  0.64808  1.0000
  H   H11       1.0  0.8242  0.85378  0.41922000000000004  1.0000
  H   H12       1.0  0.8625600000000002  0.9100099999999999  0.45139  1.0000
  H   H13       1.0  0.72308  0.8839500000000001  0.45766  1.0000
  H   H14       1.0  0.76192  0.82746  0.50558  1.0000
  H   H15       1.0  0.76487  0.8887799999999999  0.35105  1.0000
  H   H16       1.0  0.68995  0.02573  0.67325  1.0000
  H   H17       1.0  0.69617  0.9978000000000001  0.49903  1.0000
  H   H18       1.0  0.69704  0.9327300000000001  0.64844  1.0000
  H   H19       1.0  0.7612000000000001  0.16454  0.72268  1.0000
  H   H20       1.0  0.71898  0.12752  0.67299  1.0000
  C   C41       1.0  0.18718  0.05982  0.18854  1.0000
  C   C42       1.0  0.22068  0.04701  0.28095  1.0000
  C   C43       1.0  0.22085000000000002  0.9928799999999999  0.39276  1.0000
  C   C44       1.0  0.18586  0.9466900000000001  0.4242  1.0000
  C   C45       1.0  0.25361  0.9834399999999999  0.47412  1.0000
  C   C46       1.0  0.25471000000000005  0.92155  0.58504  1.0000
  C   C47       1.0  0.28473  0.03180999999999999  0.4483400000000001  1.0000
  C   C48       1.0  0.31758  0.03548  0.5451  1.0000
  C   C49       1.0  0.35577  0.00662000000000007  0.4860900000000001  1.0000
  F   F13       1.0  0.36169  0.03004999999999991  0.34781  1.0000
  F   F14       1.0  0.38384  0.03807000000000005  0.55807  1.0000
  C   C50       1.0  0.36077  0.9226399999999999  0.50382  1.0000
  F   F15       1.0  0.3489200000000001  0.89787  0.6366600000000001  1.0000
  F   F16       1.0  0.39888  0.90713  0.49083  1.0000
  C   C51       1.0  0.2834600000000001  0.08477  0.33714  1.0000
  F   F17       1.0  0.31181  0.13376  0.31307  1.0000
  C   C52       1.0  0.25271  0.09042  0.25229  1.0000
  F   F18       1.0  0.2536  0.14122  0.14378  1.0000
  H   H21       1.0  0.16331  0.022500000000000003  0.21468  1.0000
  H   H22       1.0  0.19644  0.04976  0.07956  1.0000
  H   H23       1.0  0.18751000000000004  0.90811  0.51623  1.0000
  H   H24       1.0  0.18033000000000005  0.9140200000000002  0.33378  1.0000
  H   H25       1.0  0.16128000000000006  0.98262  0.44565  1.0000
  H   H26       1.0  0.28229  0.91254  0.6309700000000001  1.0000
  H   H27       1.0  0.23392  0.93174  0.67087  1.0000
  H   H28       1.0  0.24828000000000003  0.86939  0.53864  1.0000
  H   H29       1.0  0.32139  0.09388  0.56564  1.0000
  H   H30       1.0  0.3111  0.010999999999999677  0.65096  1.0000
  C   C53       1.0  0.81566  0.52872  0.7074600000000001  1.0000
  C   C54       1.0  0.77959  0.53601  0.79522  1.0000
  C   C55       1.0  0.74623  0.56941  0.74347  1.0000
  C   C56       1.0  0.74772  0.6174  0.60971  1.0000
  C   C57       1.0  0.71135  0.55913  0.82129  1.0000
  C   C58       1.0  0.67449  0.58841  0.76497  1.0000
  C   C59       1.0  0.71111  0.51992  0.9534900000000001  1.0000
  C   C60       1.0  0.67496  0.50057  0.03775000000000018  1.0000
  C   C61       1.0  0.66551  0.41773999999999994  0.04854000000000003  1.0000
  F   F19       1.0  0.6978000000000001  0.37537  0.060920000000000085  1.0000
  F   F20       1.0  0.64384  0.40468  0.17022000000000004  1.0000
  C   C62       1.0  0.64251  0.39116  0.9276  1.0000
  F   F21       1.0  0.6112800000000003  0.43563999999999997  0.9082900000000002  1.0000
  F   F22       1.0  0.62958  0.32194999999999996  0.9671000000000001  1.0000
  C   C63       1.0  0.7455500000000003  0.49814  0.010340000000000018  1.0000
  F   F23       1.0  0.7466200000000002  0.46808999999999995  0.14252  1.0000
  C   C64       1.0  0.77901  0.50418  0.9312200000000002  1.0000
  F   F24       1.0  0.8111400000000001  0.47663000000000005  0.98655  1.0000
  H   H31       1.0  0.81135  0.53755  0.59437  1.0000
  H   H32       1.0  0.82608  0.47158  0.72058  1.0000
  H   H33       1.0  0.7328900000000002  0.66974  0.62627  1.0000
  H   H34       1.0  0.73436  0.5891699999999999  0.52555  1.0000
  H   H35       1.0  0.77665  0.63364  0.57445  1.0000
  H   H36       1.0  0.65377  0.54371  0.7621700000000001  1.0000
  H   H37       1.0  0.66299  0.63075  0.83276  1.0000
  H   H38       1.0  0.6768900000000002  0.61285  0.65734  1.0000
  H   H39       1.0  0.6785100000000001  0.51871  0.14464000000000002  1.0000
  H   H40       1.0  0.6501800000000001  0.53196  0.0009300000000000974  1.0000
  C   C65       1.0  0.45022  0.5936  0.53611  1.0000
  C   C66       1.0  0.47673  0.53732  0.47515  1.0000
  C   C67       1.0  0.5158  0.5336  0.50234  1.0000
  C   C68       1.0  0.53282  0.59229  0.58485  1.0000
  C   C69       1.0  0.53826  0.47531  0.45117000000000007  1.0000
  C   C70       1.0  0.57893  0.46771999999999997  0.49353  1.0000
  C   C71       1.0  0.52166  0.42445000000000005  0.36506  1.0000
  C   C72       1.0  0.5435800000000001  0.36317  0.2978  1.0000
  C   C73       1.0  0.53498  0.28566  0.36362  1.0000
  F   F25       1.0  0.49648000000000003  0.27331  0.37289  1.0000
  F   F26       1.0  0.5504  0.23654  0.27396  1.0000
  C   C74       1.0  0.55215  0.26792  0.50703  1.0000
  F   F27       1.0  0.5907  0.27893  0.49507  1.0000
  F   F28       1.0  0.54608  0.1949  0.5438000000000001  1.0000
  C   C75       1.0  0.48343  0.4327899999999999  0.33343  1.0000
  F   F29       1.0  0.46724  0.38827  0.24525  1.0000
  C   C76       1.0  0.46125000000000005  0.48675999999999997  0.3904  1.0000
  F   F30       1.0  0.42412  0.49049  0.36071  1.0000
  H   H41       1.0  0.46298000000000006  0.62509  0.61668  1.0000
  H   H42       1.0  0.42605  0.56416  0.59006  1.0000
  H   H43       1.0  0.56394  0.59073  0.5873  1.0000
  H   H44       1.0  0.5215800000000002  0.58734  0.6942  1.0000
  H   H45       1.0  0.5256  0.6468799999999999  0.5372900000000002  1.0000
  H   H46       1.0  0.59252  0.4156  0.47065  1.0000
  H   H47       1.0  0.5961  0.51232  0.4410700000000001  1.0000
  H   H48       1.0  0.58026  0.47017  0.60825  1.0000
  H   H49       1.0  0.53597  0.36415  0.18661000000000003  1.0000
  H   H50       1.0  0.57434  0.37233  0.28974  1.0000
  C   C77       1.0  0.9723900000000001  0.8999699999999999  0.82123  1.0000
  C   C78       1.0  0.9753100000000001  0.9512800000000001  0.93798  1.0000
  C   C79       1.0  0.9987  0.9360600000000001  0.05261999999999989  1.0000
  C   C80       1.0  0.01809  0.8622500000000001  0.06726000000000011  1.0000
  C   C81       1.0  0.0033900000000000046  0.9898999999999999  0.15171  1.0000
  C   C82       1.0  0.03137  0.9755699999999999  0.26559  1.0000
  C   C83       1.0  0.9820700000000001  0.05609  0.14013  1.0000
  C   C84       1.0  0.9831  0.11503  0.24504000000000004  1.0000
  C   C85       1.0  0.00396  0.18531999999999998  0.19011000000000003  1.0000
  F   F31       1.0  0.98793  0.21318  0.06909  1.0000
  F   F32       1.0  0.9986500000000001  0.23602000000000004  0.28983  1.0000
  C   C86       1.0  0.04688  0.17491  0.16224  1.0000
  F   F33       1.0  0.06305  0.14616  0.28195  1.0000
  F   F34       1.0  0.053120000000000014  0.12708  0.05785  1.0000
  C   C87       1.0  0.9568400000000001  0.06642  0.03135  1.0000
  F   F35       1.0  0.93384  0.12577  0.0234  1.0000
  C   C88       1.0  0.95437  0.016099999999999996  0.9301700000000002  1.0000
  F   F36       1.0  0.93085  0.030550000000000004  0.82382  1.0000
  H   H51       1.0  0.9984300000000002  0.8669499999999999  0.80855  1.0000
  H   H52       1.0  0.96985  0.93165  0.72003  1.0000
  H   H53       1.0  0.03019  0.85024  0.17011000000000004  1.0000
  H   H54       1.0  0.04123999999999999  0.85895  0.98695  1.0000
  H   H55       1.0  0.99736  0.8183  0.055  1.0000
  H   H56       1.0  0.03893  0.023700000000000002  0.32072  1.0000
  H   H57       1.0  0.01987  0.9338399999999998  0.34370000000000006  1.0000
  H   H58       1.0  0.05857  0.95621  0.21994  1.0000
  H   H59       1.0  0.95346  0.13025  0.27255  1.0000
  H   H60       1.0  0.99395  0.09551999999999998  0.34680000000000005  1.0000
  C   C89       1.0  0.54721  0.10271  0.03946000000000001  1.0000
  C   C90       1.0  0.51236  0.07087999999999998  0.9804800000000001  1.0000
  C   C91       1.0  0.51371  0.00921  0.89807  1.0000
  C   C92       1.0  0.55179  0.9742500000000001  0.8659000000000001  1.0000
  C   C93       1.0  0.4794900000000001  0.9811299999999998  0.84848  1.0000
  C   C94       1.0  0.4819  0.91694  0.75608  1.0000
  C   C95       1.0  0.4442400000000001  0.013709999999999996  0.88858  1.0000
  C   C96       1.0  0.40577  0.9853499999999998  0.8526  1.0000
  C   C97       1.0  0.3834900000000001  0.9446899999999999  0.9748000000000001  1.0000
  F   F37       1.0  0.3788100000000001  0.9892799999999999  0.08505  1.0000
  F   F38       1.0  0.3478  0.93223  0.9277500000000001  1.0000
  C   C98       1.0  0.40052  0.87014  0.026440000000000005  1.0000
  F   F39       1.0  0.41923  0.83708  0.9183500000000001  1.0000
  F   F40       1.0  0.37098  0.82514  0.07188  1.0000
  C   C99       1.0  0.4443599999999999  0.07649999999999998  0.96524  1.0000
  F   F41       1.0  0.41165000000000007  0.11174  0.9971400000000001  1.0000
  C   C100      1.0  0.47769000000000006  0.10441  0.01012  1.0000
  F   F42       1.0  0.47601  0.16439  0.08617  1.0000
  H   H61       1.0  0.57062  0.06286  0.04980999999999992  1.0000
  H   H62       1.0  0.54049  0.11836000000000002  0.14747  1.0000
  H   H63       1.0  0.55119  0.9290999999999999  0.79529  1.0000
  H   H64       1.0  0.5638700000000001  0.95136  0.96389  1.0000
  H   H65       1.0  0.57132  0.015539999999999995  0.8154600000000001  1.0000
  H   H66       1.0  0.45523  0.89845  0.71647  1.0000
  H   H67       1.0  0.4999200000000001  0.9316999999999999  0.66188  1.0000
  H   H68       1.0  0.49424  0.86919  0.81449  1.0000
  H   H69       1.0  0.3884200000000001  0.03312  0.8178900000000001  1.0000
  H   H70       1.0  0.40633000000000014  0.9520799999999999  0.7614000000000002  1.0000
  C   C101      1.0  0.03597  0.32884  0.56325  1.0000
  C   C102      1.0  0.024159999999999997  0.40879  0.55699  1.0000
  C   C103      1.0  0.9890200000000001  0.4334  0.50565  1.0000
  C   C104      1.0  0.95789  0.3783  0.49251  1.0000
  C   C105      1.0  0.98432  0.50859  0.46258000000000005  1.0000
  C   C106      1.0  0.94665  0.53508  0.40956  1.0000
  C   C107      1.0  0.015670000000000003  0.55676  0.46511  1.0000
  C   C108      1.0  0.01805  0.62888  0.37835  1.0000
  C   C109      1.0  0.018829999999999906  0.69859  0.46099  1.0000
  F   F43       1.0  0.044590000000000005  0.69199  0.56542  1.0000
  F   F44       1.0  0.031260000000000066  0.75476  0.3689  1.0000
  C   C110      1.0  0.9802300000000003  0.72168  0.5233  1.0000
  F   F45       1.0  0.95422  0.7283099999999999  0.41958  1.0000
  F   F46       1.0  0.9841400000000001  0.78965  0.5754900000000001  1.0000
  C   C111      1.0  0.04856  0.53177  0.5301  1.0000
  F   F47       1.0  0.07945000000000003  0.57488  0.53132  1.0000
  C   C112      1.0  0.05213000000000001  0.45974  0.5795  1.0000
  F   F48       1.0  0.08539  0.43742999999999993  0.63362  1.0000
  H   H71       1.0  0.01196  0.29065  0.56322  1.0000
  H   H72       1.0  0.050530000000000005  0.31582  0.66184  1.0000
  H   H73       1.0  0.9307900000000001  0.40178  0.45844000000000007  1.0000
  H   H74       1.0  0.95204  0.34871  0.59495  1.0000
  H   H75       1.0  0.9668100000000001  0.33894  0.41472  1.0000
  H   H76       1.0  0.94464  0.59468  0.3911  1.0000
  H   H77       1.0  0.9408600000000001  0.50955  0.31086  1.0000
  H   H78       1.0  0.92394  0.52088  0.48891  1.0000
  H   H79       1.0  0.04479000000000001  0.6273499999999999  0.3142400000000001  1.0000
  H   H80       1.0  0.9963800000000002  0.63423  0.29855000000000004  1.0000
