data_image0
_chemical_formula_structural       EuOCO6COC2EuOCO6COC2EuOCO6COC2EuOCO6COC4FCFC2F2CF2CFCFHC2FCFC2F2CF2CFCFHC2FCFC2F2CF2CFCFHC2FCFC2F2CF2CFCFHC2FCFC2F2CF2CFCFHC2FCFC2F2CF2CFCFHC2FCFC2F2CF2CFCFHC2FCFC2F2CF2CFCFH
_chemical_formula_sum              "Eu4 O32 C80 F64 H8"
_cell_length_a       28.2316
_cell_length_b       13.726999999999999
_cell_length_c       18.2474
_cell_angle_alpha    35.904799999999994
_cell_angle_beta     85.7595
_cell_angle_gamma    105.4023

_space_group_name_H-M_alt    "P 1"
_space_group_IT_number       1

loop_
  _space_group_symop_operation_xyz
  'x, y, z'

loop_
  _atom_site_type_symbol
  _atom_site_label
  _atom_site_symmetry_multiplicity
  _atom_site_fract_x
  _atom_site_fract_y
  _atom_site_fract_z
  _atom_site_occupancy
  Eu  Eu1       1.0  0.6609399999999999  0.9394999999999999  0.79024  1.0000
  O   O1        1.0  0.82379  0.42906000000000016  0.3977599999999999  1.0000
  C   C1        1.0  0.57134  0.8918300000000001  0.70902  1.0000
  O   O2        1.0  0.63085  0.45185999999999993  0.006420000000000092  1.0000
  O   O3        1.0  0.66641  0.78619  0.78066  1.0000
  O   O4        1.0  0.65552  0.10666000000000042  0.7950599999999998  1.0000
  O   O5        1.0  0.6071300000000002  0.9089100000000002  0.6521199999999999  1.0000
  O   O6        1.0  0.58637  0.95235  0.74373  1.0000
  O   O7        1.0  0.72876  0.2418400000000003  0.5497199999999998  1.0000
  C   C2        1.0  0.78541  0.2954500000000001  0.5207599999999999  1.0000
  O   O8        1.0  0.66292  0.11336999999999996  0.78686  1.0000
  C   C3        1.0  0.6096100000000001  0.06723000000000028  0.8461199999999998  1.0000
  C   C4        1.0  0.6723600000000001  0.6228900000000003  0.8883999999999997  1.0000
  Eu  Eu2       1.0  0.08663000000000004  0.2824900000000004  0.5830399999999998  1.0000
  O   O9        1.0  0.95495  0.005539999999999981  0.75725  1.0000
  C   C5        1.0  0.08385000000000004  0.4965200000000001  0.6058899999999999  1.0000
  O   O10       1.0  0.17353000000000002  0.27748000000000017  0.6001499999999999  1.0000
  O   O11       1.0  0.16904000000000002  0.2864500000000001  0.60313  1.0000
  O   O12       1.0  0.13567  0.50271  0.31233  1.0000
  O   O13       1.0  0.13589  0.60397  0.54114  1.0000
  O   O14       1.0  0.05921  0.31459  0.68242  1.0000
  O   O15       1.0  0.01707999999999998  0.3211399999999999  0.52159  1.0000
  C   C6        1.0  0.9646100000000001  0.13846999999999995  0.6337  1.0000
  O   O16       1.0  0.08943000000000001  0.16691000000000003  0.5413099999999998  1.0000
  C   C7        1.0  0.12609  0.34371000000000007  0.38925999999999994  1.0000
  C   C8        1.0  0.18945  0.22898999999999994  0.57522  1.0000
  Eu  Eu3       1.0  0.33232  0.06283000000000002  0.21118  1.0000
  O   O17       1.0  0.26904  0.9643100000000001  0.41858999999999996  1.0000
  C   C9        1.0  0.37577  0.9003599999999998  0.44843999999999995  1.0000
  O   O18       1.0  0.20874  0.99228  0.24717  1.0000
  O   O19       1.0  0.29551000000000005  0.19831  0.058919999999999986  1.0000
  O   O20       1.0  0.39608  0.9514200000000002  0.20050999999999994  1.0000
  O   O21       1.0  0.33884  0.87696  0.50854  1.0000
  O   O22       1.0  0.37631000000000003  0.9430000000000001  0.34729  1.0000
  O   O23       1.0  0.34227  0.2782000000000001  0.16602  1.0000
  C   C10       1.0  0.29713000000000006  0.15266000000000002  0.29997  1.0000
  O   O24       1.0  0.41691  0.26189  0.01852  1.0000
  C   C11       1.0  0.42441  0.12223999999999999  0.07014  1.0000
  C   C12       1.0  0.24186  0.14653000000000002  0.11636999999999999  1.0000
  Eu  Eu4       1.0  0.014269999999999998  0.78891  0.92382  1.0000
  O   O25       1.0  0.9017000000000002  0.63285  0.93519  1.0000
  C   C13       1.0  0.98916  0.6105300000000001  0.86079  1.0000
  O   O26       1.0  0.03677000000000001  0.9374800000000001  0.9501899999999999  1.0000
  O   O27       1.0  0.03209999999999998  0.9456999999999999  0.94023  1.0000
  O   O28       1.0  0.07172  0.55022  0.20376  1.0000
  O   O29       1.0  0.9855700000000002  0.7426600000000002  0.7561399999999998  1.0000
  O   O30       1.0  0.012120000000000051  0.6213000000000002  0.9210599999999999  1.0000
  O   O31       1.0  0.91701  0.60035  0.07269999999999999  1.0000
  C   C14       1.0  0.88174  0.5741500000000004  0.034009999999999874  1.0000
  O   O32       1.0  0.005710000000000014  0.5473200000000001  0.14345  1.0000
  C   C15       1.0  0.059619999999999986  0.5838599999999999  0.1253  1.0000
  C   C16       1.0  0.07002999999999997  0.9255399999999999  0.99214  1.0000
  C   C17       1.0  0.59979  0.8694  0.1525700000000001  1.0000
  C   C18       1.0  0.5519700000000001  0.8326600000000001  0.21090999999999993  1.0000
  F   F1        1.0  0.516  0.6497999999999999  0.35675  1.0000
  C   C19       1.0  0.5411700000000002  0.9912  0.12726999999999997  1.0000
  F   F2        1.0  0.51752  0.9836900000000002  0.20003  1.0000
  C   C20       1.0  0.54515  0.11686000000000009  0.99739  1.0000
  C   C21       1.0  0.52542  0.25798000000000004  0.92899  1.0000
  F   F3        1.0  0.55802  0.4319400000000001  0.7790199999999998  1.0000
  F   F4        1.0  0.53497  0.3134200000000002  0.9671299999999999  1.0000
  C   C22       1.0  0.4611300000000001  0.1613500000000003  0.9764399999999999  1.0000
  F   F5        1.0  0.43873  0.97538  0.06116  1.0000
  F   F6        1.0  0.4533400000000001  0.27146  0.85943  1.0000
  C   C23       1.0  0.5544500000000002  0.08205999999999994  0.94064  1.0000
  F   F7        1.0  0.50794  0.9507999999999999  0.98443  1.0000
  C   C24       1.0  0.60572  0.15085000000000007  0.86513  1.0000
  F   F8        1.0  0.65284  0.2495100000000002  0.8429699999999998  1.0000
  H   H1        1.0  0.60752  0.75257  0.21846999999999994  1.0000
  C   C25       1.0  0.035520000000000024  0.08615000000000003  0.4072  1.0000
  C   C26       1.0  0.06634000000000007  0.13970999999999997  0.30986  1.0000
  F   F9        1.0  0.044000000000000046  0.021060000000000162  0.3243499999999999  1.0000
  C   C27       1.0  0.1217  0.33358000000000004  0.17964999999999995  1.0000
  F   F10       1.0  0.1382699999999999  0.41144  0.062009999999999996  1.0000
  C   C28       1.0  0.14379  0.46385000000000004  0.15400999999999995  1.0000
  C   C29       1.0  0.15770999999999996  0.6777799999999999  0.010099999999999996  1.0000
  F   F11       1.0  0.19635000000000005  0.7589700000000001  0.8988899999999999  1.0000
  F   F12       1.0  0.18021  0.78418  0.00747  1.0000
  C   C30       1.0  0.0988  0.64723  0.01759  1.0000
  F   F13       1.0  0.10965000000000003  0.8270700000000001  0.8799099999999999  1.0000
  F   F14       1.0  0.06559  0.48761  0.06872  1.0000
  C   C31       1.0  0.18096  0.4374799999999999  0.21272  1.0000
  F   F15       1.0  0.23767  0.54626  0.12232  1.0000
  C   C32       1.0  0.16441  0.3399  0.33687  1.0000
  F   F16       1.0  0.17785000000000006  0.2087000000000001  0.43192999999999987  1.0000
  H   H2        1.0  0.9946499999999999  0.9451099999999999  0.49892  1.0000
  C   C33       1.0  0.45742  0.61513  0.59539  1.0000
  C   C34       1.0  0.50666  0.7779999999999997  0.51176  1.0000
  F   F17       1.0  0.54989  0.8698400000000002  0.4017899999999999  1.0000
  C   C35       1.0  0.51858  0.8535200000000001  0.54065  1.0000
  F   F18       1.0  0.5722  0.9255  0.51498  1.0000
  C   C36       1.0  0.4829  0.8720800000000002  0.57718  1.0000
  C   C37       1.0  0.49954000000000004  0.9353900000000004  0.6175799999999998  1.0000
  F   F19       1.0  0.4557800000000001  0.9386200000000005  0.6540299999999998  1.0000
  F   F20       1.0  0.54745  0.1310099999999999  0.49474  1.0000
  C   C38       1.0  0.5097900000000001  0.7945200000000002  0.7495999999999998  1.0000
  F   F21       1.0  0.49473  0.6248700000000005  0.8157399999999998  1.0000
  F   F22       1.0  0.47540000000000016  0.7332300000000002  0.8527399999999999  1.0000
  C   C39       1.0  0.4296  0.84808  0.56831  1.0000
  F   F23       1.0  0.3813600000000001  0.7434200000000001  0.679  1.0000
  C   C40       1.0  0.42728  0.9195900000000001  0.45940999999999993  1.0000
  F   F24       1.0  0.4763600000000001  0.04683  0.33755  1.0000
  H   H3        1.0  0.42147999999999997  0.5258399999999999  0.69116  1.0000
  C   C41       1.0  0.12978000000000003  0.7342500000000001  0.75165  1.0000
  C   C42       1.0  0.08704000000000002  0.55402  0.84388  1.0000
  F   F25       1.0  0.06896000000000001  0.3893400000000001  0.98837  1.0000
  C   C43       1.0  0.07022999999999999  0.5213299999999998  0.7883  1.0000
  F   F26       1.0  0.11494  0.62347  0.67509  1.0000
  C   C44       1.0  0.01590000000000004  0.43701000000000023  0.8222699999999998  1.0000
  C   C45       1.0  0.9999300000000001  0.41015999999999997  0.75857  1.0000
  F   F27       1.0  0.95336  0.42513000000000006  0.7489  1.0000
  F   F28       1.0  0.98016  0.2145600000000001  0.86107  1.0000
  C   C46       1.0  0.04552000000000001  0.5594400000000002  0.60411  1.0000
  F   F29       1.0  0.07962000000000004  0.7530600000000001  0.50982  1.0000
  F   F30       1.0  0.01573000000000002  0.5733900000000001  0.54186  1.0000
  C   C47       1.0  0.9666099999999999  0.3258099999999998  0.94831  1.0000
  F   F31       1.0  0.9249200000000002  0.13007000000000024  0.054579999999999844  1.0000
  C   C48       1.0  0.95302  0.40395  0.95837  1.0000
  F   F32       1.0  0.90352  0.27201000000000003  0.08098000000000004  1.0000
  H   H4        1.0  0.14898000000000003  0.7593600000000003  0.7880399999999997  1.0000
  C   C49       1.0  0.67188  0.3484299999999999  0.2848900000000001  1.0000
  C   C50       1.0  0.6827400000000003  0.25335000000000035  0.2918499999999997  1.0000
  F   F33       1.0  0.68058  0.08424000000000018  0.41278999999999993  1.0000
  C   C51       1.0  0.69337  0.3243500000000001  0.17125999999999997  1.0000
  F   F34       1.0  0.65553  0.20239999999999997  0.19799999999999995  1.0000
  C   C52       1.0  0.7431200000000002  0.4926600000000003  0.042489999999999695  1.0000
  C   C53       1.0  0.79507  0.59834  0.023730000000000025  1.0000
  F   F35       1.0  0.78025  0.64765  0.060119999999999944  1.0000
  F   F36       1.0  0.8359099999999999  0.7775299999999998  0.87974  1.0000
  C   C54       1.0  0.81814  0.46452  0.11943999999999998  1.0000
  F   F37       1.0  0.79238  0.29634  0.18026  1.0000
  F   F38       1.0  0.80481  0.39749000000000007  0.23378999999999994  1.0000
  C   C55       1.0  0.75155  0.5679899999999999  0.91878  1.0000
  F   F39       1.0  0.7939  0.5733100000000001  0.8726699999999998  1.0000
  C   C56       1.0  0.7316000000000001  0.6773700000000002  0.83002  1.0000
  F   F40       1.0  0.7593700000000002  0.8110300000000001  0.69056  1.0000
  H   H5        1.0  0.6622700000000004  0.29354000000000036  0.37520999999999977  1.0000
  C   C57       1.0  0.39324  0.5846700000000001  0.29811  1.0000
  C   C58       1.0  0.34223  0.56395  0.32315  1.0000
  F   F41       1.0  0.33235  0.62462  0.34949999999999987  1.0000
  C   C59       1.0  0.29937  0.47934000000000004  0.32006  1.0000
  F   F42       1.0  0.29919  0.6095400000000001  0.19420999999999994  1.0000
  C   C60       1.0  0.28378  0.30107  0.40625  1.0000
  C   C61       1.0  0.31797999999999993  0.3158000000000001  0.3227999999999999  1.0000
  F   F43       1.0  0.33947  0.20228999999999997  0.39251  1.0000
  F   F44       1.0  0.36657  0.50949  0.19017  1.0000
  C   C62       1.0  0.28501  0.26954000000000006  0.28317999999999993  1.0000
  F   F45       1.0  0.30182  0.45683  0.13298  1.0000
  F   F46       1.0  0.22906  0.15514000000000003  0.37747  1.0000
  C   C63       1.0  0.2594600000000001  0.14938000000000023  0.5630999999999998  1.0000
  F   F47       1.0  0.2813800000000001  0.03796000000000017  0.6361199999999998  1.0000
  C   C64       1.0  0.23026000000000005  0.16282000000000027  0.6171299999999997  1.0000
  F   F48       1.0  0.23521000000000003  0.10105000000000003  0.72103  1.0000
  H   H6        1.0  0.40037  0.50624  0.30142  1.0000
  C   C65       1.0  0.97956  0.89316  0.16234  1.0000
  C   C66       1.0  0.96215  0.71814  0.30316  1.0000
  F   F49       1.0  0.9722399999999999  0.72535  0.37072999999999995  1.0000
  C   C67       1.0  0.95062  0.5448600000000001  0.3650699999999999  1.0000
  F   F50       1.0  0.9882900000000002  0.5816600000000001  0.28478  1.0000
  C   C68       1.0  0.90572  0.35324000000000016  0.4963499999999999  1.0000
  C   C69       1.0  0.85803  0.28246000000000004  0.6026  1.0000
  F   F51       1.0  0.8603400000000002  0.15016000000000002  0.7291  1.0000
  F   F52       1.0  0.86593  0.43749  0.55013  1.0000
  C   C70       1.0  0.79657  0.1711  0.64629  1.0000
  F   F53       1.0  0.7587100000000002  0.10613000000000011  0.7483199999999999  1.0000
  F   F54       1.0  0.78518  0.00442  0.71211  1.0000
  C   C71       1.0  0.90065  0.20894000000000007  0.53054  1.0000
  F   F55       1.0  0.87023  0.18230000000000002  0.48887  1.0000
  C   C72       1.0  0.92332  0.1009800000000003  0.6026499999999998  1.0000
  F   F56       1.0  0.89855  0.9260400000000003  0.6747199999999998  1.0000
  H   H7        1.0  0.99215  0.02136999999999987  0.11652  1.0000
  C   C73       1.0  0.08284000000000001  0.7629200000000002  0.28284  1.0000
  C   C74       1.0  0.13269  0.8013900000000002  0.22851999999999995  1.0000
  F   F57       1.0  0.1455  0.66788  0.32713  1.0000
  C   C75       1.0  0.18051  0.0014899999999999933  0.07386  1.0000
  F   F58       1.0  0.23242000000000002  0.028389999999999926  0.046839999999999986  1.0000
  C   C76       1.0  0.17741999999999997  0.16138  0.97841  1.0000
  C   C77       1.0  0.22425000000000003  0.3480700000000004  0.9007999999999999  1.0000
  F   F59       1.0  0.21203000000000002  0.4927600000000003  0.8134099999999999  1.0000
  F   F60       1.0  0.2758  0.42597  0.81081  1.0000
  C   C78       1.0  0.23099000000000003  0.3052600000000001  0.00858  1.0000
  F   F61       1.0  0.18343999999999996  0.2609300000000001  0.08075  1.0000
  F   F62       1.0  0.28026  0.46934999999999993  0.93268  1.0000
  C   C79       1.0  0.13249  0.15958000000000003  0.9395  1.0000
  F   F63       1.0  0.09618000000000004  0.19669000000000014  0.95444  1.0000
  C   C80       1.0  0.12510000000000004  0.10651000000000034  0.9014399999999999  1.0000
  F   F64       1.0  0.17088  0.12622000000000003  0.85004  1.0000
  H   H8        1.0  0.07796000000000002  0.88931  0.21108  1.0000
