data_image0
_chemical_formula_structural       EuOCO6COC2EuOCO6COC2EuOCO6COC3N2C2F2CF2OCN2C2F2CF2OCN2C2F2CF2OCN2C2F2CF2OCN2C2F2CF2OCN2C2F2CF2O
_chemical_formula_sum              "Eu3 O30 C36 N12 F24"
_cell_length_a       18.9801
_cell_length_b       16.9874
_cell_length_c       22.1456
_cell_angle_alpha    103.6864
_cell_angle_beta     75.3579
_cell_angle_gamma    111.75089999999999

_symmetry_space_group_name_H-M    'P 1'
_symmetry_Int_Tables_number       1

loop_
  _symmetry_equiv_pos_as_xyz
  'x,y,z'

loop_
  _atom_site_type_symbol
  _atom_site_label
  _atom_site_symmetry_multiplicity
  _atom_site_fract_x
  _atom_site_fract_y
  _atom_site_fract_z
  _atom_site_occupancy
  Eu  Eu1       1.0  0.54659  0.61149  0.8903  1.0000
  O   O1        1.0  0.43139  0.66008  0.003179999999999961  1.0000
  C   C1        1.0  0.61112  0.49081  0.92841  1.0000
  O   O2        1.0  0.6740100000000001  0.7495400000000003  0.82046  1.0000
  O   O3        1.0  0.54375  0.70761  0.8353100000000001  1.0000
  O   O4        1.0  0.66535  0.57344  0.77384  1.0000
  O   O5        1.0  0.66726  0.5321700000000003  0.89434  1.0000
  O   O6        1.0  0.54434  0.5131700000000002  0.94591  1.0000
  O   O7        1.0  0.41536999999999996  0.5649500000000001  0.9129800000000001  1.0000
  C   C2        1.0  0.38734000000000013  0.6023100000000002  0.9725399999999998  1.0000
  O   O8        1.0  0.53609  0.51033  0.80164  1.0000
  C   C3        1.0  0.60609  0.51867  0.7597999999999999  1.0000
  C   C4        1.0  0.6173099999999999  0.75376  0.80663  1.0000
  Eu  Eu2       1.0  0.9256700000000002  0.5209100000000002  0.19553  1.0000
  O   O9        1.0  0.7885800000000001  0.4431500000000001  0.29372  1.0000
  C   C5        1.0  0.017380000000000003  0.55045  0.30161  1.0000
  O   O10       1.0  0.8671999999999999  0.62242  0.13856  1.0000
  O   O11       1.0  0.81994  0.48283  0.15058  1.0000
  O   O12       1.0  0.027560000000000036  0.5862700000000002  0.07356  1.0000
  O   O13       1.0  0.95351  0.50626  0.32425  1.0000
  O   O14       1.0  0.033670000000000005  0.56257  0.23895999999999998  1.0000
  O   O15       1.0  0.87852  0.3903100000000001  0.22807  1.0000
  C   C6        1.0  0.81006  0.3813  0.27157  1.0000
  O   O16       1.0  0.98472  0.45663  0.10542  1.0000
  C   C7        1.0  0.022060000000000073  0.5104900000000002  0.06011  1.0000
  C   C8        1.0  0.81855  0.55235  0.12862  1.0000
  Eu  Eu3       1.0  0.49501000000000017  0.9632000000000001  0.4613499999999999  1.0000
  O   O17       1.0  0.52655  0.05117000000000001  0.34944  1.0000
  C   C9        1.0  0.3806800000000001  0.8173500000000002  0.38901  1.0000
  O   O18       1.0  0.51992  0.07689  0.58493  1.0000
  O   O19       1.0  0.57065  0.10197000000000002  0.4848799999999999  1.0000
  O   O20       1.0  0.46474  0.8736100000000002  0.57239  1.0000
  O   O21       1.0  0.40048000000000017  0.8775500000000003  0.36034  1.0000
  O   O22       1.0  0.41771000000000014  0.8247600000000003  0.43793  1.0000
  O   O23       1.0  0.57265  0.9537400000000001  0.36494  1.0000
  C   C10       1.0  0.57087  0.01001999999999999  0.32916  1.0000
  O   O24       1.0  0.57212  0.9190500000000003  0.50001  1.0000
  C   C11       1.0  0.5329400000000002  0.8822800000000002  0.55385  1.0000
  C   C12       1.0  0.56203  0.12774000000000005  0.54984  1.0000
  C   C13       1.0  0.30458  0.571  0.9977499999999999  1.0000
  N   N1        1.0  0.27086999999999994  0.60412  0.05400000000000005  1.0000
  N   N2        1.0  0.19692000000000004  0.5585600000000002  0.059779999999999944  1.0000
  C   C14       1.0  0.18937  0.50045  0.006619999999999999  1.0000
  C   C15       1.0  0.1142500000000001  0.4335600000000001  0.9936999999999999  1.0000
  F   F1        1.0  0.1275800000000001  0.3853300000000001  0.9346799999999998  1.0000
  F   F2        1.0  0.08752000000000003  0.37885000000000013  0.03814  1.0000
  C   C16       1.0  0.053050000000000014  0.4734400000000001  0.99422  1.0000
  F   F3        1.0  0.9916800000000001  0.40991  0.96993  1.0000
  F   F4        1.0  0.08434  0.53619  0.9555700000000001  1.0000
  O   O25       1.0  0.25547  0.5067  0.96711  1.0000
  C   C17       1.0  0.7639300000000001  0.2972500000000001  0.29021  1.0000
  N   N3        1.0  0.7039600000000001  0.2853700000000001  0.33894  1.0000
  N   N4        1.0  0.6766299999999998  0.20217000000000004  0.34007  1.0000
  C   C18       1.0  0.72088  0.1675  0.29163  1.0000
  C   C19       1.0  0.70826  0.07274000000000003  0.27399  1.0000
  F   F5        1.0  0.75681  0.05882000000000001  0.2172  1.0000
  F   F6        1.0  0.7282  0.045980000000000014  0.3198  1.0000
  C   C20       1.0  0.6240700000000001  0.020120000000000013  0.26611  1.0000
  F   F7        1.0  0.6208800000000001  0.9390800000000001  0.23312000000000002  1.0000
  F   F8        1.0  0.59899  0.05946  0.23140999999999998  1.0000
  O   O26       1.0  0.77604  0.22529  0.25988  1.0000
  C   C21       1.0  0.75796  0.54107  0.09434  1.0000
  N   N5        1.0  0.7493700000000002  0.6057400000000002  0.07506999999999997  1.0000
  N   N6        1.0  0.68929  0.5706700000000002  0.0466899999999999  1.0000
  C   C22       1.0  0.66443  0.4863900000000001  0.05007  1.0000
  C   C23       1.0  0.5971800000000002  0.42157  0.022399999999999975  1.0000
  F   F9        1.0  0.5843200000000001  0.3425200000000001  0.038000000000000034  1.0000
  F   F10       1.0  0.53194  0.4444200000000001  0.04891999999999999  1.0000
  C   C24       1.0  0.61207  0.41327000000000014  0.94973  1.0000
  F   F11       1.0  0.55473  0.34250000000000014  0.92646  1.0000
  F   F12       1.0  0.6821600000000001  0.39997  0.92455  1.0000
  O   O27       1.0  0.70603  0.4660300000000001  0.07956  1.0000
  C   C25       1.0  0.07685  0.59292  0.34073  1.0000
  N   N7        1.0  0.0735  0.57005  0.39579  1.0000
  N   N8        1.0  0.1341900000000001  0.6256500000000003  0.4185  1.0000
  C   C26       1.0  0.17124  0.6797400000000001  0.37622  1.0000
  C   C27       1.0  0.2393  0.75878  0.38716999999999996  1.0000
  F   F13       1.0  0.24592  0.8152300000000002  0.34837  1.0000
  F   F14       1.0  0.22599000000000005  0.7977100000000001  0.44946  1.0000
  C   C28       1.0  0.31452  0.73762  0.3732  1.0000
  F   F15       1.0  0.3306  0.7048600000000003  0.30973  1.0000
  F   F16       1.0  0.30660999999999994  0.6765199999999999  0.40857999999999994  1.0000
  O   O28       1.0  0.13680000000000006  0.6610600000000002  0.32732  1.0000
  C   C29       1.0  0.57386  0.8550800000000002  0.58856  1.0000
  N   N9        1.0  0.65086  0.8737100000000002  0.57615  1.0000
  N   N10       1.0  0.66635  0.8398400000000003  0.61676  1.0000
  C   C30       1.0  0.59792  0.80203  0.6518  1.0000
  C   C31       1.0  0.58873  0.7504600000000001  0.70146  1.0000
  F   F17       1.0  0.5107300000000001  0.7103900000000004  0.72198  1.0000
  F   F18       1.0  0.62261  0.68772  0.67438  1.0000
  C   C32       1.0  0.62643  0.80725  0.75793  1.0000
  F   F19       1.0  0.59209  0.8692900000000003  0.7858500000000002  1.0000
  F   F20       1.0  0.70425  0.8479  0.73685  1.0000
  O   O29       1.0  0.5391700000000003  0.8104900000000003  0.63538  1.0000
  C   C33       1.0  0.6022  0.21617000000000006  0.57617  1.0000
  N   N11       1.0  0.65097  0.27531  0.54057  1.0000
  N   N12       1.0  0.67393  0.3466200000000001  0.58032  1.0000
  C   C34       1.0  0.6374900000000001  0.3273600000000001  0.6382  1.0000
  C   C35       1.0  0.6439000000000001  0.39188000000000006  0.69768  1.0000
  F   F21       1.0  0.60535  0.3496500000000001  0.74911  1.0000
  F   F22       1.0  0.7209900000000004  0.43089000000000005  0.70258  1.0000
  C   C36       1.0  0.60812  0.45964000000000005  0.69739  1.0000
  F   F23       1.0  0.53318  0.4191300000000001  0.68642  1.0000
  F   F24       1.0  0.6505399999999999  0.50773  0.64971  1.0000
  O   O30       1.0  0.59265  0.24649  0.63714  1.0000
