data_image0
_chemical_formula_structural       Mn3C6N24C4N2CSH6C4N2CSH6C4N2CSH6
_chemical_formula_sum              "Mn3 C21 N30 S3 H18"
_cell_length_a       15.8296
_cell_length_b       15.970599999999997
_cell_length_c       15.624499999999998
_cell_angle_alpha    110.2824
_cell_angle_beta     120.76550000000002
_cell_angle_gamma    105.246

_symmetry_space_group_name_H-M    'P 1'
_symmetry_Int_Tables_number       1

loop_
  _symmetry_equiv_pos_as_xyz
  'x,y,z'

loop_
  _atom_site_type_symbol
  _atom_site_label
  _atom_site_symmetry_multiplicity
  _atom_site_fract_x
  _atom_site_fract_y
  _atom_site_fract_z
  _atom_site_occupancy
  Mn  Mn1       1.0  0.23881  0.22905  0.27507  1.0000
  Mn  Mn2       1.0  0.6754599999999997  0.76396  0.6905  1.0000
  Mn  Mn3       1.0  0.9587600000000003  0.9956400000000001  0.9817200000000001  1.0000
  C   C1        1.0  0.016230000000000005  0.04289  0.28457  1.0000
  C   C2        1.0  0.01203000000000002  0.28481  0.05645  1.0000
  C   C3        1.0  0.25322  0.012280000000000067  0.05825  1.0000
  C   C4        1.0  0.8768400000000004  0.96887  0.67654  1.0000
  C   C5        1.0  0.8930100000000004  0.70396  0.9110300000000002  1.0000
  C   C6        1.0  0.6740400000000002  0.95925  0.94023  1.0000
  N   N1        1.0  0.11916000000000004  0.12952000000000002  0.34254000000000007  1.0000
  N   N2        1.0  0.11642000000000001  0.11956  0.2534  1.0000
  N   N3        1.0  0.01692  0.03281  0.14697  1.0000
  N   N4        1.0  0.9513100000000002  0.98247  0.16269  1.0000
  N   N5        1.0  0.94496  0.17745  0.98137  1.0000
  N   N6        1.0  0.011290000000000015  0.14836  0.04114  1.0000
  N   N7        1.0  0.11300000000000003  0.23316  0.14712  1.0000
  N   N8        1.0  0.11707000000000005  0.321  0.16073  1.0000
  N   N9        1.0  0.3060400000000001  0.10479000000000001  0.16240000000000002  1.0000
  N   N10       1.0  0.21853  0.11209  0.14599  1.0000
  N   N11       1.0  0.11737000000000003  0.02832999999999999  0.03818  1.0000
  N   N12       1.0  0.13518999999999998  0.9632  0.97992  1.0000
  N   N13       1.0  0.77738  0.8795  0.62042  1.0000
  N   N14       1.0  0.79503  0.87584  0.7110200000000001  1.0000
  N   N15       1.0  0.89914  0.95835  0.81643  1.0000
  N   N16       1.0  0.9532400000000001  0.01934999999999995  0.79885  1.0000
  N   N17       1.0  0.9647800000000001  0.8112799999999998  0.98514  1.0000
  N   N18       1.0  0.9049300000000005  0.8421400000000001  0.9214900000000001  1.0000
  N   N19       1.0  0.80265  0.7583999999999997  0.81488  1.0000
  N   N20       1.0  0.7915200000000002  0.66984  0.80473  1.0000
  N   N21       1.0  0.6164600000000002  0.8695200000000001  0.8308300000000001  1.0000
  N   N22       1.0  0.69883  0.8769399999999998  0.8257600000000002  1.0000
  N   N23       1.0  0.8012300000000001  0.9643399999999998  0.92757  1.0000
  N   N24       1.0  0.7890600000000002  0.018549999999999994  0.00144  1.0000
  C   C7        1.0  0.9190500000000003  0.6309799999999998  0.94404  1.0000
  C   C8        1.0  0.8375400000000001  0.57856  0.96136  1.0000
  C   C9        1.0  0.7862900000000003  0.45847999999999994  0.8985900000000001  1.0000
  C   C10       1.0  0.8726700000000003  0.43127000000000004  0.9612800000000001  1.0000
  N   N25       1.0  0.98374  0.50412  0.06877  1.0000
  N   N26       1.0  0.039760000000000253  0.45971  0.10799  1.0000
  C   C11       1.0  0.9718600000000002  0.35277999999999987  0.03077  1.0000
  S   S1        1.0  0.8328100000000003  0.30196999999999996  0.90349  1.0000
  H   H1        1.0  0.012060000000000008  0.67647  0.02986  1.0000
  H   H2        1.0  0.9075900000000002  0.57015  0.86965  1.0000
  H   H3        1.0  0.7616900000000001  0.5876199999999998  0.9214  1.0000
  H   H4        1.0  0.8853000000000002  0.6195899999999998  0.06045  1.0000
  H   H5        1.0  0.7475400000000002  0.41979999999999995  0.80222  1.0000
  H   H6        1.0  0.7137000000000002  0.42326  0.89601  1.0000
  C   C12       1.0  0.31616000000000005  0.9636899999999998  0.03774000000000011  1.0000
  C   C13       1.0  0.4390400000000001  0.013660000000000007  0.15826  1.0000
  C   C14       1.0  0.49511  0.9515699999999998  0.14221  1.0000
  C   C15       1.0  0.54676  0.97667  0.08976  1.0000
  N   N27       1.0  0.63768  0.0745499999999999  0.15063  1.0000
  N   N28       1.0  0.6827600000000003  0.07621999999999994  0.09949  1.0000
  C   C16       1.0  0.6260800000000001  0.9798499999999998  0.9985  1.0000
  S   S2        1.0  0.51133  0.88077  0.9619000000000002  1.0000
  H   H7        1.0  0.264  0.8775499999999999  0.99595  1.0000
  H   H8        1.0  0.32203  0.9727899999999998  0.97327  1.0000
  H   H9        1.0  0.43120000000000014  0.012450000000000069  0.22472  1.0000
  H   H10       1.0  0.49658000000000013  0.09830999999999988  0.19777000000000003  1.0000
  H   H11       1.0  0.43028999999999995  0.86444  0.0847  1.0000
  H   H12       1.0  0.5671900000000001  0.9736199999999998  0.23345  1.0000
  C   C17       1.0  0.96884  0.027069999999999983  0.34346  1.0000
  C   C18       1.0  0.9463000000000003  0.11466999999999997  0.38421  1.0000
  C   C19       1.0  0.8500300000000004  0.08012  0.38941  1.0000
  C   C20       1.0  0.8835600000000003  0.06221000000000003  0.48693000000000003  1.0000
  N   N29       1.0  0.9823700000000002  0.13695  0.60468  1.0000
  N   N30       1.0  0.9887000000000001  0.10864  0.67661  1.0000
  C   C21       1.0  0.8943900000000005  0.012489999999999987  0.61443  1.0000
  S   S3        1.0  0.79199  0.95154  0.46031  1.0000
  H   H13       1.0  0.032020000000000035  0.028790000000000034  0.42307000000000006  1.0000
  H   H14       1.0  0.8854200000000002  0.94727  0.27571  1.0000
  H   H15       1.0  0.9169400000000002  0.13607000000000005  0.3179600000000001  1.0000
  H   H16       1.0  0.029410000000000047  0.18780000000000002  0.47459000000000007  1.0000
  H   H17       1.0  0.7676  0.006820000000000017  0.29881  1.0000
  H   H18       1.0  0.8320100000000002  0.14381000000000002  0.40870000000000006  1.0000
