data_image0
_chemical_formula_structural       CoOCoOC2O2CO2CO2CoOCoOC2O2CO2CO2CoOCoOC2O2CO2CO2CoOCoOC2O2CO2CO2CN2C2F2CF2OCN2C2F2CF2OCN2C2F2CF2OCN2C2F2CF2OCN2C2F2CF2OCN2C2F2CF2OCN2C2F2CF2OCN2C2F2CF2O
_chemical_formula_sum              "Co8 O40 C48 N16 F32"
_cell_length_a       37.4722
_cell_length_b       8.336100000000002
_cell_length_c       9.390299999999998
_cell_angle_alpha    105.0805
_cell_angle_beta     81.3868
_cell_angle_gamma    91.0728

_symmetry_space_group_name_H-M    'P 1'
_symmetry_Int_Tables_number       1

loop_
  _symmetry_equiv_pos_as_xyz
  'x,y,z'

loop_
  _atom_site_type_symbol
  _atom_site_label
  _atom_site_symmetry_multiplicity
  _atom_site_fract_x
  _atom_site_fract_y
  _atom_site_fract_z
  _atom_site_occupancy
  Co  Co1       1.0  0.38404  0.77572  0.13076  1.0000
  O   O1        1.0  0.32477  0.64044  0.30565  1.0000
  Co  Co2       1.0  0.36611  0.7117  0.37853  1.0000
  O   O2        1.0  0.33987000000000006  0.70416  0.08987999999999999  1.0000
  C   C1        1.0  0.4121500000000001  0.59656  0.40026  1.0000
  C   C2        1.0  0.43505000000000005  0.6683  0.08239  1.0000
  O   O3        1.0  0.42924  0.82286  0.15668  1.0000
  O   O4        1.0  0.4070200000000001  0.58595  0.04115  1.0000
  C   C3        1.0  0.3176200000000001  0.64555  0.17863999999999994  1.0000
  O   O5        1.0  0.36504  0.9810200000000001  0.22363  1.0000
  O   O6        1.0  0.34830000000000005  0.9227  0.4411299999999999  1.0000
  C   C4        1.0  0.35017  0.024000000000000028  0.35981  1.0000
  O   O7        1.0  0.38731  0.51442  0.33119  1.0000
  O   O8        1.0  0.40714  0.75611  0.45013  1.0000
  Co  Co3       1.0  0.8548200000000001  0.7076000000000001  0.67627  1.0000
  O   O9        1.0  0.8313599999999998  0.05532000000000006  0.84435  1.0000
  Co  Co4       1.0  0.8631800000000002  0.93369  0.9047299999999999  1.0000
  O   O10       1.0  0.8289600000000001  0.86366  0.6325  1.0000
  C   C5        1.0  0.9184300000000001  0.92159  0.88907  1.0000
  C   C6        1.0  0.90625  0.60885  0.6042899999999999  1.0000
  O   O11       1.0  0.8834500000000001  0.55282  0.6977999999999999  1.0000
  O   O12       1.0  0.89539  0.73614  0.56584  1.0000
  C   C7        1.0  0.81937  0.004450000000000082  0.7207  1.0000
  O   O13       1.0  0.81489  0.65834  0.79079  1.0000
  O   O14       1.0  0.82584  0.84042  0.9976999999999999  1.0000
  C   C8        1.0  0.80645  0.72824  0.92933  1.0000
  O   O15       1.0  0.90267  0.015989999999999935  0.8257  1.0000
  O   O16       1.0  0.89765  0.83114  0.95857  1.0000
  Co  Co5       1.0  0.13756  0.10332000000000002  0.07589999999999997  1.0000
  O   O17       1.0  0.14911000000000005  0.46753  0.17599  1.0000
  Co  Co6       1.0  0.12948000000000007  0.34808000000000006  0.3024299999999999  1.0000
  O   O18       1.0  0.15876  0.25072999999999995  0.9784899999999999  1.0000
  C   C9        1.0  0.07816  0.30843  0.3948699999999999  1.0000
  C   C10       1.0  0.08659  0.00723  0.10174  1.0000
  O   O19       1.0  0.11268000000000002  0.96189  0.16053  1.0000
  O   O20       1.0  0.09425  0.11728  0.0265  1.0000
  C   C11       1.0  0.16109000000000004  0.40575  0.03854  1.0000
  O   O21       1.0  0.18012  0.06743000000000002  0.13436  1.0000
  O   O22       1.0  0.17402000000000004  0.2906700000000001  0.32654  1.0000
  C   C12       1.0  0.19175000000000003  0.16174  0.24723  1.0000
  O   O23       1.0  0.08408000000000002  0.3979  0.29958  1.0000
  O   O24       1.0  0.10610999999999998  0.24231  0.42573  1.0000
  Co  Co7       1.0  0.6354200000000002  0.51313  0.66671  1.0000
  O   O25       1.0  0.66968  0.10997  0.68286  1.0000
  Co  Co8       1.0  0.63452  0.15029999999999988  0.8427999999999998  1.0000
  O   O26       1.0  0.63616  0.2972699999999999  0.6542599999999998  1.0000
  C   C13       1.0  0.58717  0.03834000000000001  0.8997699999999998  1.0000
  C   C14       1.0  0.5917300000000002  0.50034  0.5468  1.0000
  O   O27       1.0  0.58765  0.5211599999999998  0.6887799999999998  1.0000
  O   O28       1.0  0.62469  0.47481999999999996  0.48100999999999994  1.0000
  C   C15       1.0  0.66547  0.21465999999999996  0.6119999999999999  1.0000
  O   O29       1.0  0.63857  0.55851  0.86679  1.0000
  O   O30       1.0  0.6581700000000001  0.3336700000000001  0.9352399999999998  1.0000
  C   C16       1.0  0.65051  0.48932000000000003  0.9585099999999999  1.0000
  O   O31       1.0  0.60751  0.981  0.772  1.0000
  O   O32       1.0  0.59815  0.16929999999999995  0.98936  1.0000
  C   C17       1.0  0.2833  0.58004  0.13331  1.0000
  N   N1        1.0  0.26084  0.49576999999999993  0.21149999999999994  1.0000
  N   N2        1.0  0.23423  0.44960999999999995  0.13406999999999997  1.0000
  C   C18       1.0  0.24146000000000004  0.50954  0.01317  1.0000
  C   C19       1.0  0.21889000000000006  0.47376  0.88905  1.0000
  F   F1        1.0  0.23158  0.56543  0.7890900000000001  1.0000
  F   F2        1.0  0.22302  0.30715  0.8160199999999999  1.0000
  C   C20       1.0  0.17855  0.51825  0.9465299999999999  1.0000
  F   F3        1.0  0.16049  0.50256  0.8254399999999998  1.0000
  F   F4        1.0  0.17516  0.68296  0.03004  1.0000
  O   O33       1.0  0.2721000000000001  0.5905000000000002  0.008779999999999996  1.0000
  C   C21       1.0  0.7923300000000002  0.10086999999999997  0.6782999999999998  1.0000
  N   N3        1.0  0.7772600000000001  0.24635000000000004  0.7622899999999998  1.0000
  N   N4        1.0  0.75154  0.2798600000000001  0.69163  1.0000
  C   C22       1.0  0.75206  0.15216  0.56971  1.0000
  C   C23       1.0  0.7273400000000002  0.13210000000000002  0.4544  1.0000
  F   F5        1.0  0.7476400000000002  0.15065999999999993  0.3233099999999999  1.0000
  F   F6        1.0  0.7151500000000002  0.9707300000000001  0.42665999999999993  1.0000
  C   C24       1.0  0.69455  0.25357  0.49656999999999996  1.0000
  F   F7        1.0  0.67944  0.24419999999999997  0.36906  1.0000
  F   F8        1.0  0.7055900000000002  0.41491  0.54778  1.0000
  O   O34       1.0  0.7772600000000002  0.039900000000000026  0.5581899999999997  1.0000
  C   C25       1.0  0.22594  0.12249  0.28981  1.0000
  N   N5        1.0  0.24253  0.97275  0.24134  1.0000
  N   N6        1.0  0.2704  0.9832800000000002  0.31364  1.0000
  C   C26       1.0  0.26951  0.13898  0.40142  1.0000
  C   C27       1.0  0.29600000000000004  0.20386000000000004  0.5070899999999999  1.0000
  F   F9        1.0  0.28685  0.36769  0.58026  1.0000
  F   F10       1.0  0.29333  0.11369999999999998  0.6128899999999999  1.0000
  C   C28       1.0  0.3351  0.19799999999999993  0.42581999999999987  1.0000
  F   F11       1.0  0.3569  0.28088000000000013  0.52704  1.0000
  F   F12       1.0  0.33617  0.27954  0.31423  1.0000
  O   O35       1.0  0.24185  0.22804999999999997  0.3906299999999999  1.0000
  C   C29       1.0  0.77209  0.69176  0.00913000000000008  1.0000
  N   N7        1.0  0.76843  0.66415  0.14531000000000005  1.0000
  N   N8        1.0  0.7334600000000001  0.67027  0.19264999999999996  1.0000
  C   C30       1.0  0.71768  0.70432  0.08397999999999994  1.0000
  C   C31       1.0  0.6783800000000002  0.75037  0.10292999999999995  1.0000
  F   F13       1.0  0.67001  0.87486  0.23357000000000003  1.0000
  F   F14       1.0  0.67263  0.8158400000000001  0.9858599999999997  1.0000
  C   C32       1.0  0.6536000000000002  0.60168  0.1102799999999997  1.0000
  F   F15       1.0  0.6192400000000001  0.66241  0.1756200000000001  1.0000
  F   F16       1.0  0.6655900000000002  0.51224  0.20031  1.0000
  O   O36       1.0  0.74107  0.7193099999999999  0.9686499999999999  1.0000
  C   C33       1.0  0.44442  0.5135  0.41948  1.0000
  N   N9        1.0  0.45177000000000006  0.35057  0.3607  1.0000
  N   N10       1.0  0.48292000000000007  0.32264  0.3995599999999999  1.0000
  C   C34       1.0  0.49294000000000004  0.47021  0.47964  1.0000
  C   C35       1.0  0.52451  0.48947  0.56246  1.0000
  F   F17       1.0  0.5188500000000001  0.63047  0.6798999999999998  1.0000
  F   F18       1.0  0.5262000000000002  0.35233999999999993  0.6188899999999999  1.0000
  C   C36       1.0  0.56048  0.50654  0.46456  1.0000
  F   F19       1.0  0.56064  0.6592  0.4305799999999999  1.0000
  F   F20       1.0  0.56466  0.38013  0.33348  1.0000
  O   O37       1.0  0.46934  0.59124  0.49524  1.0000
  C   C37       1.0  0.95767  0.92043  0.8849599999999999  1.0000
  N   N11       1.0  0.9793700000000001  0.023230000000000098  0.8252299999999999  1.0000
  N   N12       1.0  0.012050000000000007  0.9950499999999999  0.8498299999999998  1.0000
  C   C38       1.0  0.008620000000000301  0.87646  0.9240299999999999  1.0000
  C   C39       1.0  0.03969  0.81401  0.98027  1.0000
  F   F21       1.0  0.03038999999999992  0.6635499999999999  0.010709999999999997  1.0000
  F   F22       1.0  0.06888  0.78378  0.86659  1.0000
  C   C40       1.0  0.049199999999999994  0.94002  0.12393  1.0000
  F   F23       1.0  0.046600000000000016  0.86324  0.23972  1.0000
  F   F24       1.0  0.02507999999999999  0.07434  0.16971  1.0000
  O   O38       1.0  0.97496  0.82838  0.9490799999999999  1.0000
  C   C41       1.0  0.5537500000000001  0.9580599999999999  0.9419  1.0000
  N   N13       1.0  0.5233100000000002  0.9672800000000001  0.88483  1.0000
  N   N14       1.0  0.49977000000000005  0.87634  0.9462699999999998  1.0000
  C   C42       1.0  0.5170300000000002  0.81714  0.03867  1.0000
  C   C43       1.0  0.50195  0.69017  0.11834999999999998  1.0000
  F   F25       1.0  0.5301  0.58372  0.11599999999999999  1.0000
  F   F26       1.0  0.48975  0.7701000000000001  0.26598  1.0000
  C   C44       1.0  0.47170000000000006  0.58429  0.04618  1.0000
  F   F27       1.0  0.46867  0.44073  0.09375999999999998  1.0000
  F   F28       1.0  0.48098  0.53617  0.89328  1.0000
  O   O39       1.0  0.5507500000000002  0.86625  0.03808  1.0000
  C   C45       1.0  0.041810000000000014  0.28204  0.46447  1.0000
  N   N15       1.0  0.03422000000000002  0.16212  0.53528  1.0000
  N   N16       1.0  0.9994999999999999  0.17834  0.58549  1.0000
  C   C46       1.0  0.98766  0.3078699999999999  0.5440899999999997  1.0000
  C   C47       1.0  0.94983  0.37672  0.59536  1.0000
  F   F29       1.0  0.9261300000000001  0.25394999999999995  0.5422099999999999  1.0000
  F   F30       1.0  0.94395  0.4173  0.74991  1.0000
  C   C48       1.0  0.9432200000000001  0.53187  0.5414299999999999  1.0000
  F   F31       1.0  0.9467600000000003  0.48802  0.38618  1.0000
  F   F32       1.0  0.96854  0.65048  0.5853299999999999  1.0000
  O   O40       1.0  0.013480000000000159  0.37567  0.46852999999999995  1.0000
