data_image0
_chemical_formula_structural       EuOCO6COC2EuOCO6COC2EuOCO6COC2EuOCO6COC5FCFC4SCNCFCFH5C3FCFC4SCNCFCFH5C3FCFC4SCNCFCFH5C3FCFC4SCNCFCFH5C3FCFC4SCNCFCFH5C3FCFC4SCNCFCFH5C3FCFC4SCNCFCFH5C3FCFC4SCNCFCFH5
_chemical_formula_sum              "Eu4 O32 C104 F32 S8 N8 H40"
_cell_length_a       41.852
_cell_length_b       21.353
_cell_length_c       12.914
_cell_angle_alpha    88.9326
_cell_angle_beta     90.8464
_cell_angle_gamma    88.2078

_symmetry_space_group_name_H-M    'P 1'
_symmetry_Int_Tables_number       1

loop_
  _symmetry_equiv_pos_as_xyz
  'x,y,z'

loop_
  _atom_site_type_symbol
  _atom_site_label
  _atom_site_symmetry_multiplicity
  _atom_site_fract_x
  _atom_site_fract_y
  _atom_site_fract_z
  _atom_site_occupancy
  Eu  Eu1       1.0  0.37275000000000014  0.7416  0.28618  1.0000
  O   O1        1.0  0.30136  0.78613  0.48303  1.0000
  C   C1        1.0  0.35712000000000005  0.60396  0.26344  1.0000
  O   O2        1.0  0.38928  0.7931300000000001  0.08328000000000002  1.0000
  O   O3        1.0  0.39954  0.82914  0.24275  1.0000
  O   O4        1.0  0.4372  0.69762  0.21863000000000002  1.0000
  O   O5        1.0  0.37845  0.61272  0.20202  1.0000
  O   O6        1.0  0.34655  0.65264  0.32588000000000006  1.0000
  O   O7        1.0  0.35266  0.78578  0.43211  1.0000
  C   C2        1.0  0.32049  0.80324  0.41912  1.0000
  O   O8        1.0  0.41632  0.70481  0.37856000000000006  1.0000
  C   C3        1.0  0.4406700000000001  0.68763  0.31154  1.0000
  C   C4        1.0  0.39898  0.83566  0.1355  1.0000
  Eu  Eu2       1.0  0.86999  0.7434399999999999  0.76499  1.0000
  O   O9        1.0  0.80604  0.80218  0.72702  1.0000
  C   C5        1.0  0.83553  0.62073  0.8127300000000001  1.0000
  O   O10       1.0  0.90949  0.7849100000000001  0.95637  1.0000
  O   O11       1.0  0.9011900000000002  0.82673  0.79537  1.0000
  O   O12       1.0  0.9154  0.63786  0.81589  1.0000
  O   O13       1.0  0.8467300000000001  0.63391  0.89708  1.0000
  O   O14       1.0  0.8383400000000001  0.66168  0.72857  1.0000
  O   O15       1.0  0.84903  0.79582  0.62352  1.0000
  C   C6        1.0  0.81814  0.81725  0.6451  1.0000
  O   O16       1.0  0.90852  0.69562  0.6693  1.0000
  C   C7        1.0  0.91851  0.64113  0.72235  1.0000
  C   C8        1.0  0.90946  0.8313  0.8997  1.0000
  Eu  Eu3       1.0  0.11757  0.26301  0.17937  1.0000
  O   O17       1.0  0.18101  0.20051000000000002  0.13964  1.0000
  C   C9        1.0  0.16002  0.35812  0.08211  1.0000
  O   O18       1.0  0.059530000000000007  0.24393  0.05416  1.0000
  O   O19       1.0  0.08593  0.17857  0.16652  1.0000
  O   O20       1.0  0.08795000000000001  0.39068  0.2391  1.0000
  O   O21       1.0  0.15395  0.32046  0.015459999999999998  1.0000
  O   O22       1.0  0.14977  0.34714  0.18252  1.0000
  O   O23       1.0  0.15246000000000004  0.20785  0.2861  1.0000
  C   C10       1.0  0.17995  0.19074999999999998  0.23292  1.0000
  O   O24       1.0  0.09109000000000002  0.29624  0.32233  1.0000
  C   C11       1.0  0.08495  0.36077  0.31965  1.0000
  C   C12       1.0  0.06511  0.19001999999999997  0.08309  1.0000
  Eu  Eu4       1.0  0.5999100000000002  0.25414  0.82901  1.0000
  O   O25       1.0  0.66098  0.18583  0.8729099999999999  1.0000
  C   C13       1.0  0.63357  0.3753  0.88869  1.0000
  O   O26       1.0  0.58085  0.17111  0.009549999999999947  1.0000
  O   O27       1.0  0.58721  0.15144  0.8393199999999998  1.0000
  O   O28       1.0  0.53755  0.3234  0.80786  1.0000
  O   O29       1.0  0.64297  0.33812  0.95595  1.0000
  O   O30       1.0  0.61199  0.35696  0.81335  1.0000
  O   O31       1.0  0.64121  0.2281  0.72333  1.0000
  C   C14       1.0  0.66502  0.19605000000000003  0.78101  1.0000
  O   O32       1.0  0.56577  0.26818  0.6912200000000001  1.0000
  C   C15       1.0  0.54006  0.30693  0.71848  1.0000
  C   C16       1.0  0.57927  0.13359  0.93961  1.0000
  C   C17       1.0  0.34202  0.54125  0.27095  1.0000
  C   C18       1.0  0.30733  0.54659  0.23742  1.0000
  C   C19       1.0  0.2991500000000001  0.56282  0.13415  1.0000
  F   F1        1.0  0.32231  0.57353  0.06401  1.0000
  C   C20       1.0  0.26712  0.56869  0.1025  1.0000
  F   F2        1.0  0.2601200000000001  0.58666  0.003239999999999909  1.0000
  C   C21       1.0  0.24257000000000004  0.55724  0.17298  1.0000
  C   C22       1.0  0.20797000000000002  0.56341  0.13852  1.0000
  C   C23       1.0  0.19837000000000002  0.50683  0.07991  1.0000
  C   C24       1.0  0.2026  0.49992000000000003  0.97511  1.0000
  S   S1        1.0  0.18852  0.43134  0.9305300000000001  1.0000
  C   C25       1.0  0.17715000000000003  0.41490000000000005  0.054970000000000005  1.0000
  N   N1        1.0  0.18374  0.45868  0.1252  1.0000
  C   C26       1.0  0.25071  0.54059  0.27614  1.0000
  F   F3        1.0  0.22759000000000001  0.52923  0.34609  1.0000
  C   C27       1.0  0.28279  0.53543  0.30815  1.0000
  F   F4        1.0  0.28982  0.51986  0.40848  1.0000
  H   H1        1.0  0.35474  0.50706  0.22092  1.0000
  H   H2        1.0  0.34482  0.52348  0.35201  1.0000
  H   H3        1.0  0.20403  0.6064  0.08954  1.0000
  H   H4        1.0  0.19207000000000002  0.569  0.2061  1.0000
  H   H5        1.0  0.21323000000000003  0.53448  0.92527  1.0000
  C   C28       1.0  0.7999  0.8589599999999998  0.56879  1.0000
  C   C29       1.0  0.7921800000000001  0.9214700000000001  0.61651  1.0000
  C   C30       1.0  0.8136800000000002  0.9705100000000001  0.60827  1.0000
  F   F5        1.0  0.84108  0.96291  0.5543  1.0000
  C   C31       1.0  0.80733  0.0275  0.65668  1.0000
  F   F6        1.0  0.8286600000000001  0.07381  0.64743  1.0000
  C   C32       1.0  0.7794  0.03634  0.71467  1.0000
  C   C33       1.0  0.77286  0.09708  0.76981  1.0000
  C   C34       1.0  0.7432200000000001  0.13046  0.72786  1.0000
  C   C35       1.0  0.7389500000000001  0.15055  0.62645  1.0000
  S   S2        1.0  0.70265  0.18753  0.60408  1.0000
  C   C36       1.0  0.69488  0.17482  0.73264  1.0000
  N   N2        1.0  0.71825  0.14442  0.78794  1.0000
  C   C37       1.0  0.75784  0.98729  0.72264  1.0000
  F   F7        1.0  0.7308600000000001  0.99432  0.77897  1.0000
  C   C38       1.0  0.7640799999999999  0.9304799999999999  0.67352  1.0000
  F   F8        1.0  0.7429200000000001  0.88385  0.6828600000000001  1.0000
  H   H6        1.0  0.8143500000000001  0.8654500000000002  0.4981  1.0000
  H   H7        1.0  0.7777000000000002  0.8358599999999999  0.54415  1.0000
  H   H8        1.0  0.7931400000000001  0.12913  0.76269  1.0000
  H   H9        1.0  0.77015  0.08663  0.8538299999999999  1.0000
  H   H10       1.0  0.75661  0.14354  0.56703  1.0000
  C   C39       1.0  0.20845  0.16264  0.29091  1.0000
  C   C40       1.0  0.21592  0.09623  0.25838  1.0000
  C   C41       1.0  0.23015  0.08469  0.16224  1.0000
  F   F9        1.0  0.23714  0.13297  0.09741  1.0000
  C   C42       1.0  0.23809  0.023430000000000055  0.1333  1.0000
  F   F10       1.0  0.25205  0.013889999999999958  0.04043  1.0000
  C   C43       1.0  0.23253  0.97266  0.20091  1.0000
  C   C44       1.0  0.24308000000000002  0.90688  0.1736  1.0000
  C   C45       1.0  0.27497  0.8907700000000001  0.22327  1.0000
  C   C46       1.0  0.30277  0.91939  0.1967  1.0000
  S   S3        1.0  0.33482  0.89326  0.26959  1.0000
  C   C47       1.0  0.30969  0.84374  0.33157  1.0000
  N   N3        1.0  0.27881  0.84801  0.30026  1.0000
  C   C48       1.0  0.21841  0.98413  0.29703  1.0000
  F   F11       1.0  0.21312  0.93597  0.3641  1.0000
  C   C49       1.0  0.20999  0.04528  0.32532  1.0000
  F   F12       1.0  0.19631  0.05462999999999999  0.41868  1.0000
  H   H11       1.0  0.22951  0.19197  0.2774  1.0000
  H   H12       1.0  0.20370000000000002  0.16426  0.37525000000000003  1.0000
  H   H13       1.0  0.24492  0.90181  0.0884  1.0000
  H   H14       1.0  0.22504000000000002  0.87324  0.20007000000000003  1.0000
  H   H15       1.0  0.30422  0.9554099999999999  0.1371  1.0000
  C   C50       1.0  0.81879  0.56034  0.79834  1.0000
  C   C51       1.0  0.78726  0.56055  0.85366  1.0000
  C   C52       1.0  0.7631099999999998  0.60552  0.82663  1.0000
  F   F13       1.0  0.76807  0.64951  0.7517900000000001  1.0000
  C   C53       1.0  0.7336  0.60522  0.8757799999999999  1.0000
  F   F14       1.0  0.71109  0.6501  0.84955  1.0000
  C   C54       1.0  0.7273000000000001  0.55888  0.9508699999999999  1.0000
  C   C55       1.0  0.69496  0.55676  0.0006500000000000394  1.0000
  C   C56       1.0  0.67241  0.52058  0.93523  1.0000
  C   C57       1.0  0.6567700000000001  0.54486  0.8481  1.0000
  S   S4        1.0  0.63288  0.49230999999999997  0.79017  1.0000
  C   C58       1.0  0.64494  0.43959  0.88575  1.0000
  N   N4        1.0  0.66564  0.46076  0.95674  1.0000
  C   C59       1.0  0.75129  0.51355  0.97727  1.0000
  F   F15       1.0  0.7457300000000001  0.46769  0.048370000000000024  1.0000
  C   C60       1.0  0.7810800000000001  0.5146  0.92962  1.0000
  F   F16       1.0  0.8036500000000001  0.46995  0.95654  1.0000
  H   H16       1.0  0.81409  0.55364  0.7144000000000001  1.0000
  H   H17       1.0  0.83505  0.52106  0.82521  1.0000
  H   H18       1.0  0.68495  0.60493  0.012159999999999949  1.0000
  H   H19       1.0  0.6971200000000001  0.53442  0.07894000000000001  1.0000
  H   H20       1.0  0.65912  0.59228  0.81907  1.0000
  C   C61       1.0  0.47086  0.65623  0.35318  1.0000
  C   C62       1.0  0.46369  0.59675  0.41242  1.0000
  C   C63       1.0  0.44893  0.54713  0.36209  1.0000
  F   F17       1.0  0.44106000000000006  0.55207  0.25986  1.0000
  C   C64       1.0  0.44225000000000003  0.492  0.41659  1.0000
  F   F18       1.0  0.42768  0.44525  0.36617  1.0000
  C   C65       1.0  0.4509000000000001  0.48486  0.52185  1.0000
  C   C66       1.0  0.44489  0.42452  0.57991  1.0000
  C   C67       1.0  0.47394  0.38164  0.57796  1.0000
  C   C68       1.0  0.48491  0.35268  0.49029  1.0000
  S   S5        1.0  0.51849  0.30691  0.51307  1.0000
  C   C69       1.0  0.51634  0.32858  0.63995  1.0000
  N   N5        1.0  0.49176  0.36785  0.66292  1.0000
  C   C70       1.0  0.46591000000000005  0.53414  0.57202  1.0000
  F   F19       1.0  0.47465000000000007  0.52834  0.6735  1.0000
  C   C71       1.0  0.47206  0.58976  0.51804  1.0000
  F   F20       1.0  0.48638  0.63658  0.56905  1.0000
  H   H21       1.0  0.48719  0.64464  0.28868  1.0000
  H   H22       1.0  0.4832000000000001  0.69005  0.40298  1.0000
  H   H23       1.0  0.4242000000000001  0.40040999999999993  0.54575  1.0000
  H   H24       1.0  0.43859  0.43471  0.6613499999999999  1.0000
  H   H25       1.0  0.47354  0.35815  0.41477  1.0000
  C   C72       1.0  0.9164900000000001  0.8943400000000001  0.94247  1.0000
  C   C73       1.0  0.95181  0.9038999999999999  0.9586700000000001  1.0000
  C   C74       1.0  0.97256  0.90232  0.87389  1.0000
  F   F21       1.0  0.9616900000000002  0.88667  0.77856  1.0000
  C   C75       1.0  0.004290000000000001  0.9198699999999999  0.8854  1.0000
  F   F22       1.0  0.023330000000000007  0.91997  0.80116  1.0000
  C   C76       1.0  0.015680000000000003  0.9408999999999998  0.98128  1.0000
  C   C77       1.0  0.04812000000000001  0.9696300000000001  0.98961  1.0000
  C   C78       1.0  0.04479  0.039909999999999994  0.98214  1.0000
  C   C79       1.0  0.02906  0.07188  0.90176  1.0000
  S   S6        1.0  0.029710000000000004  0.15106  0.91327  1.0000
  C   C80       1.0  0.05160000000000001  0.1382  0.02543  1.0000
  N   N6        1.0  0.05779  0.07766  0.05214  1.0000
  C   C81       1.0  0.99537  0.94033  0.06691  1.0000
  F   F23       1.0  0.00581  0.96045  0.16024  1.0000
  C   C82       1.0  0.9637900000000001  0.92148  0.05601  1.0000
  F   F24       1.0  0.94451  0.92345  0.13959  1.0000
  H   H26       1.0  0.9071100000000001  0.93117  0.88707  1.0000
  H   H27       1.0  0.9029400000000001  0.90049  0.015079999999999982  1.0000
  H   H28       1.0  0.06384  0.95328  0.9263699999999999  1.0000
  H   H29       1.0  0.06016  0.95476  0.06372  1.0000
  H   H30       1.0  0.01739  0.049449999999999994  0.83772  1.0000
  C   C83       1.0  0.56902  0.06794  0.96067  1.0000
  C   C84       1.0  0.5357000000000001  0.06665  0.004110000000000058  1.0000
  C   C85       1.0  0.50957  0.09367999999999997  0.94764  1.0000
  F   F25       1.0  0.51407  0.12305  0.85507  1.0000
  C   C86       1.0  0.47856  0.09022999999999998  0.9856600000000001  1.0000
  F   F26       1.0  0.45389000000000007  0.11715  0.92975  1.0000
  C   C87       1.0  0.47297  0.05818  0.07944  1.0000
  C   C88       1.0  0.43931  0.05025  0.11676  1.0000
  C   C89       1.0  0.42639  0.9902599999999999  0.07766  1.0000
  C   C90       1.0  0.41986  0.9794599999999999  0.97475  1.0000
  S   S7        1.0  0.40558  0.90684  0.95435  1.0000
  C   C91       1.0  0.40884000000000004  0.89401  0.08562000000000002  1.0000
  N   N7        1.0  0.41997  0.9417999999999999  0.14072  1.0000
  C   C92       1.0  0.4990200000000001  0.031229999999999997  0.136  1.0000
  F   F27       1.0  0.49426  0.99956  0.22633  1.0000
  C   C93       1.0  0.53014  0.03591  0.09921  1.0000
  F   F28       1.0  0.55474  0.00925  0.15573  1.0000
  H   H31       1.0  0.5693  0.04159  0.88729  1.0000
  H   H32       1.0  0.5869100000000002  0.044480000000000006  0.013879999999999892  1.0000
  H   H33       1.0  0.4234  0.09004  0.08969  1.0000
  H   H34       1.0  0.43898  0.0502  0.20283  1.0000
  H   H35       1.0  0.42324  0.01336  0.9129700000000001  1.0000
  C   C94       1.0  0.07572000000000001  0.39335  0.4172  1.0000
  C   C95       1.0  0.04347  0.42683000000000004  0.40695  1.0000
  C   C96       1.0  0.015819999999999942  0.39254000000000006  0.38963  1.0000
  F   F29       1.0  0.01801000000000008  0.32959  0.37688  1.0000
  C   C97       1.0  0.9856100000000002  0.42247999999999997  0.38861  1.0000
  F   F30       1.0  0.95934  0.38772  0.37468  1.0000
  C   C98       1.0  0.98254  0.4871599999999999  0.40662  1.0000
  C   C99       1.0  0.9499400000000002  0.51844  0.41765  1.0000
  C   C100      1.0  0.94352  0.53119  0.52953  1.0000
  C   C101      1.0  0.94528  0.48582999999999993  0.60698  1.0000
  S   S8        1.0  0.93658  0.51444  0.7258  1.0000
  C   C102      1.0  0.93049  0.58639  0.66618  1.0000
  N   N8        1.0  0.9349000000000002  0.58824  0.5631  1.0000
  C   C103      1.0  0.010189999999999923  0.52172  0.42143  1.0000
  F   F31       1.0  0.007810000000000096  0.58416  0.4392  1.0000
  C   C104      1.0  0.04044  0.4919299999999999  0.4212  1.0000
  F   F32       1.0  0.06662  0.52649  0.43812  1.0000
  H   H36       1.0  0.07487  0.35842  0.48191  1.0000
  H   H37       1.0  0.09484  0.42616  0.43713  1.0000
  H   H38       1.0  0.93083  0.48843999999999993  0.38759  1.0000
  H   H39       1.0  0.94859  0.56283  0.37122  1.0000
  H   H40       1.0  0.95162  0.4371  0.59431  1.0000
