data_image0
_chemical_formula_structural       EuOCO6COC2EuOCO6COC2EuOCO6COC2EuOCO6COC10ClCClC2ClCClCH6C8ClCClC2ClCClCH6C8ClCClC2ClCClCH6C8ClCClC2ClCClCH6C8ClCClC2ClCClCH6C8ClCClC2ClCClCH6C8ClCClC2ClCClCH6C8ClCClC2ClCClCH6
_chemical_formula_sum              "Eu4 O32 C120 Cl32 H48"
_cell_length_a       41.4096
_cell_length_b       19.098500000000005
_cell_length_c       9.649
_cell_angle_alpha    86.53840000000001
_cell_angle_beta     93.4573
_cell_angle_gamma    86.5833

_space_group_name_H-M_alt    "P 1"
_space_group_IT_number       1

loop_
  _space_group_symop_operation_xyz
  'x, y, z'

loop_
  _atom_site_type_symbol
  _atom_site_label
  _atom_site_symmetry_multiplicity
  _atom_site_fract_x
  _atom_site_fract_y
  _atom_site_fract_z
  _atom_site_occupancy
  Eu  Eu1       1.0  0.37884  0.7323  0.12749  1.0000
  O   O1        1.0  0.34137999999999996  0.86353  0.0089  1.0000
  C   C1        1.0  0.31564  0.65272  0.09395999999999999  1.0000
  O   O2        1.0  0.4378  0.7606  0.9852199999999999  1.0000
  O   O3        1.0  0.41105999999999987  0.82489  0.13455999999999999  1.0000
  O   O4        1.0  0.44767  0.67244  0.30467999999999995  1.0000
  O   O5        1.0  0.30722  0.68952  0.9890399999999999  1.0000
  O   O6        1.0  0.34834  0.63675  0.12983  1.0000
  O   O7        1.0  0.3379199999999999  0.79918  0.21032999999999996  1.0000
  C   C2        1.0  0.32961  0.85835  0.12148  1.0000
  O   O8        1.0  0.39575999999999995  0.69764  0.35041  1.0000
  C   C3        1.0  0.42304  0.65173  0.3517899999999999  1.0000
  C   C4        1.0  0.43708999999999987  0.81228  0.053399999999999996  1.0000
  Eu  Eu2       1.0  0.8785  0.80422  0.70673  1.0000
  O   O9        1.0  0.8626499999999999  0.96001  0.37706  1.0000
  C   C5        1.0  0.81918  0.71678  0.6643499999999999  1.0000
  O   O10       1.0  0.9094799999999998  0.75923  0.9918699999999999  1.0000
  O   O11       1.0  0.92525  0.83244  0.81989  1.0000
  O   O12       1.0  0.90224  0.65335  0.8217199999999998  1.0000
  O   O13       1.0  0.8380299999999999  0.67308  0.72758  1.0000
  O   O14       1.0  0.8310999999999997  0.77566  0.5979399999999999  1.0000
  O   O15       1.0  0.88883  0.87146  0.5120599999999998  1.0000
  C   C6        1.0  0.8693299999999999  0.93365  0.49418  1.0000
  O   O16       1.0  0.90754  0.71445  0.61711  1.0000
  C   C7        1.0  0.9171499999999999  0.66085  0.71755  1.0000
  C   C8        1.0  0.93067  0.79423  0.9473099999999998  1.0000
  Eu  Eu3       1.0  0.09728999999999999  0.26043  0.1674  1.0000
  O   O17       1.0  0.15119  0.14239  0.13947  1.0000
  C   C9        1.0  0.14888999999999994  0.35951  0.09539  1.0000
  O   O18       1.0  0.07651999999999999  0.15462  0.9542599999999999  1.0000
  O   O19       1.0  0.07658  0.15321  0.18856  1.0000
  O   O20       1.0  0.04139  0.37045  0.25054999999999994  1.0000
  O   O21       1.0  0.15425  0.30787  0.03015  1.0000
  O   O22       1.0  0.11972999999999999  0.36634  0.15889  1.0000
  O   O23       1.0  0.14176  0.21888  0.3041  1.0000
  C   C10       1.0  0.16116999999999998  0.1685  0.24469  1.0000
  O   O24       1.0  0.07458999999999999  0.28585  0.36833  1.0000
  C   C11       1.0  0.05559999999999999  0.34867  0.3603199999999999  1.0000
  C   C12       1.0  0.06969999999999998  0.12435  0.06231999999999999  1.0000
  Eu  Eu4       1.0  0.6325499999999998  0.26253  0.8465999999999999  1.0000
  O   O25       1.0  0.68359  0.15937  0.90797  1.0000
  C   C13       1.0  0.6815999999999999  0.3786  0.86969  1.0000
  O   O26       1.0  0.56955  0.18461000000000002  0.9396299999999999  1.0000
  O   O27       1.0  0.617  0.1501  0.8515299999999999  1.0000
  O   O28       1.0  0.58233  0.37304  0.83543  1.0000
  O   O29       1.0  0.6970599999999999  0.32857  0.93082  1.0000
  O   O30       1.0  0.6487999999999999  0.37456  0.8341199999999999  1.0000
  O   O31       1.0  0.67277  0.2263  0.7095299999999998  1.0000
  C   C14       1.0  0.69159  0.17452  0.79102  1.0000
  O   O32       1.0  0.59282  0.29488  0.6768799999999999  1.0000
  C   C15       1.0  0.57271  0.34624000000000005  0.7305499999999998  1.0000
  C   C16       1.0  0.58947  0.13693  0.9221  1.0000
  C   C17       1.0  0.29153999999999997  0.62449  0.18416  1.0000
  C   C18       1.0  0.2956  0.63019  0.32848999999999995  1.0000
  C   C19       1.0  0.27331999999999995  0.6026  0.4174  1.0000
  C   C20       1.0  0.27726999999999996  0.60926  0.57173  1.0000
  C   C21       1.0  0.24759  0.56672  0.36154  1.0000
  C   C22       1.0  0.24387  0.55893  0.21803  1.0000
  C   C23       1.0  0.2199  0.51122  0.1657  1.0000
  C   C24       1.0  0.22986  0.44063  0.1506  1.0000
  Cl  Cl1       1.0  0.27145  0.41243  0.17709  1.0000
  C   C25       1.0  0.20682999999999999  0.39157  0.12237999999999999  1.0000
  Cl  Cl2       1.0  0.22068  0.3024  0.11476999999999998  1.0000
  C   C26       1.0  0.17331999999999997  0.41285  0.10969  1.0000
  C   C27       1.0  0.16359  0.48481  0.11857  1.0000
  Cl  Cl3       1.0  0.12225999999999998  0.51538  0.09591  1.0000
  C   C28       1.0  0.18690999999999994  0.53369  0.14564999999999997  1.0000
  Cl  Cl4       1.0  0.17477  0.62332  0.1582  1.0000
  C   C29       1.0  0.26549  0.5891  0.12891  1.0000
  H   H1        1.0  0.31586000000000003  0.65698  0.37144  1.0000
  H   H2        1.0  0.29827  0.64024  0.60019  1.0000
  H   H3        1.0  0.2811499999999999  0.5562  0.62617  1.0000
  H   H4        1.0  0.25509  0.63605  0.6081499999999999  1.0000
  H   H5        1.0  0.23102999999999996  0.54279  0.43021  1.0000
  H   H6        1.0  0.26301  0.58183  0.018329999999999996  1.0000
  C   C30       1.0  0.858  0.96929  0.61484  1.0000
  C   C31       1.0  0.87932  0.9742200000000001  0.73182  1.0000
  C   C32       1.0  0.8696199999999998  0.011430000000000051  0.84478  1.0000
  C   C33       1.0  0.8930299999999999  0.019539999999999894  0.9669999999999997  1.0000
  C   C34       1.0  0.8381799999999998  0.04361999999999999  0.8403  1.0000
  C   C35       1.0  0.81667  0.03915000000000001  0.7234199999999998  1.0000
  C   C36       1.0  0.7834599999999999  0.07264000000000001  0.7200399999999998  1.0000
  C   C37       1.0  0.7576599999999998  0.03246999999999999  0.75835  1.0000
  Cl  Cl5       1.0  0.76442  0.9409699999999999  0.7988199999999999  1.0000
  C   C38       1.0  0.7267299999999999  0.06531000000000003  0.7691399999999998  1.0000
  Cl  Cl6       1.0  0.6944799999999999  0.013469999999999996  0.81451  1.0000
  C   C39       1.0  0.7214299999999999  0.13891  0.74411  1.0000
  C   C40       1.0  0.74672  0.17824  0.6953299999999999  1.0000
  Cl  Cl7       1.0  0.7405699999999998  0.26992  0.6577999999999998  1.0000
  C   C41       1.0  0.7777  0.14509  0.68396  1.0000
  Cl  Cl8       1.0  0.8097799999999999  0.1948  0.62868  1.0000
  C   C42       1.0  0.8267799999999998  0.0024800000000000373  0.61046  1.0000
  H   H7        1.0  0.9039099999999999  0.95173  0.73261  1.0000
  H   H8        1.0  0.9162599999999997  0.98821  0.9585899999999999  1.0000
  H   H9        1.0  0.88231  0.0016799999999999038  0.06478  1.0000
  H   H10       1.0  0.8983599999999999  0.07576000000000001  0.9713899999999999  1.0000
  H   H11       1.0  0.83044  0.07202  0.9276699999999999  1.0000
  H   H12       1.0  0.81032  0.9995199999999999  0.51962  1.0000
  C   C43       1.0  0.19386999999999982  0.14801  0.31  1.0000
  C   C44       1.0  0.20585999999999996  0.18398  0.42327  1.0000
  C   C45       1.0  0.2372299999999999  0.16744  0.4837399999999999  1.0000
  C   C46       1.0  0.25029  0.20711  0.60237  1.0000
  C   C47       1.0  0.25661999999999996  0.11372000000000002  0.43197  1.0000
  C   C48       1.0  0.24499999999999994  0.07727  0.31918  1.0000
  C   C49       1.0  0.26593  0.02161  0.26333  1.0000
  C   C50       1.0  0.2938  0.03916  0.19537999999999997  1.0000
  Cl  Cl9       1.0  0.30266000000000004  0.12827  0.16829999999999995  1.0000
  C   C51       1.0  0.31444  0.9861099999999999  0.14703999999999998  1.0000
  Cl  Cl10      1.0  0.3504  0.009619999999999962  0.07059  1.0000
  C   C52       1.0  0.3071099999999999  0.9149  0.16498  1.0000
  C   C53       1.0  0.27865  0.8977600000000001  0.22952999999999998  1.0000
  Cl  Cl11      1.0  0.26737  0.80985  0.24337999999999999  1.0000
  C   C54       1.0  0.2584  0.95079  0.28010999999999997  1.0000
  Cl  Cl12      1.0  0.22386  0.92789  0.36797999999999986  1.0000
  C   C55       1.0  0.21367  0.09452  0.25842999999999994  1.0000
  H   H13       1.0  0.191  0.22572  0.46351  1.0000
  H   H14       1.0  0.23223  0.24813999999999997  0.63172  1.0000
  H   H15       1.0  0.27229  0.23315000000000002  0.5718199999999999  1.0000
  H   H16       1.0  0.25677  0.17024  0.69469  1.0000
  H   H17       1.0  0.28088  0.10068999999999999  0.47862999999999994  1.0000
  H   H18       1.0  0.20492999999999997  0.06631  0.17094  1.0000
  C   C56       1.0  0.78388  0.70908  0.6638  1.0000
  C   C57       1.0  0.76216  0.76745  0.62622  1.0000
  C   C58       1.0  0.72865  0.76228  0.63356  1.0000
  C   C59       1.0  0.70539  0.82456  0.59425  1.0000
  C   C60       1.0  0.7167799999999999  0.69812  0.67805  1.0000
  C   C61       1.0  0.73812  0.6390600000000001  0.7135799999999998  1.0000
  C   C62       1.0  0.72508  0.57076  0.75361  1.0000
  C   C63       1.0  0.72976  0.54143  0.89157  1.0000
  Cl  Cl13      1.0  0.75173  0.58567  0.018760000000000106  1.0000
  C   C64       1.0  0.7161999999999998  0.47772  0.9295999999999999  1.0000
  Cl  Cl14      1.0  0.72144  0.44293000000000005  0.10420999999999969  1.0000
  C   C65       1.0  0.6974  0.44366  0.83028  1.0000
  C   C66       1.0  0.6930499999999998  0.47285  0.692  1.0000
  Cl  Cl15      1.0  0.67065  0.43002  0.56377  1.0000
  C   C67       1.0  0.70725  0.53546  0.65353  1.0000
  Cl  Cl16      1.0  0.70354  0.56847  0.47753  1.0000
  C   C68       1.0  0.77162  0.64469  0.7065399999999998  1.0000
  H   H19       1.0  0.77134  0.81736  0.59365  1.0000
  H   H20       1.0  0.7182999999999999  0.8713999999999998  0.56034  1.0000
  H   H21       1.0  0.6914099999999997  0.8374200000000002  0.68521  1.0000
  H   H22       1.0  0.6883299999999999  0.81162  0.5074999999999998  1.0000
  H   H23       1.0  0.69087  0.69387  0.6835899999999998  1.0000
  H   H24       1.0  0.78803  0.59885  0.73371  1.0000
  C   C69       1.0  0.42171999999999993  0.57805  0.40569  1.0000
  C   C70       1.0  0.3916399999999999  0.54824  0.41514  1.0000
  C   C71       1.0  0.39013  0.47741  0.4604999999999999  1.0000
  C   C72       1.0  0.35808  0.44511  0.46936999999999995  1.0000
  C   C73       1.0  0.41887  0.43665  0.49966  1.0000
  C   C74       1.0  0.44898999999999994  0.46633  0.4947899999999999  1.0000
  C   C75       1.0  0.47909  0.42615  0.55164  1.0000
  C   C76       1.0  0.4839  0.40979000000000004  0.69602  1.0000
  Cl  Cl17      1.0  0.45275999999999994  0.42982  0.8079999999999999  1.0000
  C   C77       1.0  0.51396  0.38003  0.7530499999999998  1.0000
  Cl  Cl18      1.0  0.51864  0.35789  0.93443  1.0000
  C   C78       1.0  0.53988  0.36784  0.66657  1.0000
  C   C79       1.0  0.53447  0.3808199999999999  0.52113  1.0000
  Cl  Cl19      1.0  0.56623  0.36664  0.40957  1.0000
  C   C80       1.0  0.50405  0.40927  0.46398  1.0000
  Cl  Cl20      1.0  0.49722  0.42406  0.28155  1.0000
  C   C81       1.0  0.45029999999999987  0.53667  0.44548  1.0000
  H   H25       1.0  0.3694099999999999  0.57974  0.38554  1.0000
  H   H26       1.0  0.3374799999999999  0.48385000000000006  0.43773  1.0000
  H   H27       1.0  0.3552999999999999  0.42474999999999996  0.5779799999999999  1.0000
  H   H28       1.0  0.35702999999999996  0.40095  0.39987  1.0000
  H   H29       1.0  0.41778  0.3822400000000001  0.5366699999999999  1.0000
  H   H30       1.0  0.4735899999999999  0.55966  0.44189  1.0000
  C   C82       1.0  0.962  0.79648  0.02706000000000008  1.0000
  C   C83       1.0  0.9740799999999997  0.74046  0.12076999999999999  1.0000
  C   C84       1.0  0.0040599999999999525  0.74368  0.19592  1.0000
  C   C85       1.0  0.017300000000000093  0.68408  0.29573999999999995  1.0000
  C   C86       1.0  0.021549999999999996  0.80398  0.17929999999999996  1.0000
  C   C87       1.0  0.009430000000000048  0.86002  0.0867  1.0000
  C   C88       1.0  0.025530000000000008  0.9266799999999998  0.08046  1.0000
  C   C89       1.0  0.013619999999999995  0.9822  0.15609  1.0000
  Cl  Cl21      1.0  0.98119  0.96996  0.26471  1.0000
  C   C90       1.0  0.02743  0.04737  0.14608  1.0000
  Cl  Cl22      1.0  0.010079999999999999  0.11783  0.23338  1.0000
  C   C91       1.0  0.053799999999999994  0.05714000000000002  0.06222999999999999  1.0000
  C   C92       1.0  0.06570999999999999  0.0012300000000000028  0.9861499999999999  1.0000
  Cl  Cl23      1.0  0.09921  0.01114  0.8829899999999999  1.0000
  C   C93       1.0  0.05139999999999999  0.93623  0.99474  1.0000
  Cl  Cl24      1.0  0.06584  0.86656  0.8977899999999999  1.0000
  C   C94       1.0  0.9800499999999998  0.8556499999999999  0.009360000000000035  1.0000
  H   H31       1.0  0.96037  0.69425  0.13414  1.0000
  H   H32       1.0  0.00012999999999996532  0.64166  0.3042  1.0000
  H   H33       1.0  0.021849999999999925  0.70394  0.40046  1.0000
  H   H34       1.0  0.0405  0.66166  0.26002  1.0000
  H   H35       1.0  0.044039999999999996  0.80817  0.24108999999999997  1.0000
  H   H36       1.0  0.9706599999999999  0.89986  0.9397199999999999  1.0000
  C   C95       1.0  0.5854  0.06411  0.9754899999999999  1.0000
  C   C96       1.0  0.61315  0.0183  0.0020500000000001073  1.0000
  C   C97       1.0  0.6106299999999999  0.9476299999999999  0.04415999999999997  1.0000
  C   C98       1.0  0.6404399999999999  0.8988899999999999  0.07044999999999967  1.0000
  C   C99       1.0  0.57996  0.9223399999999999  0.05962  1.0000
  C   C100      1.0  0.55192  0.96736  0.034580000000000055  1.0000
  C   C101      1.0  0.51987  0.9373199999999999  0.04085999999999967  1.0000
  C   C102      1.0  0.50263  0.9229599999999999  0.91658  1.0000
  Cl  Cl25      1.0  0.5169399999999998  0.9497000000000001  0.7537399999999997  1.0000
  C   C103      1.0  0.47476999999999997  0.88456  0.9210199999999998  1.0000
  Cl  Cl26      1.0  0.4534599999999999  0.8674599999999999  0.76332  1.0000
  C   C104      1.0  0.46390999999999993  0.86007  0.04998  1.0000
  C   C105      1.0  0.48018  0.87775  0.17475  1.0000
  Cl  Cl27      1.0  0.4669099999999999  0.8486700000000001  0.3381  1.0000
  C   C106      1.0  0.50832  0.91555  0.17001  1.0000
  Cl  Cl28      1.0  0.52972  0.9338600000000001  0.32652  1.0000
  C   C107      1.0  0.55467  0.03858000000000001  0.9936699999999999  1.0000
  H   H37       1.0  0.6369  0.03774000000000001  0.98964  1.0000
  H   H38       1.0  0.6628799999999999  0.9269000000000001  0.055589999999999806  1.0000
  H   H39       1.0  0.6395399999999999  0.85633  0.99711  1.0000
  H   H40       1.0  0.6415899999999999  0.87549  0.17896999999999985  1.0000
  H   H41       1.0  0.57786  0.86718  0.08806000000000003  1.0000
  H   H42       1.0  0.53302  0.07303  0.9714799999999999  1.0000
  C   C108      1.0  0.053669999999999995  0.38835  0.4862899999999999  1.0000
  C   C109      1.0  0.07763  0.37357  0.59466  1.0000
  C   C110      1.0  0.07695  0.4095799999999999  0.71609  1.0000
  C   C111      1.0  0.10256000000000001  0.39344999999999997  0.83007  1.0000
  C   C112      1.0  0.051699999999999996  0.45960999999999996  0.7321099999999999  1.0000
  C   C113      1.0  0.027219999999999998  0.47429  0.6260599999999998  1.0000
  C   C114      1.0  0.9991499999999999  0.52239  0.6504599999999998  1.0000
  C   C115      1.0  0.96825  0.4959100000000001  0.6606099999999998  1.0000
  Cl  Cl29      1.0  0.9630499999999999  0.40527  0.6479199999999999  1.0000
  C   C116      1.0  0.94148  0.5411  0.68462  1.0000
  Cl  Cl30      1.0  0.90269  0.50758  0.69348  1.0000
  C   C117      1.0  0.94539  0.6131  0.6975999999999998  1.0000
  C   C118      1.0  0.9763899999999999  0.63942  0.69107  1.0000
  Cl  Cl31      1.0  0.98193  0.72937  0.71148  1.0000
  C   C119      1.0  0.003289999999999999  0.59395  0.66986  1.0000
  Cl  Cl32      1.0  0.04221999999999999  0.62732  0.66676  1.0000
  C   C120      1.0  0.02859999999999999  0.43976  0.5014599999999999  1.0000
  H   H43       1.0  0.09699999999999999  0.33378  0.5851399999999999  1.0000
  H   H44       1.0  0.12108999999999998  0.35335  0.80098  1.0000
  H   H45       1.0  0.09082  0.37295999999999996  0.92312  1.0000
  H   H46       1.0  0.11484999999999997  0.44202  0.8519999999999998  1.0000
  H   H47       1.0  0.05075999999999999  0.4862  0.8281499999999998  1.0000
  H   H48       1.0  0.00966  0.45135  0.41931999999999997  1.0000
