data_image0
_chemical_formula_structural       EuOCO6COC2EuOCO6COC2EuOCO6COC2EuOCO6COC7BrCH3C5BrCH3C5BrCH3C5BrCH3C5BrCH3C5BrCH3C5BrCH3C5BrCH3
_chemical_formula_sum              "Eu4 O32 C64 Br8 H24"
_cell_length_a       30.054
_cell_length_b       13.7851
_cell_length_c       6.641
_cell_angle_alpha    80.0837
_cell_angle_beta     97.3809
_cell_angle_gamma    89.35139999999998

_symmetry_space_group_name_H-M    'P 1'
_symmetry_Int_Tables_number       1

loop_
  _symmetry_equiv_pos_as_xyz
  'x,y,z'

loop_
  _atom_site_type_symbol
  _atom_site_label
  _atom_site_symmetry_multiplicity
  _atom_site_fract_x
  _atom_site_fract_y
  _atom_site_fract_z
  _atom_site_occupancy
  Eu  Eu1       1.0  0.34945  0.7501499999999998  0.33852  1.0000
  O   O1        1.0  0.25818  0.8800599999999997  0.3828  1.0000
  C   C1        1.0  0.25822  0.64546  0.40701  1.0000
  O   O2        1.0  0.4211  0.69234  0.08906  1.0000
  O   O3        1.0  0.40043000000000006  0.83829  0.16241  1.0000
  O   O4        1.0  0.47463  0.72819  0.56264  1.0000
  O   O5        1.0  0.22299  0.6552199999999998  0.47499  1.0000
  O   O6        1.0  0.29766  0.66879  0.52114  1.0000
  O   O7        1.0  0.3334  0.88838  0.46184  1.0000
  C   C2        1.0  0.29134  0.92984  0.37768  1.0000
  O   O8        1.0  0.4027400000000001  0.70837  0.62056  1.0000
  C   C3        1.0  0.4434700000000001  0.6728299999999998  0.57795  1.0000
  C   C4        1.0  0.43053  0.77752  0.09611  1.0000
  Eu  Eu2       1.0  0.8923100000000003  0.73706  0.7889399999999999  1.0000
  O   O9        1.0  0.8371000000000002  0.9081799999999999  0.89395  1.0000
  C   C5        1.0  0.8147300000000002  0.5902599999999998  0.78165  1.0000
  O   O10       1.0  0.9873000000000001  0.7042599999999998  0.95891  1.0000
  O   O11       1.0  0.94265  0.83957  0.92199  1.0000
  O   O12       1.0  0.92164  0.5701399999999998  0.56077  1.0000
  O   O13       1.0  0.81275  0.61838  0.94456  1.0000
  O   O14       1.0  0.84316  0.6353299999999997  0.64727  1.0000
  O   O15       1.0  0.8504800000000002  0.86615  0.59345  1.0000
  C   C6        1.0  0.8231900000000002  0.9065399999999998  0.71385  1.0000
  O   O16       1.0  0.9366000000000002  0.73158  0.53591  1.0000
  C   C7        1.0  0.94787  0.63511  0.52098  1.0000
  C   C8        1.0  0.98483  0.7925999999999997  0.9583299999999999  1.0000
  Eu  Eu3       1.0  0.12027  0.28802  0.11246  1.0000
  O   O17       1.0  0.23222  0.35084999999999994  0.3178  1.0000
  C   C9        1.0  0.17983999999999997  0.4522199999999999  0.9065799999999999  1.0000
  O   O18       1.0  0.03555000000000001  0.16375999999999996  0.9594499999999999  1.0000
  O   O19       1.0  0.09542000000000003  0.13388  0.20845  1.0000
  O   O20       1.0  0.02619  0.38623  0.13261  1.0000
  O   O21       1.0  0.17797  0.4104099999999999  0.75789  1.0000
  O   O22       1.0  0.1449  0.44433  0.02637  1.0000
  O   O23       1.0  0.18053  0.23513  0.35714  1.0000
  C   C10       1.0  0.22156000000000006  0.26736  0.30191  1.0000
  O   O24       1.0  0.08823  0.34457999999999994  0.36355  1.0000
  C   C11       1.0  0.051040000000000016  0.4056599999999999  0.27928  1.0000
  C   C12       1.0  0.06295  0.10413999999999997  0.06553  1.0000
  Eu  Eu4       1.0  0.6131900000000002  0.20885999999999993  0.9189599999999999  1.0000
  O   O25       1.0  0.7005500000000002  0.12677999999999995  0.90404  1.0000
  C   C13       1.0  0.6838400000000003  0.36905  0.8566399999999998  1.0000
  O   O26       1.0  0.50994  0.11908999999999995  0.94797  1.0000
  O   O27       1.0  0.5813  0.07421999999999997  0.0916300000000001  1.0000
  O   O28       1.0  0.56739  0.40224999999999994  0.8453  1.0000
  O   O29       1.0  0.68249  0.3698699999999999  0.03882999999999992  1.0000
  O   O30       1.0  0.6479000000000003  0.33468  0.73882  1.0000
  O   O31       1.0  0.63586  0.11282999999999999  0.70201  1.0000
  C   C14       1.0  0.6816500000000002  0.09263999999999997  0.75955  1.0000
  O   O32       1.0  0.5481000000000003  0.26605  0.7147  1.0000
  C   C15       1.0  0.53962  0.36273  0.73889  1.0000
  C   C16       1.0  0.5381800000000002  0.05303999999999999  0.00939000000000001  1.0000
  C   C17       1.0  0.25837  0.6016  0.21802  1.0000
  C   C18       1.0  0.21890000000000007  0.56238  0.13002  1.0000
  C   C19       1.0  0.21967000000000006  0.50811  0.96903  1.0000
  C   C20       1.0  0.26037  0.4963199999999999  0.89232  1.0000
  C   C21       1.0  0.29940000000000005  0.5364499999999999  0.97631  1.0000
  Br  Br1       1.0  0.35543000000000013  0.51073  0.88797  1.0000
  C   C22       1.0  0.2982900000000001  0.5895499999999998  0.13616  1.0000
  H   H1        1.0  0.18804000000000007  0.5688999999999999  0.19556  1.0000
  H   H2        1.0  0.26221  0.45247  0.7729  1.0000
  H   H3        1.0  0.32897  0.61846  0.19884999999999997  1.0000
  C   C23       1.0  0.7768900000000002  0.9415199999999998  0.6274799999999999  1.0000
  C   C24       1.0  0.7525400000000002  0.0028900000000000124  0.7257099999999999  1.0000
  C   C25       1.0  0.7071900000000001  0.02948  0.65245  1.0000
  C   C26       1.0  0.68634  0.9931  0.48034  1.0000
  C   C27       1.0  0.7105600000000001  0.9322999999999998  0.38194  1.0000
  Br  Br2       1.0  0.68185  0.8781399999999998  0.15546  1.0000
  C   C28       1.0  0.7556200000000002  0.90733  0.45397  1.0000
  H   H4        1.0  0.7688200000000002  0.02894999999999999  0.86062  1.0000
  H   H5        1.0  0.6513200000000002  0.01096  0.4234  1.0000
  H   H6        1.0  0.7734800000000002  0.85851  0.37803  1.0000
  C   C29       1.0  0.25374  0.19884999999999994  0.24319999999999997  1.0000
  C   C30       1.0  0.25334  0.09698999999999998  0.31736  1.0000
  C   C31       1.0  0.28782000000000013  0.034359999999999946  0.28363  1.0000
  C   C32       1.0  0.32119  0.07279999999999975  0.16654  1.0000
  C   C33       1.0  0.32028  0.17264999999999994  0.08287  1.0000
  Br  Br3       1.0  0.36675000000000013  0.2236299999999999  0.92855  1.0000
  C   C34       1.0  0.2869400000000001  0.23550999999999994  0.12207  1.0000
  H   H7        1.0  0.22794  0.06739000000000007  0.41038  1.0000
  H   H8        1.0  0.34799  0.025209999999999736  0.14025  1.0000
  H   H9        1.0  0.28795  0.31325  0.06371  1.0000
  C   C35       1.0  0.7873900000000003  0.50857  0.72362  1.0000
  C   C36       1.0  0.74995  0.4776699999999999  0.82228  1.0000
  C   C37       1.0  0.72359  0.4020399999999999  0.75868  1.0000
  C   C38       1.0  0.73548  0.35609999999999997  0.59939  1.0000
  C   C39       1.0  0.77339  0.38428  0.5059  1.0000
  Br  Br4       1.0  0.7910400000000002  0.3161499999999999  0.3001  1.0000
  C   C40       1.0  0.79896  0.46074  0.56606  1.0000
  H   H10       1.0  0.74074  0.51361  0.94453  1.0000
  H   H11       1.0  0.7159  0.29677  0.55056  1.0000
  H   H12       1.0  0.8282100000000002  0.4816899999999999  0.49116  1.0000
  C   C41       1.0  0.4500700000000002  0.56749  0.56825  1.0000
  C   C42       1.0  0.4917800000000001  0.51834  0.6408  1.0000
  C   C43       1.0  0.49713  0.4162999999999999  0.64364  1.0000
  C   C44       1.0  0.46069  0.36483  0.56578  1.0000
  C   C45       1.0  0.4193100000000001  0.41375  0.4928999999999999  1.0000
  Br  Br5       1.0  0.36908  0.3427099999999999  0.40028  1.0000
  C   C46       1.0  0.4140100000000001  0.51416  0.49549  1.0000
  H   H13       1.0  0.51957  0.55886  0.70155  1.0000
  H   H14       1.0  0.46385  0.28634  0.56743  1.0000
  H   H15       1.0  0.38152  0.5500500000000001  0.44511  1.0000
  C   C47       1.0  0.02621000000000007  0.84838  0.98986  1.0000
  C   C48       1.0  0.023959999999999985  0.9488199999999999  0.0064199999999999995  1.0000
  C   C49       1.0  0.06359  0.00026000000000000003  0.04036  1.0000
  C   C50       1.0  0.10529000000000002  0.9517199999999999  0.053080000000000016  1.0000
  C   C51       1.0  0.10777000000000003  0.8535799999999998  0.029730000000000034  1.0000
  Br  Br6       1.0  0.16524000000000005  0.7919499999999998  0.03811999999999993  1.0000
  C   C52       1.0  0.06856000000000002  0.8015799999999997  0.99995  1.0000
  H   H16       1.0  0.9917200000000003  0.98629  0.99779  1.0000
  H   H17       1.0  0.13609  0.9906999999999999  0.07756999999999992  1.0000
  H   H18       1.0  0.07129999999999999  0.72499  0.9836099999999999  1.0000
  C   C53       1.0  0.52673  0.9494099999999999  0.0051000000000001044  1.0000
  C   C54       1.0  0.4840700000000001  0.91509  0.04115000000000002  1.0000
  C   C55       1.0  0.4743600000000001  0.8150499999999998  0.0445  1.0000
  C   C56       1.0  0.50769  0.7502499999999998  0.00825  1.0000
  C   C57       1.0  0.5496700000000002  0.7846599999999998  0.9670699999999999  1.0000
  Br  Br7       1.0  0.5942000000000002  0.6959299999999999  0.91303  1.0000
  C   C58       1.0  0.55919  0.8836099999999999  0.96637  1.0000
  H   H19       1.0  0.45899  0.96575  0.07176000000000005  1.0000
  H   H20       1.0  0.50128  0.67281  0.01245  1.0000
  H   H21       1.0  0.59167  0.90961  0.93224  1.0000
  C   C59       1.0  0.04302  0.49560999999999994  0.36211  1.0000
  C   C60       1.0  0.99958  0.52401  0.39011999999999997  1.0000
  C   C61       1.0  0.9923000000000002  0.61069  0.4679199999999999  1.0000
  C   C62       1.0  0.028630000000000003  0.6704899999999998  0.50985  1.0000
  C   C63       1.0  0.07194  0.6416999999999999  0.48417999999999994  1.0000
  Br  Br8       1.0  0.12124  0.72113  0.5515  1.0000
  C   C64       1.0  0.07924999999999999  0.55408  0.41272999999999993  1.0000
  H   H22       1.0  0.97172  0.47771  0.35539  1.0000
  H   H23       1.0  0.02373  0.7376599999999998  0.56927  1.0000
  H   H24       1.0  0.11301000000000005  0.5327499999999998  0.39282  1.0000
