data_image0
_chemical_formula_structural       EuOCO6COC2EuOCO6COC2EuOCO6COC2EuOCO6COC4ClCClC10ClCClH14C2ClCClC10ClCClH14C2ClCClC10ClCClH14C2ClCClC10ClCClH14C2ClCClC10ClCClH14C2ClCClC10ClCClH14C2ClCClC10ClCClH14C2ClCClC10ClCClH14
_chemical_formula_sum              "Eu4 O32 C128 Cl32 H112"
_cell_length_a       41.4749
_cell_length_b       20.0579
_cell_length_c       12.750799999999998
_cell_angle_alpha    91.66540000000002
_cell_angle_beta     92.7414
_cell_angle_gamma    87.5727

_space_group_name_H-M_alt    "P 1"
_space_group_IT_number       1

loop_
  _space_group_symop_operation_xyz
  'x, y, z'

loop_
  _atom_site_type_symbol
  _atom_site_label
  _atom_site_symmetry_multiplicity
  _atom_site_fract_x
  _atom_site_fract_y
  _atom_site_fract_z
  _atom_site_occupancy
  Eu  Eu1       1.0  0.3841  0.76098  0.22883  1.0000
  O   O1        1.0  0.32069  0.79418  0.40664  1.0000
  C   C1        1.0  0.33978  0.64062  0.18609  1.0000
  O   O2        1.0  0.40042000000000005  0.8482100000000001  0.04911999999999998  1.0000
  O   O3        1.0  0.42634  0.82702  0.20494999999999994  1.0000
  O   O4        1.0  0.42561  0.63673  0.21266999999999994  1.0000
  O   O5        1.0  0.36057  0.6292  0.12292  1.0000
  O   O6        1.0  0.34142  0.69599  0.25405  1.0000
  O   O7        1.0  0.36744  0.83396  0.3583199999999999  1.0000
  C   C2        1.0  0.33381  0.8373000000000002  0.36036  1.0000
  O   O8        1.0  0.41495  0.70408  0.3517399999999999  1.0000
  C   C3        1.0  0.43066999999999994  0.64886  0.30599  1.0000
  C   C4        1.0  0.42084999999999995  0.86518  0.11567999999999999  1.0000
  Eu  Eu2       1.0  0.88276  0.73538  0.7520599999999997  1.0000
  O   O9        1.0  0.84323  0.852  0.8068999999999998  1.0000
  C   C5        1.0  0.82351  0.65812  0.7988099999999998  1.0000
  O   O10       1.0  0.9028599999999999  0.81891  0.9432699999999998  1.0000
  O   O11       1.0  0.9198399999999999  0.8153600000000001  0.77834  1.0000
  O   O12       1.0  0.9147400000000001  0.59369  0.69649  1.0000
  O   O13       1.0  0.82423  0.70388  0.86372  1.0000
  O   O14       1.0  0.84629  0.65422  0.7221899999999999  1.0000
  O   O15       1.0  0.8518  0.8056  0.64755  1.0000
  C   C6        1.0  0.83688  0.85312  0.7127199999999999  1.0000
  O   O16       1.0  0.9136000000000001  0.6936  0.6207499999999999  1.0000
  C   C7        1.0  0.93014  0.63604  0.6565399999999999  1.0000
  C   C8        1.0  0.9217399999999998  0.8386100000000001  0.8818999999999998  1.0000
  Eu  Eu3       1.0  0.11111  0.26876999999999995  0.21491999999999994  1.0000
  O   O17       1.0  0.15997  0.17981  0.14071  1.0000
  C   C9        1.0  0.15264  0.38759  0.18734999999999996  1.0000
  O   O18       1.0  0.04061  0.23976  0.13628  1.0000
  O   O19       1.0  0.08607  0.17487  0.15723  1.0000
  O   O20       1.0  0.05861000000000001  0.36458  0.23971999999999993  1.0000
  O   O21       1.0  0.14842  0.36251  0.09955999999999997  1.0000
  O   O22       1.0  0.1377  0.36068  0.27099  1.0000
  O   O23       1.0  0.14779  0.20344  0.3073  1.0000
  C   C10       1.0  0.16593  0.16873  0.23321999999999998  1.0000
  O   O24       1.0  0.07789  0.28586  0.3509599999999999  1.0000
  C   C11       1.0  0.05791  0.34121  0.3266599999999999  1.0000
  C   C12       1.0  0.055539999999999985  0.18858000000000003  0.11066999999999999  1.0000
  Eu  Eu4       1.0  0.61125  0.24662000000000003  0.7299199999999998  1.0000
  O   O25       1.0  0.64473  0.11712999999999998  0.75418  1.0000
  C   C13       1.0  0.65672  0.34877  0.8193499999999998  1.0000
  O   O26       1.0  0.57204  0.21393  0.9012799999999997  1.0000
  O   O27       1.0  0.57849  0.15966  0.74674  1.0000
  O   O28       1.0  0.5864  0.3938900000000001  0.62111  1.0000
  O   O29       1.0  0.65299  0.30939  0.8887  1.0000
  O   O30       1.0  0.64362  0.33461  0.7190099999999998  1.0000
  O   O31       1.0  0.64256  0.18565  0.6173  1.0000
  C   C14       1.0  0.65397  0.1278  0.66698  1.0000
  O   O32       1.0  0.57748  0.28453  0.5968499999999999  1.0000
  C   C15       1.0  0.56689  0.34993  0.6199899999999999  1.0000
  C   C16       1.0  0.56546  0.16577  0.84505  1.0000
  C   C17       1.0  0.31236  0.59652  0.19111999999999998  1.0000
  C   C18       1.0  0.31717  0.53114  0.22621  1.0000
  Cl  Cl1       1.0  0.35699  0.49888  0.25389  1.0000
  C   C19       1.0  0.29053  0.492  0.24233999999999994  1.0000
  Cl  Cl2       1.0  0.29902  0.40902999999999995  0.28302999999999995  1.0000
  C   C20       1.0  0.25818  0.51872  0.22670999999999994  1.0000
  C   C21       1.0  0.22969  0.47685  0.25797  1.0000
  C   C22       1.0  0.20614  0.5104  0.33407999999999993  1.0000
  C   C23       1.0  0.1761  0.46953999999999996  0.32124  1.0000
  C   C24       1.0  0.17264  0.44939000000000007  0.20351999999999995  1.0000
  C   C25       1.0  0.1529  0.50594  0.14603  1.0000
  C   C26       1.0  0.20906999999999998  0.43892000000000003  0.16964999999999997  1.0000
  C   C27       1.0  0.22037  0.36381  0.17085  1.0000
  C   C28       1.0  0.2143  0.46212  0.05697999999999999  1.0000
  C   C29       1.0  0.254  0.58434  0.18607  1.0000
  Cl  Cl3       1.0  0.21588  0.62406  0.15866  1.0000
  C   C30       1.0  0.28096  0.62172  0.16692999999999994  1.0000
  Cl  Cl4       1.0  0.27552  0.70059  0.10831  1.0000
  H   H1        1.0  0.24057  0.43791  0.31006  1.0000
  H   H2        1.0  0.19958  0.5628800000000002  0.31738  1.0000
  H   H3        1.0  0.21610999999999997  0.50917  0.4167199999999999  1.0000
  H   H4        1.0  0.18035  0.4244200000000001  0.36972  1.0000
  H   H5        1.0  0.15452  0.4979199999999999  0.3501399999999999  1.0000
  H   H6        1.0  0.16371  0.55483  0.15963999999999995  1.0000
  H   H7        1.0  0.15038  0.4952  0.060149999999999995  1.0000
  H   H8        1.0  0.12806  0.51092  0.17545999999999995  1.0000
  H   H9        1.0  0.21554  0.34148  0.24704999999999994  1.0000
  H   H10       1.0  0.20814  0.33428  0.10689999999999997  1.0000
  H   H11       1.0  0.24667999999999998  0.35808  0.15888999999999995  1.0000
  H   H12       1.0  0.20723000000000003  0.51504  0.04558  1.0000
  H   H13       1.0  0.24005999999999997  0.45476  0.03753999999999999  1.0000
  H   H14       1.0  0.19966  0.43255999999999994  0.99873  1.0000
  C   C31       1.0  0.8131600000000001  0.90392  0.67062  1.0000
  C   C32       1.0  0.81686  0.97168  0.6971  1.0000
  Cl  Cl5       1.0  0.8518500000000001  0.99685  0.7704299999999997  1.0000
  C   C33       1.0  0.79296  0.019919999999999997  0.6664599999999998  1.0000
  Cl  Cl6       1.0  0.80087  0.10444  0.69986  1.0000
  C   C34       1.0  0.76365  0.0009799999999999813  0.6124899999999999  1.0000
  C   C35       1.0  0.73596  0.05495  0.59682  1.0000
  C   C36       1.0  0.71906  0.061889999999999994  0.4880499999999999  1.0000
  C   C37       1.0  0.68804  0.1024  0.50943  1.0000
  C   C38       1.0  0.67641  0.07664  0.61352  1.0000
  C   C39       1.0  0.65567  0.015189999999999999  0.58706  1.0000
  C   C40       1.0  0.70908  0.05998  0.68026  1.0000
  C   C41       1.0  0.7176  0.11742  0.7607499999999999  1.0000
  C   C42       1.0  0.70758  0.9961  0.74519  1.0000
  C   C43       1.0  0.76071  0.93195  0.5834  1.0000
  Cl  Cl7       1.0  0.72618  0.90052  0.5157  1.0000
  C   C44       1.0  0.78556  0.8845  0.61127  1.0000
  Cl  Cl8       1.0  0.7809200000000001  0.79886  0.5782  1.0000
  H   H15       1.0  0.74771  0.10351000000000002  0.6013999999999999  1.0000
  H   H16       1.0  0.71267  0.0145  0.44883  1.0000
  H   H17       1.0  0.73405  0.08834  0.4336999999999999  1.0000
  H   H18       1.0  0.69406  0.1559  0.5187099999999999  1.0000
  H   H19       1.0  0.66988  0.0975  0.44285  1.0000
  H   H20       1.0  0.66924  0.9754599999999999  0.5437699999999999  1.0000
  H   H21       1.0  0.64676  0.99398  0.65927  1.0000
  H   H22       1.0  0.63401  0.02999  0.5369  1.0000
  H   H23       1.0  0.71705  0.16641  0.7219299999999998  1.0000
  H   H24       1.0  0.70075  0.12117  0.8258399999999998  1.0000
  H   H25       1.0  0.74204  0.10825  0.79797  1.0000
  H   H26       1.0  0.70273  0.9513999999999999  0.6953499999999998  1.0000
  H   H27       1.0  0.7307  0.9861200000000001  0.79069  1.0000
  H   H28       1.0  0.68809  0.002169999999999997  0.8018999999999997  1.0000
  C   C45       1.0  0.19157000000000002  0.11814  0.26331  1.0000
  C   C46       1.0  0.18616  0.06974  0.33731  1.0000
  Cl  Cl9       1.0  0.14958  0.07237  0.40392  1.0000
  C   C47       1.0  0.20885  0.016450000000000076  0.35447  1.0000
  Cl  Cl10      1.0  0.20072  0.9592200000000001  0.45242  1.0000
  C   C48       1.0  0.23697000000000001  0.0087  0.29416  1.0000
  C   C49       1.0  0.25741  0.9421400000000001  0.29944  1.0000
  C   C50       1.0  0.2631  0.9058099999999999  0.19430999999999995  1.0000
  C   C51       1.0  0.29068  0.85572  0.21881  1.0000
  C   C52       1.0  0.31371  0.89071  0.29915  1.0000
  C   C53       1.0  0.33753  0.9298200000000001  0.23611999999999997  1.0000
  C   C54       1.0  0.29025  0.9382899999999998  0.36727999999999994  1.0000
  C   C55       1.0  0.28361  0.90795  0.47474  1.0000
  C   C56       1.0  0.30401  0.00769  0.3953099999999999  1.0000
  C   C57       1.0  0.24322999999999997  0.061079999999999995  0.22533999999999996  1.0000
  Cl  Cl11      1.0  0.27828  0.06219  0.1521  1.0000
  C   C58       1.0  0.22085  0.11528000000000001  0.21161999999999995  1.0000
  Cl  Cl12      1.0  0.22984  0.18092  0.12866  1.0000
  H   H29       1.0  0.24164  0.90588  0.3332099999999999  1.0000
  H   H30       1.0  0.27018  0.93832  0.13207999999999998  1.0000
  H   H31       1.0  0.24125  0.8798500000000001  0.16361999999999993  1.0000
  H   H32       1.0  0.28032  0.81179  0.25414999999999993  1.0000
  H   H33       1.0  0.30265  0.83826  0.14615999999999998  1.0000
  H   H34       1.0  0.35173  0.89522  0.18467999999999996  1.0000
  H   H35       1.0  0.3249  0.9665  0.18411  1.0000
  H   H36       1.0  0.35494  0.9561100000000001  0.28983  1.0000
  H   H37       1.0  0.27237  0.8587499999999999  0.46437  1.0000
  H   H38       1.0  0.30623  0.90174  0.52437  1.0000
  H   H39       1.0  0.26679  0.9412700000000002  0.51923  1.0000
  H   H40       1.0  0.3101  0.03538  0.32626  1.0000
  H   H41       1.0  0.28645  0.039509999999999997  0.4395399999999999  1.0000
  H   H42       1.0  0.32655  0.0017599999999999831  0.4454999999999999  1.0000
  C   C59       1.0  0.799  0.60666  0.8034299999999999  1.0000
  C   C60       1.0  0.80842  0.53854  0.80055  1.0000
  Cl  Cl13      1.0  0.84956  0.51367  0.7872499999999999  1.0000
  C   C61       1.0  0.78572  0.48967999999999995  0.8143999999999999  1.0000
  Cl  Cl14      1.0  0.7999  0.40502999999999995  0.8086899999999998  1.0000
  C   C62       1.0  0.75284  0.50802  0.83335  1.0000
  C   C63       1.0  0.73021  0.45331000000000005  0.8661999999999999  1.0000
  C   C64       1.0  0.71201  0.46830000000000005  0.96647  1.0000
  C   C65       1.0  0.68481  0.41995  0.9602799999999998  1.0000
  C   C66       1.0  0.67356  0.41417000000000004  0.84296  1.0000
  C   C67       1.0  0.64741  0.4702  0.8207499999999998  1.0000
  C   C68       1.0  0.70586  0.4213799999999999  0.78204  1.0000
  C   C69       1.0  0.72024  0.35173  0.7465999999999999  1.0000
  C   C70       1.0  0.70103  0.46208  0.68056  1.0000
  C   C71       1.0  0.74326  0.5772  0.8283099999999998  1.0000
  Cl  Cl15      1.0  0.70286  0.60747  0.8377999999999998  1.0000
  C   C72       1.0  0.7662799999999999  0.6255700000000001  0.81439  1.0000
  Cl  Cl16      1.0  0.7538  0.71115  0.8089299999999998  1.0000
  H   H43       1.0  0.7464  0.41161000000000003  0.8945499999999997  1.0000
  H   H44       1.0  0.70152  0.51939  0.9733399999999998  1.0000
  H   H45       1.0  0.72789  0.46008999999999994  0.038229999999999764  1.0000
  H   H46       1.0  0.695  0.3711  0.98859  1.0000
  H   H47       1.0  0.66508  0.43681  0.012180000000000078  1.0000
  H   H48       1.0  0.65621  0.52011  0.8422599999999998  1.0000
  H   H49       1.0  0.63895  0.46955  0.7368099999999999  1.0000
  H   H50       1.0  0.62591  0.4632  0.86749  1.0000
  H   H51       1.0  0.72362  0.31772  0.81387  1.0000
  H   H52       1.0  0.70443  0.32749  0.6853399999999997  1.0000
  H   H53       1.0  0.74394  0.35667  0.71156  1.0000
  H   H54       1.0  0.69111  0.51315  0.69506  1.0000
  H   H55       1.0  0.72433  0.46601  0.6421499999999998  1.0000
  H   H56       1.0  0.68407  0.43694  0.62369  1.0000
  C   C73       1.0  0.45336000000000004  0.60531  0.3697  1.0000
  C   C74       1.0  0.48271  0.58124  0.32891999999999993  1.0000
  Cl  Cl17      1.0  0.4941999999999999  0.60727  0.20483  1.0000
  C   C75       1.0  0.50379  0.53809  0.38725999999999994  1.0000
  Cl  Cl18      1.0  0.53922  0.50726  0.32618  1.0000
  C   C76       1.0  0.49656  0.5195  0.4903299999999999  1.0000
  C   C77       1.0  0.5200999999999999  0.46993000000000007  0.54957  1.0000
  C   C78       1.0  0.53031  0.48844999999999994  0.66444  1.0000
  C   C79       1.0  0.52951  0.42411  0.72551  1.0000
  C   C80       1.0  0.53136  0.36601  0.6434899999999998  1.0000
  C   C81       1.0  0.51758  0.30282  0.68869  1.0000
  C   C82       1.0  0.51151  0.3945  0.5451599999999999  1.0000
  C   C83       1.0  0.52149  0.3599  0.44051999999999997  1.0000
  C   C84       1.0  0.47467  0.38486  0.55177  1.0000
  C   C85       1.0  0.46727  0.54639  0.53244  1.0000
  Cl  Cl19      1.0  0.45555  0.52954  0.66051  1.0000
  C   C86       1.0  0.44578  0.58757  0.4714199999999999  1.0000
  Cl  Cl20      1.0  0.40803  0.61383  0.5217099999999999  1.0000
  H   H57       1.0  0.54357  0.47103  0.5121499999999999  1.0000
  H   H58       1.0  0.51586  0.52947  0.701  1.0000
  H   H59       1.0  0.55547  0.50604  0.66923  1.0000
  H   H60       1.0  0.54945  0.4206599999999999  0.7869499999999998  1.0000
  H   H61       1.0  0.50635  0.42446  0.7660099999999997  1.0000
  H   H62       1.0  0.49351  0.31294  0.72156  1.0000
  H   H63       1.0  0.51551  0.26256  0.6273799999999999  1.0000
  H   H64       1.0  0.5339  0.28411  0.7538599999999999  1.0000
  H   H65       1.0  0.54713  0.36722  0.42434  1.0000
  H   H66       1.0  0.51802  0.30534  0.4426099999999999  1.0000
  H   H67       1.0  0.50643  0.38012999999999997  0.37345  1.0000
  H   H68       1.0  0.46584  0.40026  0.62957  1.0000
  H   H69       1.0  0.46053  0.41257  0.4896999999999999  1.0000
  H   H70       1.0  0.46906  0.33148  0.53882  1.0000
  C   C87       1.0  0.94665  0.88655  0.9170299999999999  1.0000
  C   C88       1.0  0.96382  0.879  0.014139999999999818  1.0000
  Cl  Cl21      1.0  0.9568899999999999  0.8104300000000001  0.09372  1.0000
  C   C89       1.0  0.98777  0.9236500000000001  0.04705  1.0000
  Cl  Cl22      1.0  0.007380000000000003  0.91067  0.17208999999999994  1.0000
  C   C90       1.0  0.99572  0.97689  0.9823599999999998  1.0000
  C   C91       1.0  0.023749999999999997  0.0219  0.01987  1.0000
  C   C92       1.0  0.050320000000000004  0.030709999999999998  0.9426399999999998  1.0000
  C   C93       1.0  0.06742  0.09197  0.98484  1.0000
  C   C94       1.0  0.04088  0.14029  0.028399999999999995  1.0000
  C   C95       1.0  0.026980000000000004  0.18337  0.93612  1.0000
  C   C96       1.0  0.01557  0.09216  0.0732  1.0000
  C   C97       1.0  0.02059  0.08587  0.19454  1.0000
  C   C98       1.0  0.97985  0.11665  0.05380999999999998  1.0000
  C   C99       1.0  0.97777  0.9845  0.8846499999999999  1.0000
  Cl  Cl23      1.0  0.98356  0.04973  0.79809  1.0000
  C   C100      1.0  0.95376  0.9394500000000001  0.85273  1.0000
  Cl  Cl24      1.0  0.93185  0.9511300000000001  0.7312599999999998  1.0000
  H   H71       1.0  0.03819  0.9933099999999999  0.07981999999999997  1.0000
  H   H72       1.0  0.04161999999999999  0.03922  0.8611799999999997  1.0000
  H   H73       1.0  0.06744  0.9864500000000002  0.94056  1.0000
  H   H74       1.0  0.08493  0.07505  0.048409999999999995  1.0000
  H   H75       1.0  0.08131  0.11441  0.9231999999999998  1.0000
  H   H76       1.0  0.018239999999999996  0.15223  0.8687599999999998  1.0000
  H   H77       1.0  0.006809999999999997  0.21748  0.96108  1.0000
  H   H78       1.0  0.0459  0.21506  0.9074199999999999  1.0000
  H   H79       1.0  0.045939999999999995  0.07005  0.21691999999999997  1.0000
  H   H80       1.0  0.014829999999999998  0.13402  0.23625  1.0000
  H   H81       1.0  0.0043999999999999595  0.0486  0.22386999999999996  1.0000
  H   H82       1.0  0.97303  0.12269999999999999  0.9699  1.0000
  H   H83       1.0  0.96322  0.08097  0.0853  1.0000
  H   H84       1.0  0.9754699999999998  0.16578  0.09435  1.0000
  C   C101      1.0  0.5441399999999998  0.11492000000000001  0.8825499999999997  1.0000
  C   C102      1.0  0.55321  0.04672  0.8758099999999999  1.0000
  Cl  Cl25      1.0  0.58875  0.02008  0.81241  1.0000
  C   C103      1.0  0.53511  0.99933  0.92402  1.0000
  Cl  Cl26      1.0  0.54861  0.91451  0.91243  1.0000
  C   C104      1.0  0.50726  0.019269999999999995  0.9805599999999998  1.0000
  C   C105      1.0  0.49193  0.96739  0.049249999999999995  1.0000
  C   C106      1.0  0.48662999999999995  0.9891900000000001  0.16352  1.0000
  C   C107      1.0  0.4619  0.94227  0.19978999999999994  1.0000
  C   C108      1.0  0.43832  0.9300299999999999  0.10435999999999997  1.0000
  C   C109      1.0  0.41148  0.9863  0.10515999999999999  1.0000
  C   C110      1.0  0.46081  0.9306800000000001  0.006479999999999818  1.0000
  C   C111      1.0  0.47124999999999995  0.85825  0.97124  1.0000
  C   C112      1.0  0.44421  0.96319  0.9081099999999999  1.0000
  C   C113      1.0  0.49662999999999996  0.08788  0.9769899999999998  1.0000
  Cl  Cl27      1.0  0.46004  0.11907  0.02814000000000005  1.0000
  C   C114      1.0  0.51523  0.13488  0.92982  1.0000
  Cl  Cl28      1.0  0.5016  0.21993000000000001  0.9280799999999998  1.0000
  H   H85       1.0  0.51103  0.9278000000000001  0.06281  1.0000
  H   H86       1.0  0.47717  0.040899999999999936  0.17361999999999994  1.0000
  H   H87       1.0  0.5094  0.9846900000000001  0.21311999999999995  1.0000
  H   H88       1.0  0.47508000000000006  0.89497  0.22241999999999995  1.0000
  H   H89       1.0  0.44966000000000006  0.96333  0.26989  1.0000
  H   H90       1.0  0.39765  0.9840800000000001  0.17730999999999994  1.0000
  H   H91       1.0  0.42133  0.03638000000000008  0.10569999999999999  1.0000
  H   H92       1.0  0.39398  0.98106  0.03697999999999999  1.0000
  H   H93       1.0  0.48245  0.8299899999999999  0.03828999999999993  1.0000
  H   H94       1.0  0.45042  0.8303699999999999  0.93776  1.0000
  H   H95       1.0  0.48894000000000004  0.85883  0.90887  1.0000
  H   H96       1.0  0.43618000000000007  0.015579999999999929  0.92266  1.0000
  H   H97       1.0  0.46097  0.9620900000000001  0.84257  1.0000
  H   H98       1.0  0.42263  0.93529  0.8811899999999998  1.0000
  C   C115      1.0  0.03672  0.37368  0.40436  1.0000
  C   C116      1.0  0.0034299999999999986  0.38113  0.38066999999999995  1.0000
  Cl  Cl29      1.0  0.9862499999999998  0.33887  0.26895  1.0000
  C   C117      1.0  0.98371  0.42221  0.44429  1.0000
  Cl  Cl30      1.0  0.94193  0.42897  0.40735  1.0000
  C   C118      1.0  0.99723  0.45827  0.5325999999999999  1.0000
  C   C119      1.0  0.97561  0.51175  0.58865  1.0000
  C   C120      1.0  0.9771399999999999  0.51298  0.70978  1.0000
  C   C121      1.0  0.98079  0.58594  0.74432  1.0000
  C   C122      1.0  0.9670799999999999  0.62807  0.6514799999999997  1.0000
  C   C123      1.0  0.9808299999999999  0.69881  0.66034  1.0000
  C   C124      1.0  0.9777100000000001  0.58553  0.55224  1.0000
  C   C125      1.0  0.95512  0.59849  0.4536899999999999  1.0000
  C   C126      1.0  0.012309999999999998  0.60182  0.52125  1.0000
  C   C127      1.0  0.030839999999999992  0.44634  0.5598999999999998  1.0000
  Cl  Cl31      1.0  0.05081  0.48522  0.66979  1.0000
  C   C128      1.0  0.05014  0.40405  0.49591999999999997  1.0000
  Cl  Cl32      1.0  0.09213999999999999  0.39305  0.52639  1.0000
  H   H99       1.0  0.9502  0.49882000000000004  0.57135  1.0000
  H   H100      1.0  0.9958299999999999  0.47938  0.74692  1.0000
  H   H101      1.0  0.95407  0.49588  0.73887  1.0000
  H   H102      1.0  0.9683  0.59803  0.8182499999999999  1.0000
  H   H103      1.0  0.006899999999999908  0.59444  0.76026  1.0000
  H   H104      1.0  0.97141  0.72668  0.7297899999999999  1.0000
  H   H105      1.0  0.007569999999999999  0.69726  0.6704299999999999  1.0000
  H   H106      1.0  0.9736799999999999  0.72736  0.58893  1.0000
  H   H107      1.0  0.93002  0.58396  0.46491  1.0000
  H   H108      1.0  0.9543600000000001  0.65222  0.4343999999999999  1.0000
  H   H109      1.0  0.9640200000000001  0.56932  0.38469  1.0000
  H   H110      1.0  0.02982  0.60073  0.58935  1.0000
  H   H111      1.0  0.02117  0.56705  0.4587099999999999  1.0000
  H   H112      1.0  0.012459999999999999  0.65261  0.48871  1.0000
