data_image0
_chemical_formula_structural       Ni2C4O9H2Ni2C4O9H2Ni2C4O9H2Ni2C4O9H2C7OC2H10C7OC2H10C7OC2H10C7OC2H10C7OC2H10C7OC2H10C7OC2H10C7OC2H10
_chemical_formula_sum              "Ni8 C88 O44 H88"
_cell_length_a       33.3985
_cell_length_b       13.6001
_cell_length_c       10.4559
_cell_angle_alpha    108.0947
_cell_angle_beta     92.9086
_cell_angle_gamma    91.5013

_symmetry_space_group_name_H-M    'P 1'
_symmetry_Int_Tables_number       1

loop_
  _symmetry_equiv_pos_as_xyz
  'x,y,z'

loop_
  _atom_site_type_symbol
  _atom_site_label
  _atom_site_symmetry_multiplicity
  _atom_site_fract_x
  _atom_site_fract_y
  _atom_site_fract_z
  _atom_site_occupancy
  Ni  Ni1       1.0  0.3771499999999999  0.47747  0.95978  1.0000
  Ni  Ni2       1.0  0.37917  0.7102099999999998  0.11753  1.0000
  C   C1        1.0  0.42568  0.8007099999999998  0.9585800000000001  1.0000
  C   C2        1.0  0.3311  0.5641899999999999  0.17166  1.0000
  C   C3        1.0  0.43591999999999986  0.57224  0.14595  1.0000
  C   C4        1.0  0.3545899999999999  0.85074  0.18646  1.0000
  O   O1        1.0  0.42802  0.49730999999999986  0.03138  1.0000
  O   O2        1.0  0.3953  0.8020499999999999  0.88938  1.0000
  O   O3        1.0  0.4243499999999999  0.7688799999999999  0.07338  1.0000
  O   O4        1.0  0.3553399999999999  0.4890699999999999  0.11956999999999998  1.0000
  O   O5        1.0  0.33627  0.65458  0.1633  1.0000
  O   O6        1.0  0.41149999999999987  0.6425399999999998  0.1962  1.0000
  O   O7        1.0  0.37597999999999987  0.60817  0.95733  1.0000
  O   O8        1.0  0.34781  0.7904599999999998  0.06361  1.0000
  O   O9        1.0  0.3782699999999999  0.8151499999999998  0.26112  1.0000
  H   H1        1.0  0.35009  0.61374  0.90594  1.0000
  H   H2        1.0  0.39843  0.6152199999999998  0.89919  1.0000
  Ni  Ni3       1.0  0.89356  0.9529699999999998  0.67082  1.0000
  Ni  Ni4       1.0  0.86684  0.73065  0.65507  1.0000
  C   C5        1.0  0.93925  0.6163899999999998  0.61726  1.0000
  C   C6        1.0  0.8179799999999998  0.9006699999999997  0.70646  1.0000
  C   C7        1.0  0.9045999999999997  0.86812  0.87796  1.0000
  C   C8        1.0  0.82108  0.62072  0.59604  1.0000
  O   O10       1.0  0.8942  0.94992  0.8436800000000001  1.0000
  O   O11       1.0  0.9463499999999998  0.6268499999999998  0.73612  1.0000
  O   O12       1.0  0.9009899999999997  0.63156  0.56758  1.0000
  O   O13       1.0  0.84003  0.95997  0.65641  1.0000
  O   O14       1.0  0.83139  0.82251  0.73535  1.0000
  O   O15       1.0  0.89983  0.77563  0.7988  1.0000
  O   O16       1.0  0.8910399999999998  0.8179699999999999  0.5811  1.0000
  O   O17       1.0  0.83162  0.6773599999999999  0.52291  1.0000
  O   O18       1.0  0.8419699999999998  0.6404099999999998  0.70985  1.0000
  H   H3        1.0  0.87786  0.80848  0.48849000000000004  1.0000
  H   H4        1.0  0.92004  0.79985  0.56714  1.0000
  Ni  Ni5       1.0  0.09393999999999997  0.024780000000000007  0.47063  1.0000
  Ni  Ni6       1.0  0.11971999999999998  0.22090999999999997  0.40163  1.0000
  C   C9        1.0  0.07913  0.38733  0.56435  1.0000
  C   C10       1.0  0.16979999999999995  0.0692  0.43281  1.0000
  C   C11       1.0  0.08117  0.05113999999999999  0.22365999999999997  1.0000
  C   C12       1.0  0.16745  0.32506  0.43481  1.0000
  O   O19       1.0  0.09620999999999998  0.9900299999999999  0.28898  1.0000
  O   O20       1.0  0.060629999999999996  0.3545099999999999  0.64154  1.0000
  O   O21       1.0  0.08357  0.3239  0.43182  1.0000
  O   O22       1.0  0.14753999999999995  0.027440000000000003  0.50387  1.0000
  O   O23       1.0  0.15546999999999994  0.12370999999999999  0.36427  1.0000
  O   O24       1.0  0.08877  0.14894  0.26065  1.0000
  O   O25       1.0  0.09271  0.16161  0.50625  1.0000
  O   O26       1.0  0.15236  0.29607  0.52958  1.0000
  O   O27       1.0  0.14850999999999995  0.28583  0.3174  1.0000
  H   H5        1.0  0.10253  0.19393  0.60398  1.0000
  H   H6        1.0  0.06314  0.17463999999999993  0.49838  1.0000
  Ni  Ni7       1.0  0.5693  0.5198499999999999  0.9333800000000001  1.0000
  Ni  Ni8       1.0  0.59218  0.3047599999999999  0.75107  1.0000
  C   C13       1.0  0.5365  0.1653399999999999  0.8131199999999998  1.0000
  C   C14       1.0  0.64457  0.48243999999999987  0.8675000000000002  1.0000
  C   C15       1.0  0.56599  0.45748999999999984  0.65426  1.0000
  C   C16       1.0  0.63094  0.18744  0.71478  1.0000
  O   O28       1.0  0.574  0.53361  0.76722  1.0000
  O   O29       1.0  0.55462  0.18093  0.92193  1.0000
  O   O30       1.0  0.55031  0.20748999999999995  0.71531  1.0000
  O   O31       1.0  0.62251  0.52858  0.9680400000000001  1.0000
  O   O32       1.0  0.6334399999999998  0.3973699999999999  0.77608  1.0000
  O   O33       1.0  0.56572  0.36254  0.64637  1.0000
  O   O34       1.0  0.56776  0.3830199999999999  0.8957799999999999  1.0000
  O   O35       1.0  0.62069  0.23632999999999993  0.8352499999999999  1.0000
  O   O36       1.0  0.61636  0.22273999999999994  0.62173  1.0000
  H   H7        1.0  0.57893  0.36831  0.97945  1.0000
  H   H8        1.0  0.53801  0.3644699999999999  0.88635  1.0000
  C   C17       1.0  0.2976899999999999  0.54855  0.25495  1.0000
  C   C18       1.0  0.2944399999999999  0.4397699999999999  0.26949  1.0000
  C   C19       1.0  0.26754  0.4395999999999999  0.38102  1.0000
  C   C20       1.0  0.22927  0.38937  0.35336  1.0000
  C   C21       1.0  0.2051399999999999  0.3891099999999999  0.45954000000000006  1.0000
  C   C22       1.0  0.21939  0.4407299999999999  0.59309  1.0000
  C   C23       1.0  0.25769  0.49162999999999996  0.62201  1.0000
  O   O37       1.0  0.27402  0.5438099999999999  0.75359  1.0000
  C   C24       1.0  0.2516499999999998  0.5393899999999998  0.8646699999999999  1.0000
  C   C25       1.0  0.2814  0.48963  0.51518  1.0000
  H   H9        1.0  0.26886  0.5645499999999999  0.20889999999999997  1.0000
  H   H10       1.0  0.30279  0.60751  0.3559  1.0000
  H   H11       1.0  0.32458  0.4153299999999999  0.29454  1.0000
  H   H12       1.0  0.28267  0.38365  0.17201  1.0000
  H   H13       1.0  0.21893  0.34837  0.25009  1.0000
  H   H14       1.0  0.20060999999999996  0.43935999999999986  0.67376  1.0000
  H   H15       1.0  0.26871  0.5835799999999999  0.9597999999999999  1.0000
  H   H16       1.0  0.24733999999999998  0.45787999999999995  0.86424  1.0000
  H   H17       1.0  0.22226  0.57562  0.8623  1.0000
  H   H18       1.0  0.31107  0.52743  0.53721  1.0000
  C   C26       1.0  0.77509  0.92634  0.73332  1.0000
  C   C27       1.0  0.75804  0.9901399999999998  0.64639  1.0000
  C   C28       1.0  0.71292  0.9934899999999999  0.64608  1.0000
  C   C29       1.0  0.6938999999999997  0.08783  0.69765  1.0000
  C   C30       1.0  0.65207  0.09035  0.68084  1.0000
  C   C31       1.0  0.62937  0.9990300000000001  0.6151  1.0000
  C   C32       1.0  0.6478  0.9037599999999998  0.56568  1.0000
  O   O38       1.0  0.6266699999999997  0.8096599999999998  0.4953  1.0000
  C   C33       1.0  0.58384  0.8078499999999998  0.48983000000000004  1.0000
  C   C34       1.0  0.6895499999999998  0.90236  0.58138  1.0000
  H   H19       1.0  0.77301  0.9698599999999996  0.8417  1.0000
  H   H20       1.0  0.7572200000000001  0.8523  0.71091  1.0000
  H   H21       1.0  0.76604  0.9547299999999999  0.54032  1.0000
  H   H22       1.0  0.7721899999999998  0.06965  0.68295  1.0000
  H   H23       1.0  0.7115899999999997  0.15915  0.74452  1.0000
  H   H24       1.0  0.5974599999999998  0.004290000000000007  0.59952  1.0000
  H   H25       1.0  0.57184  0.7287199999999999  0.43409999999999993  1.0000
  H   H26       1.0  0.57214  0.8601  0.43502  1.0000
  H   H27       1.0  0.57313  0.8291499999999999  0.59307  1.0000
  H   H28       1.0  0.7039499999999997  0.8298599999999998  0.53925  1.0000
  C   C35       1.0  0.21383999999999995  0.05186999999999999  0.42917000000000005  1.0000
  C   C36       1.0  0.22801999999999997  0.03424  0.28641  1.0000
  C   C37       1.0  0.27295  0.03753999999999998  0.28762  1.0000
  C   C38       1.0  0.29292  0.9464699999999998  0.23287999999999998  1.0000
  C   C39       1.0  0.33472  0.9482899999999999  0.23813000000000004  1.0000
  C   C40       1.0  0.35697999999999996  0.04186999999999985  0.29571  1.0000
  C   C41       1.0  0.33714999999999995  0.13564999999999994  0.34552  1.0000
  O   O39       1.0  0.3571699999999999  0.23386999999999994  0.39737  1.0000
  C   C42       1.0  0.3997099999999999  0.24002  0.3904  1.0000
  C   C43       1.0  0.2951299999999999  0.13198  0.34228  1.0000
  H   H29       1.0  0.22090999999999994  0.98449  0.46379999999999993  1.0000
  H   H30       1.0  0.2295699999999999  0.1222  0.50032  1.0000
  H   H31       1.0  0.21726  0.09479999999999998  0.24357  1.0000
  H   H32       1.0  0.21496  0.9585199999999998  0.21962  1.0000
  H   H33       1.0  0.27598  0.8734399999999998  0.18947  1.0000
  H   H34       1.0  0.38935  0.040370000000000024  0.29897  1.0000
  H   H35       1.0  0.4103  0.32257  0.42815999999999993  1.0000
  H   H36       1.0  0.4081499999999999  0.20769  0.28438  1.0000
  H   H37       1.0  0.41461  0.19908  0.45536999999999994  1.0000
  H   H38       1.0  0.27964999999999995  0.20326999999999995  0.38168  1.0000
  C   C44       1.0  0.78751  0.53932  0.55151  1.0000
  C   C45       1.0  0.77753  0.48822999999999994  0.65973  1.0000
  C   C46       1.0  0.74583  0.5432999999999999  0.75106  1.0000
  C   C47       1.0  0.7117199999999998  0.48720999999999987  0.76937  1.0000
  C   C48       1.0  0.68226  0.5375199999999999  0.85462  1.0000
  C   C49       1.0  0.6866400000000001  0.64508  0.9178900000000001  1.0000
  C   C50       1.0  0.7199999999999998  0.70242  0.8977  1.0000
  O   O40       1.0  0.7243699999999998  0.8110699999999997  0.95097  1.0000
  C   C51       1.0  0.68833  0.8669299999999998  0.9688999999999999  1.0000
  C   C52       1.0  0.7499799999999998  0.65024  0.81877  1.0000
  H   H39       1.0  0.79675  0.47879999999999995  0.46048999999999995  1.0000
  H   H40       1.0  0.7602899999999998  0.5739999999999998  0.52093  1.0000
  H   H41       1.0  0.8048  0.48269999999999996  0.72207  1.0000
  H   H42       1.0  0.7667299999999998  0.40699999999999986  0.60643  1.0000
  H   H43       1.0  0.70808  0.40456  0.71723  1.0000
  H   H44       1.0  0.66344  0.6842  0.98  1.0000
  H   H45       1.0  0.6682699999999999  0.8412199999999996  0.8751999999999999  1.0000
  H   H46       1.0  0.67258  0.8577499999999998  0.05583999999999989  1.0000
  H   H47       1.0  0.6962499999999998  0.9504999999999999  0.9907099999999999  1.0000
  H   H48       1.0  0.7755999999999997  0.6949699999999998  0.80549  1.0000
  C   C53       1.0  0.47586  0.5776499999999998  0.22027  1.0000
  C   C54       1.0  0.48588999999999993  0.47402999999999995  0.24131  1.0000
  C   C55       1.0  0.52521  0.48409999999999986  0.32332  1.0000
  C   C56       1.0  0.52665  0.46639999999999987  0.44885  1.0000
  C   C57       1.0  0.56286  0.48237  0.52767  1.0000
  C   C58       1.0  0.59774  0.5158899999999998  0.48135  1.0000
  C   C59       1.0  0.59708  0.53074  0.35363  1.0000
  O   O41       1.0  0.63071  0.56584  0.30077  1.0000
  C   C60       1.0  0.6683  0.58319  0.37755  1.0000
  C   C61       1.0  0.5608099999999998  0.51279  0.27507  1.0000
  H   H49       1.0  0.47626  0.6392599999999999  0.31982  1.0000
  H   H50       1.0  0.49884  0.60061  0.16044  1.0000
  H   H51       1.0  0.48822999999999994  0.41385  0.14203  1.0000
  H   H52       1.0  0.46102  0.44904999999999995  0.29277  1.0000
  H   H53       1.0  0.49976  0.44071  0.48535  1.0000
  H   H54       1.0  0.62525  0.52777  0.54464  1.0000
  H   H55       1.0  0.69059  0.61523  0.32423  1.0000
  H   H56       1.0  0.6791999999999998  0.5091899999999999  0.38725  1.0000
  H   H57       1.0  0.6658999999999998  0.6408399999999997  0.47844  1.0000
  H   H58       1.0  0.56029  0.52383  0.17683  1.0000
  C   C62       1.0  0.91843  0.8841200000000001  0.021849999999999925  1.0000
  C   C63       1.0  0.9581299999999999  0.83363  0.03649  1.0000
  C   C64       1.0  0.99393  0.8942999999999998  0.01299  1.0000
  C   C65       1.0  0.019059999999999997  0.95196  0.12311  1.0000
  C   C66       1.0  0.05437  0.0017400000000000024  0.10439  1.0000
  C   C67       1.0  0.06469999999999997  0.9950799999999999  0.97386  1.0000
  C   C68       1.0  0.039869999999999996  0.9358199999999997  0.86094  1.0000
  O   O42       1.0  0.04942999999999999  0.9197799999999998  0.72644  1.0000
  C   C69       1.0  0.09065  0.9318599999999998  0.7016899999999999  1.0000
  C   C70       1.0  0.00423  0.8876599999999998  0.8821500000000001  1.0000
  H   H59       1.0  0.89491  0.8487299999999999  0.06736999999999993  1.0000
  H   H60       1.0  0.9210899999999997  0.9681399999999997  0.07942000000000005  1.0000
  H   H61       1.0  0.95771  0.75261  0.9689700000000001  1.0000
  H   H62       1.0  0.96093  0.8284099999999998  0.14067  1.0000
  H   H63       1.0  0.011360000000000035  0.9570699999999999  0.22449  1.0000
  H   H64       1.0  0.09227999999999999  0.03359000000000001  0.96165  1.0000
  H   H65       1.0  0.09372  0.9050299999999998  0.59125  1.0000
  H   H66       1.0  0.10959999999999998  0.8833799999999999  0.74644  1.0000
  H   H67       1.0  0.10122999999999997  0.014489999999999914  0.74138  1.0000
  H   H68       1.0  0.98534  0.8415899999999998  0.79592  1.0000
  C   C71       1.0  0.49772999999999995  0.10186999999999995  0.78062  1.0000
  C   C72       1.0  0.5045699999999997  0.9874299999999998  0.70572  1.0000
  C   C73       1.0  0.5037999999999998  0.9225499999999995  0.79886  1.0000
  C   C74       1.0  0.4667599999999999  0.8905999999999997  0.8327599999999998  1.0000
  C   C75       1.0  0.46486  0.8317999999999998  0.92091  1.0000
  C   C76       1.0  0.5006199999999997  0.8031999999999998  0.97399  1.0000
  C   C77       1.0  0.53832  0.8337199999999999  0.9394799999999999  1.0000
  O   O43       1.0  0.57539  0.8071899999999999  0.9879299999999999  1.0000
  C   C78       1.0  0.57541  0.76052  0.09295  1.0000
  C   C79       1.0  0.53942  0.89409  0.85251  1.0000
  H   H69       1.0  0.47832999999999987  0.13367  0.71473  1.0000
  H   H70       1.0  0.48153999999999997  0.11142999999999997  0.8740699999999999  1.0000
  H   H71       1.0  0.5330399999999997  0.9788799999999999  0.65413  1.0000
  H   H72       1.0  0.48040999999999995  0.9572399999999999  0.62448  1.0000
  H   H73       1.0  0.4393500000000001  0.91357  0.79208  1.0000
  H   H74       1.0  0.4987  0.75703  0.04116  1.0000
  H   H75       1.0  0.60686  0.74808  0.1216  1.0000
  H   H76       1.0  0.5589699999999997  0.68401  0.05820999999999999  1.0000
  H   H77       1.0  0.5621199999999997  0.8123799999999998  0.18337  1.0000
  H   H78       1.0  0.5682  0.92031  0.8284700000000002  1.0000
  C   C80       1.0  0.09442000000000002  0.4986399999999999  0.60975  1.0000
  C   C81       1.0  0.08373999999999997  0.55532  0.50735  1.0000
  C   C82       1.0  0.03953999999999999  0.5462799999999998  0.46535000000000004  1.0000
  C   C83       1.0  0.010939999999999998  0.58552  0.56014  1.0000
  C   C84       1.0  0.96993  0.57711  0.51922  1.0000
  C   C85       1.0  0.9579299999999997  0.5317899999999999  0.38229  1.0000
  C   C86       1.0  0.9863499999999998  0.4916099999999999  0.28631  1.0000
  O   O44       1.0  0.97642  0.4432799999999999  0.14785  1.0000
  C   C87       1.0  0.93504  0.43137  0.10190000000000002  1.0000
  C   C88       1.0  0.026899999999999702  0.4989999999999999  0.3296  1.0000
  H   H79       1.0  0.12756  0.5006699999999997  0.62549  1.0000
  H   H80       1.0  0.08244  0.5404299999999997  0.70821  1.0000
  H   H81       1.0  0.10183999999999999  0.5240699999999999  0.41819000000000006  1.0000
  H   H82       1.0  0.09282  0.63874  0.5518  1.0000
  H   H83       1.0  0.02064  0.6231  0.66484  1.0000
  H   H84       1.0  0.92633  0.5272499999999999  0.35179  1.0000
  H   H85       1.0  0.9326499999999998  0.39035  0.99191  1.0000
  H   H86       1.0  0.92178  0.5082799999999997  0.11933  1.0000
  H   H87       1.0  0.91816  0.3838799999999999  0.15246  1.0000
  H   H88       1.0  0.048650000000000075  0.4675699999999999  0.2558  1.0000
