data_image0
_chemical_formula_structural       Dy2O2C4O2CO3CO5Dy2O2C4O2CO3CO5Dy2O2C4O2CO3CO5Dy2O2C4O2CO3CO5C3FCFC9FCFH8C3FCFC9FCFH8C3FCFC9FCFH8C3FCFC9FCFH8C3FCFC9FCFH8C3FCFC9FCFH8C3FCFC9FCFH8C3FCFC9FCFH8C3FCFC9FCFH8C3FCFC9FCFH8C3FCFC9FCFH8C3FCFC9FCFH8
_chemical_formula_sum              "Dy8 O48 C192 F48 H96"
_cell_length_a       15.958
_cell_length_b       29.1281
_cell_length_c       36.2962
_cell_angle_alpha    94.76709999999999
_cell_angle_beta     88.3027
_cell_angle_gamma    83.1306

_space_group_name_H-M_alt    "P 1"
_space_group_IT_number       1

loop_
  _space_group_symop_operation_xyz
  'x, y, z'

loop_
  _atom_site_type_symbol
  _atom_site_label
  _atom_site_symmetry_multiplicity
  _atom_site_fract_x
  _atom_site_fract_y
  _atom_site_fract_z
  _atom_site_occupancy
  Dy  Dy1       1.0  0.49491  0.53045  0.48629  1.0000
  Dy  Dy2       1.0  0.50901  0.4726599999999999  0.528  1.0000
  O   O1        1.0  0.47116  0.5052  0.40714  1.0000
  O   O2        1.0  0.49082  0.5736  0.4374  1.0000
  C   C1        1.0  0.45067999999999986  0.49585999999999997  0.5985700000000002  1.0000
  C   C2        1.0  0.6610499999999998  0.52854  0.52438  1.0000
  C   C3        1.0  0.47217999999999993  0.38722  0.53599  1.0000
  C   C4        1.0  0.33703  0.4823799999999999  0.48873  1.0000
  O   O3        1.0  0.36472999999999983  0.51779  0.47701000000000005  1.0000
  O   O4        1.0  0.3827299999999998  0.45593  0.50902  1.0000
  C   C5        1.0  0.45049999999999996  0.62049  0.50479  1.0000
  O   O5        1.0  0.45064999999999994  0.58985  0.52724  1.0000
  O   O6        1.0  0.4690799999999998  0.60332  0.47202  1.0000
  O   O7        1.0  0.62491  0.54329  0.49623  1.0000
  C   C6        1.0  0.47353  0.54669  0.40559  1.0000
  O   O8        1.0  0.54103  0.4015999999999999  0.54504  1.0000
  O   O9        1.0  0.42172  0.41854  0.52279  1.0000
  O   O10       1.0  0.49977  0.4603599999999999  0.5881  1.0000
  O   O11       1.0  0.43086  0.51843  0.5718000000000001  1.0000
  O   O12       1.0  0.6263999999999997  0.50089  0.5436  1.0000
  Dy  Dy3       1.0  0.49136999999999964  0.509  0.98822  1.0000
  Dy  Dy4       1.0  0.4796  0.4886999999999999  0.04924  1.0000
  O   O13       1.0  0.43811  0.48843999999999993  0.9122300000000001  1.0000
  O   O14       1.0  0.53983  0.52993  0.9341  1.0000
  C   C7        1.0  0.5486099999999998  0.49551  0.11602000000000001  1.0000
  C   C8        1.0  0.5910800000000002  0.41649999999999987  0.99662  1.0000
  C   C9        1.0  0.32626  0.48431999999999986  0.07763  1.0000
  C   C10       1.0  0.3953  0.58836  0.03719  1.0000
  O   O15       1.0  0.43386999999999976  0.57966  0.00567  1.0000
  O   O16       1.0  0.39747  0.5567399999999998  0.06019  1.0000
  C   C11       1.0  0.65057  0.5275999999999997  0.99313  1.0000
  O   O17       1.0  0.60435  0.51987  0.01978  1.0000
  O   O18       1.0  0.60918  0.53187  0.96419  1.0000
  O   O19       1.0  0.5512500000000001  0.4384099999999999  0.9724  1.0000
  C   C12       1.0  0.50161  0.50627  0.90536  1.0000
  O   O20       1.0  0.37278000000000006  0.4497799999999999  0.06142  1.0000
  O   O21       1.0  0.3594899999999999  0.52201  0.07724  1.0000
  O   O22       1.0  0.5011999999999998  0.46636  0.10571000000000001  1.0000
  O   O23       1.0  0.56086  0.52125  0.09105  1.0000
  O   O24       1.0  0.57641  0.4298299999999999  0.030750000000000003  1.0000
  Dy  Dy5       1.0  0.04153999999999991  0.02548  0.4802  1.0000
  Dy  Dy6       1.0  0.035020000000000016  0.93345  0.52537  1.0000
  O   O25       1.0  0.9949199999999999  0.97066  0.41302  1.0000
  O   O26       1.0  0.012720000000000068  0.04622  0.42315  1.0000
  C   C13       1.0  0.08783000000000002  0.9504  0.59064  1.0000
  C   C14       1.0  0.20375000000000001  0.9639899999999999  0.47776  1.0000
  C   C15       1.0  0.95279  0.86232  0.5187000000000002  1.0000
  C   C16       1.0  0.8901899999999998  0.00634  0.50232  1.0000
  O   O27       1.0  0.9124999999999998  0.04595999999999999  0.49854  1.0000
  O   O28       1.0  0.9426800000000001  0.971  0.49013  1.0000
  C   C17       1.0  0.08195999999999999  0.109  0.4685  1.0000
  O   O29       1.0  0.08715000000000002  0.09190999999999998  0.49927  1.0000
  O   O30       1.0  0.04758000000000001  0.0837  0.4448599999999999  1.0000
  O   O31       1.0  0.16805999999999993  0.9987599999999999  0.46320000000000006  1.0000
  C   C18       1.0  0.9869999999999997  0.00899  0.40151  1.0000
  O   O32       1.0  0.016399999999999953  0.86702  0.49762000000000006  1.0000
  O   O33       1.0  0.93181  0.89639  0.5433  1.0000
  O   O34       1.0  0.10402999999999998  0.9105199999999999  0.57241  1.0000
  O   O35       1.0  0.04570999999999992  0.98178  0.57349  1.0000
  O   O36       1.0  0.1638  0.94086  0.49977  1.0000
  Dy  Dy7       1.0  0.06443999999999994  0.023580000000000014  0.9552400000000001  1.0000
  Dy  Dy8       1.0  0.9674799999999999  0.0023899999999998918  0.0455  1.0000
  O   O37       1.0  0.09104000000000004  0.98341  0.8782000000000001  1.0000
  O   O38       1.0  0.99865  0.042509999999999985  0.9039899999999998  1.0000
  C   C19       1.0  0.023600000000000086  0.96354  0.10220000000000001  1.0000
  C   C20       1.0  0.03569000000000002  0.92503  0.97319  1.0000
  C   C21       1.0  0.8193799999999998  0.04664999999999998  0.05557  1.0000
  C   C22       1.0  0.030539999999999786  0.09111  0.007029999999999999  1.0000
  O   O39       1.0  0.06877999999999998  0.09602999999999999  0.9766799999999999  1.0000
  O   O40       1.0  0.00947999999999971  0.05068  0.00895  1.0000
  C   C23       1.0  0.21800999999999993  0.99403  0.9716400000000001  1.0000
  O   O41       1.0  0.15673  0.0010800000000000163  0.9953500000000001  1.0000
  O   O42       1.0  0.19900999999999994  0.005830000000000008  0.9396100000000001  1.0000
  O   O43       1.0  0.044729999999999985  0.95114  0.94699  1.0000
  C   C24       1.0  0.026680000000000002  0.009569999999999997  0.87496  1.0000
  O   O44       1.0  0.84008  0.01602999999999999  0.028230000000000005  1.0000
  O   O45       1.0  0.87992  0.05589  0.07639  1.0000
  O   O46       1.0  0.9511200000000001  0.9578599999999998  0.08935  1.0000
  O   O47       1.0  0.06700999999999979  0.9894000000000001  0.08426  1.0000
  O   O48       1.0  0.017700000000000066  0.9394799999999998  0.007470000000000001  1.0000
  C   C25       1.0  0.44217  0.67132  0.51618  1.0000
  C   C26       1.0  0.5303699999999998  0.68494  0.51685  1.0000
  C   C27       1.0  0.58352  0.6709  0.54514  1.0000
  F   F1        1.0  0.55296  0.64999  0.57389  1.0000
  C   C28       1.0  0.66948  0.67546  0.54288  1.0000
  F   F2        1.0  0.7193399999999998  0.6596499999999998  0.56995  1.0000
  C   C29       1.0  0.7042599999999998  0.69392  0.51213  1.0000
  C   C30       1.0  0.79895  0.69163  0.50684  1.0000
  C   C31       1.0  0.8311100000000003  0.73829  0.50789  1.0000
  C   C32       1.0  0.8015100000000001  0.7743399999999998  0.53503  1.0000
  C   C33       1.0  0.8400699999999995  0.81514  0.53842  1.0000
  C   C34       1.0  0.9090199999999999  0.8204  0.51483  1.0000
  C   C35       1.0  0.93853  0.78426  0.48785000000000006  1.0000
  C   C36       1.0  0.8999900000000001  0.7436999999999998  0.48441999999999996  1.0000
  C   C37       1.0  0.65063  0.70994  0.48462  1.0000
  F   F3        1.0  0.6828599999999997  0.72741  0.45447000000000004  1.0000
  C   C38       1.0  0.5642399999999999  0.70547  0.48693000000000003  1.0000
  F   F4        1.0  0.51494  0.71829  0.45877  1.0000
  H   H1        1.0  0.41096000000000005  0.6789099999999996  0.54416  1.0000
  H   H2        1.0  0.40239  0.6905299999999998  0.49650000000000005  1.0000
  H   H3        1.0  0.83165  0.67244  0.5285  1.0000
  H   H4        1.0  0.8178699999999999  0.6710699999999998  0.48006  1.0000
  H   H5        1.0  0.74958  0.7706299999999998  0.55397  1.0000
  H   H6        1.0  0.8171599999999996  0.8419799999999997  0.56  1.0000
  H   H7        1.0  0.99285  0.78685  0.46986  1.0000
  H   H8        1.0  0.92593  0.71586  0.46415000000000006  1.0000
  C   C39       1.0  0.45096  0.3396999999999999  0.54206  1.0000
  C   C40       1.0  0.4052799999999998  0.31966  0.5099  1.0000
  C   C41       1.0  0.3171499999999999  0.33002  0.50846  1.0000
  F   F5        1.0  0.27302  0.3585899999999999  0.53563  1.0000
  C   C42       1.0  0.27365  0.31017  0.47963999999999996  1.0000
  F   F6        1.0  0.18850999999999993  0.3207  0.479  1.0000
  C   C43       1.0  0.31719  0.27882999999999997  0.452  1.0000
  C   C44       1.0  0.26842  0.25493  0.42252  1.0000
  C   C45       1.0  0.2155599999999999  0.2198  0.43701  1.0000
  C   C46       1.0  0.14969  0.20552999999999996  0.41571  1.0000
  C   C47       1.0  0.10293999999999999  0.17104  0.4268700000000001  1.0000
  C   C48       1.0  0.12097  0.15035  0.45974  1.0000
  C   C49       1.0  0.18572  0.16499  0.48145000000000004  1.0000
  C   C50       1.0  0.23334999999999995  0.19885999999999995  0.47002  1.0000
  C   C51       1.0  0.4056599999999999  0.26909  0.453  1.0000
  F   F7        1.0  0.44960999999999995  0.2389999999999999  0.42672  1.0000
  C   C52       1.0  0.4493499999999998  0.28944  0.48164  1.0000
  F   F8        1.0  0.5345599999999998  0.27906  0.4822  1.0000
  H   H9        1.0  0.41078999999999993  0.3419  0.56783  1.0000
  H   H10       1.0  0.50968  0.3167899999999999  0.54687  1.0000
  H   H11       1.0  0.22665999999999992  0.2821  0.40981  1.0000
  H   H12       1.0  0.31151  0.23687999999999995  0.39986  1.0000
  H   H13       1.0  0.13561  0.22044000000000002  0.38991  1.0000
  H   H14       1.0  0.054299999999999994  0.15963  0.40933  1.0000
  H   H15       1.0  0.20263  0.14842999999999998  0.50631  1.0000
  H   H16       1.0  0.2853599999999999  0.20756999999999995  0.48660000000000003  1.0000
  C   C53       1.0  0.04665000000000004  0.8736099999999998  0.9632099999999999  1.0000
  C   C54       1.0  0.08908000000000002  0.8473799999999998  0.99325  1.0000
  C   C55       1.0  0.17307000000000003  0.8526499999999999  0.00164  1.0000
  F   F9        1.0  0.21581  0.88208  0.98347  1.0000
  C   C56       1.0  0.21337000000000003  0.8277999999999998  0.028829999999999998  1.0000
  F   F10       1.0  0.29479999999999995  0.8332199999999997  0.03604  1.0000
  C   C57       1.0  0.1702799999999999  0.79719  0.04812  1.0000
  C   C58       1.0  0.21253  0.77144  0.07846  1.0000
  C   C59       1.0  0.255  0.7230299999999997  0.06606  1.0000
  C   C60       1.0  0.27234  0.6915999999999998  0.09299000000000002  1.0000
  C   C61       1.0  0.31738999999999995  0.6478399999999997  0.08357  1.0000
  C   C62       1.0  0.34645  0.63447  0.046950000000000006  1.0000
  C   C63       1.0  0.32876  0.66568  0.019830000000000014  1.0000
  C   C64       1.0  0.28355000000000014  0.7094899999999997  0.02923000000000009  1.0000
  C   C65       1.0  0.08616000000000001  0.79214  0.03988999999999998  1.0000
  F   F11       1.0  0.0431  0.76296  0.0581799999999999  1.0000
  C   C66       1.0  0.0455  0.8174099999999999  0.013009999999999966  1.0000
  F   F12       1.0  0.9633099999999999  0.81294  0.006599999999999939  1.0000
  H   H17       1.0  0.08536000000000002  0.86516  0.93701  1.0000
  H   H18       1.0  0.9832899999999996  0.86301  0.9578400000000001  1.0000
  H   H19       1.0  0.2605399999999999  0.7915799999999997  0.09135  1.0000
  H   H20       1.0  0.16439  0.76946  0.1009  1.0000
  H   H21       1.0  0.25221999999999983  0.70131  0.12162  1.0000
  H   H22       1.0  0.33086000000000004  0.6247399999999997  0.10511  1.0000
  H   H23       1.0  0.3502199999999998  0.65634  0.9913000000000001  1.0000
  H   H24       1.0  0.27262  0.7328399999999999  0.007710000000000106  1.0000
  C   C67       1.0  0.01208999999999972  0.12963  0.037230000000000096  1.0000
  C   C68       1.0  0.9678900000000003  0.17153  0.020929999999999893  1.0000
  C   C69       1.0  0.011009999999999973  0.20979999999999993  0.01499  1.0000
  F   F13       1.0  0.08868000000000008  0.21273  0.02861  1.0000
  C   C70       1.0  0.9767899999999996  0.24386999999999998  0.9928600000000001  1.0000
  F   F14       1.0  0.02174999999999969  0.27921999999999997  0.9860600000000002  1.0000
  C   C71       1.0  0.89866  0.24029  0.97655  1.0000
  C   C72       1.0  0.8665699999999997  0.2730199999999999  0.9484799999999999  1.0000
  C   C73       1.0  0.7923699999999998  0.30817  0.96215  1.0000
  C   C74       1.0  0.77744  0.32343  0.9998300000000001  1.0000
  C   C75       1.0  0.7108599999999999  0.3579  0.01107  1.0000
  C   C76       1.0  0.6578699999999997  0.3778699999999999  0.98491  1.0000
  C   C77       1.0  0.6742099999999998  0.36346  0.9472000000000002  1.0000
  C   C78       1.0  0.74037  0.32879999999999987  0.93601  1.0000
  C   C79       1.0  0.85308  0.20373999999999995  0.9846000000000001  1.0000
  F   F15       1.0  0.77819  0.19913  0.96877  1.0000
  C   C80       1.0  0.8868499999999999  0.17002999999999993  0.007050000000000002  1.0000
  F   F16       1.0  0.84326  0.13393999999999998  0.012990000000000057  1.0000
  H   H25       1.0  0.07252999999999997  0.13701  0.04935  1.0000
  H   H26       1.0  0.9717299999999996  0.11929  0.059719999999999995  1.0000
  H   H27       1.0  0.9175900000000001  0.2921299999999999  0.9384200000000001  1.0000
  H   H28       1.0  0.8483  0.25149  0.92396  1.0000
  H   H29       1.0  0.8179599999999998  0.3094799999999999  0.020640000000000002  1.0000
  H   H30       1.0  0.70249  0.36987  0.04013  1.0000
  H   H31       1.0  0.63724  0.37973  0.92618  1.0000
  H   H32       1.0  0.7518399999999997  0.31855  0.9067300000000001  1.0000
  C   C81       1.0  0.2519699999999999  0.47053  0.4777699999999999  1.0000
  C   C82       1.0  0.18249  0.50084  0.50046  1.0000
  C   C83       1.0  0.13381  0.4819199999999999  0.52695  1.0000
  F   F17       1.0  0.14755  0.4360999999999999  0.53221  1.0000
  C   C84       1.0  0.07038000000000001  0.5101  0.54836  1.0000
  F   F18       1.0  0.025210000000000055  0.4909799999999999  0.57407  1.0000
  C   C85       1.0  0.05324999999999998  0.55758  0.54328  1.0000
  C   C86       1.0  0.98259  0.5873  0.56579  1.0000
  C   C87       1.0  0.89819  0.57287  0.5554  1.0000
  C   C88       1.0  0.8454500000000001  0.5566599999999999  0.58177  1.0000
  C   C89       1.0  0.7685499999999997  0.5419  0.5716  1.0000
  C   C90       1.0  0.7424799999999998  0.5439  0.53505  1.0000
  C   C91       1.0  0.79428  0.56134  0.50896  1.0000
  C   C92       1.0  0.8718  0.57526  0.51899  1.0000
  C   C93       1.0  0.1012300000000001  0.5764899999999997  0.51653  1.0000
  F   F19       1.0  0.08563000000000011  0.6220899999999999  0.51061  1.0000
  C   C94       1.0  0.16511  0.54834  0.49524  1.0000
  F   F20       1.0  0.20927999999999997  0.56741  0.4691600000000001  1.0000
  H   H33       1.0  0.24898999999999993  0.4332  0.48116000000000003  1.0000
  H   H34       1.0  0.24426999999999996  0.47482  0.44786  1.0000
  H   H35       1.0  0.9933400000000001  0.5841199999999998  0.59566  1.0000
  H   H36       1.0  0.98211  0.62462  0.56143  1.0000
  H   H37       1.0  0.8639399999999999  0.55516  0.61015  1.0000
  H   H38       1.0  0.72892  0.52953  0.59244  1.0000
  H   H39       1.0  0.7753699999999998  0.56367  0.4807  1.0000
  H   H40       1.0  0.9115899999999999  0.5878  0.49832  1.0000
  C   C95       1.0  0.24211000000000005  0.48121999999999987  0.09592  1.0000
  C   C96       1.0  0.17727999999999997  0.47507  0.06727  1.0000
  C   C97       1.0  0.14543000000000003  0.513  0.048130000000000006  1.0000
  F   F21       1.0  0.17151  0.5553099999999999  0.05596000000000001  1.0000
  C   C98       1.0  0.08673999999999994  0.50759  0.02078000000000002  1.0000
  F   F22       1.0  0.05740999999999999  0.54471  0.002539999999999987  1.0000
  C   C99       1.0  0.05956000000000005  0.4640399999999999  0.011830000000000007  1.0000
  C   C100      1.0  0.001520000000000012  0.4575799999999999  0.9801900000000001  1.0000
  C   C101      1.0  0.9152499999999996  0.48472  0.98763  1.0000
  C   C102      1.0  0.88035  0.51422  0.9618  1.0000
  C   C103      1.0  0.7946499999999999  0.53212  0.96485  1.0000
  C   C104      1.0  0.74354  0.5217  0.99439  1.0000
  C   C105      1.0  0.78071  0.4956799999999999  0.02197  1.0000
  C   C106      1.0  0.86528  0.4766499999999999  0.01828  1.0000
  C   C107      1.0  0.09038999999999997  0.42621999999999993  0.03146  1.0000
  F   F23       1.0  0.06498000000000001  0.38373999999999997  0.02369  1.0000
  C   C108      1.0  0.14877999999999988  0.43169  0.058980000000000005  1.0000
  F   F24       1.0  0.17838999999999997  0.39443  0.07706000000000002  1.0000
  H   H41       1.0  0.2217  0.51329  0.11434  1.0000
  H   H42       1.0  0.2485499999999999  0.45208999999999994  0.11394  1.0000
  H   H43       1.0  0.03222000000000002  0.4677099999999999  0.95472  1.0000
  H   H44       1.0  0.9925199999999998  0.42044  0.9745400000000001  1.0000
  H   H45       1.0  0.9180399999999997  0.5209699999999999  0.938  1.0000
  H   H46       1.0  0.7675599999999998  0.5518699999999999  0.94317  1.0000
  H   H47       1.0  0.74261  0.4865  0.04481  1.0000
  H   H48       1.0  0.89041  0.45357  0.03828  1.0000
  C   C109      1.0  0.8088499999999997  0.0019300000000000033  0.52296  1.0000
  C   C110      1.0  0.74785  0.97634  0.50032  1.0000
  C   C111      1.0  0.7121400000000001  0.9947199999999999  0.46884  1.0000
  F   F25       1.0  0.73618  0.03426999999999999  0.45684  1.0000
  C   C112      1.0  0.6498  0.9730999999999999  0.45007  1.0000
  F   F26       1.0  0.61593  0.99183  0.41999  1.0000
  C   C113      1.0  0.6228799999999998  0.93232  0.46209  1.0000
  C   C114      1.0  0.56006  0.90716  0.44034  1.0000
  C   C115      1.0  0.46937000000000006  0.92503  0.45174  1.0000
  C   C116      1.0  0.41849999999999987  0.9508199999999998  0.42798  1.0000
  C   C117      1.0  0.33255999999999997  0.96375  0.43671000000000004  1.0000
  C   C118      1.0  0.2951099999999998  0.95035  0.46906999999999993  1.0000
  C   C119      1.0  0.34609  0.9249399999999998  0.49307000000000006  1.0000
  C   C120      1.0  0.43252  0.91258  0.48455  1.0000
  C   C121      1.0  0.6590399999999997  0.91383  0.49335000000000007  1.0000
  F   F27       1.0  0.6352099999999999  0.8743299999999998  0.50554  1.0000
  C   C122      1.0  0.7197099999999997  0.93602  0.51256  1.0000
  F   F28       1.0  0.74876  0.9189000000000002  0.544  1.0000
  H   H49       1.0  0.7766299999999998  0.03715  0.53236  1.0000
  H   H50       1.0  0.82527  0.9847199999999999  0.54839  1.0000
  H   H51       1.0  0.57165  0.9101699999999998  0.41033  1.0000
  H   H52       1.0  0.5707199999999998  0.8693  0.44351  1.0000
  H   H53       1.0  0.44495  0.96046  0.40236  1.0000
  H   H54       1.0  0.2949599999999999  0.9835699999999999  0.41774  1.0000
  H   H55       1.0  0.31922999999999996  0.9148899999999998  0.51852  1.0000
  H   H56       1.0  0.4701999999999999  0.8924499999999997  0.5032  1.0000
  C   C123      1.0  0.72933  0.06676  0.06388  1.0000
  C   C124      1.0  0.6729499999999998  0.03105  0.05097  1.0000
  C   C125      1.0  0.65692  0.024029999999999996  0.013090000000000046  1.0000
  F   F29       1.0  0.68369  0.052769999999999984  0.9888  1.0000
  C   C126      1.0  0.61747  0.9860299999999997  0.99979  1.0000
  F   F30       1.0  0.6045500000000001  0.9795399999999997  0.9629899999999999  1.0000
  C   C127      1.0  0.59328  0.95425  0.024040000000000002  1.0000
  C   C128      1.0  0.54899  0.9137499999999997  0.00964  1.0000
  C   C129      1.0  0.4611599999999999  0.9312799999999999  0.99932  1.0000
  C   C130      1.0  0.43813  0.9291499999999998  0.9622500000000002  1.0000
  C   C131      1.0  0.3586999999999998  0.9497199999999999  0.95298  1.0000
  C   C132      1.0  0.30171000000000003  0.9724099999999997  0.9807400000000001  1.0000
  C   C133      1.0  0.3229000000000001  0.97187  0.01791  1.0000
  C   C134      1.0  0.40225  0.9517999999999998  0.0271  1.0000
  C   C135      1.0  0.6085299999999999  0.9615499999999999  0.06194  1.0000
  F   F31       1.0  0.58613  0.93151  0.08605  1.0000
  C   C136      1.0  0.6477999999999998  0.9996199999999998  0.07526  1.0000
  F   F32       1.0  0.66433  0.004799999999999997  0.11177  1.0000
  H   H57       1.0  0.71446  0.09918999999999997  0.05007  1.0000
  H   H58       1.0  0.7199799999999997  0.07588  0.09421  1.0000
  H   H59       1.0  0.58632  0.89445  0.98564  1.0000
  H   H60       1.0  0.5441499999999998  0.8885899999999998  0.03078  1.0000
  H   H61       1.0  0.48189000000000004  0.9122599999999997  0.9405300000000001  1.0000
  H   H62       1.0  0.34132  0.94744  0.9243299999999999  1.0000
  H   H63       1.0  0.27844  0.98748  0.03989  1.0000
  H   H64       1.0  0.4184199999999999  0.9529399999999998  0.055869999999999996  1.0000
  C   C137      1.0  0.5848899999999998  0.4986799999999999  0.15352  1.0000
  C   C138      1.0  0.5358399999999998  0.53674  0.17916  1.0000
  C   C139      1.0  0.57659  0.57209  0.1971  1.0000
  F   F33       1.0  0.6588799999999998  0.5756999999999998  0.18868  1.0000
  C   C140      1.0  0.53358  0.60304  0.22492999999999996  1.0000
  F   F34       1.0  0.5752499999999999  0.6357099999999998  0.24277  1.0000
  C   C141      1.0  0.44878999999999986  0.5997099999999999  0.23484  1.0000
  C   C142      1.0  0.40501999999999994  0.6297299999999998  0.26752  1.0000
  C   C143      1.0  0.4237100000000001  0.6083  0.30345  1.0000
  C   C144      1.0  0.4637699999999998  0.63202  0.33187  1.0000
  C   C145      1.0  0.4793399999999998  0.61229  0.36533  1.0000
  C   C146      1.0  0.45611  0.56818  0.37065  1.0000
  C   C147      1.0  0.4152599999999998  0.54481  0.34241  1.0000
  C   C148      1.0  0.39876999999999985  0.56474  0.30929  1.0000
  C   C149      1.0  0.40640000000000004  0.56661  0.21497  1.0000
  F   F35       1.0  0.3236  0.56361  0.22279  1.0000
  C   C150      1.0  0.44978999999999997  0.535  0.18788  1.0000
  F   F36       1.0  0.40825  0.50153  0.17108  1.0000
  H   H65       1.0  0.6528799999999998  0.50301  0.15065  1.0000
  H   H66       1.0  0.58144  0.46523  0.16583000000000003  1.0000
  H   H67       1.0  0.42456000000000005  0.6651599999999998  0.26815  1.0000
  H   H68       1.0  0.33553  0.63424  0.26442  1.0000
  H   H69       1.0  0.48281999999999986  0.66588  0.32825000000000004  1.0000
  H   H70       1.0  0.5102999999999996  0.63126  0.38681  1.0000
  H   H71       1.0  0.3950600000000001  0.51123  0.34608  1.0000
  H   H72       1.0  0.36647  0.54601  0.28823000000000004  1.0000
  C   C151      1.0  0.5427299999999998  0.4992399999999999  0.86715  1.0000
  C   C152      1.0  0.4823  0.51343  0.83764  1.0000
  C   C153      1.0  0.42012000000000005  0.48518  0.82685  1.0000
  F   F37       1.0  0.41249  0.4456  0.84327  1.0000
  C   C154      1.0  0.36638  0.4968899999999999  0.7985000000000001  1.0000
  F   F38       1.0  0.30635000000000007  0.46915999999999997  0.78914  1.0000
  C   C155      1.0  0.37518000000000024  0.53641  0.77966  1.0000
  C   C156      1.0  0.31839  0.54833  0.74839  1.0000
  C   C157      1.0  0.36167999999999995  0.5363  0.71064  1.0000
  C   C158      1.0  0.4096400000000001  0.4928599999999999  0.7014000000000001  1.0000
  C   C159      1.0  0.4400199999999999  0.47991  0.66503  1.0000
  C   C160      1.0  0.42140999999999995  0.50976  0.63716  1.0000
  C   C161      1.0  0.37506  0.55342  0.64644  1.0000
  C   C162      1.0  0.34604  0.5667099999999999  0.68288  1.0000
  C   C163      1.0  0.43693  0.56484  0.79046  1.0000
  F   F39       1.0  0.44498999999999994  0.60387  0.77333  1.0000
  C   C164      1.0  0.48977999999999994  0.5535999999999999  0.8193500000000001  1.0000
  F   F40       1.0  0.54835  0.58195  0.82937  1.0000
  H   H73       1.0  0.5674699999999998  0.46194  0.86117  1.0000
  H   H74       1.0  0.59833  0.51876  0.86676  1.0000
  H   H75       1.0  0.26218  0.52935  0.74916  1.0000
  H   H76       1.0  0.29373  0.5858299999999997  0.75238  1.0000
  H   H77       1.0  0.42295  0.46869000000000005  0.72217  1.0000
  H   H78       1.0  0.4765800000000001  0.4462199999999999  0.65855  1.0000
  H   H79       1.0  0.36055000000000015  0.57714  0.6254  1.0000
  H   H80       1.0  0.30904  0.60026  0.68913  1.0000
  C   C165      1.0  0.053759999999999974  0.94264  0.13639  1.0000
  C   C166      1.0  0.00019999999999997667  0.96551  0.16936  1.0000
  C   C167      1.0  0.02736000000000005  0.0023799999999999984  0.19151  1.0000
  F   F41       1.0  0.10319999999999997  0.017109999999999993  0.18421  1.0000
  C   C168      1.0  0.97565  0.025139999999999992  0.22086  1.0000
  F   F42       1.0  0.0030200000000000266  0.061069999999999985  0.24143000000000003  1.0000
  C   C169      1.0  0.8958199999999997  0.011449999999999993  0.22862  1.0000
  C   C170      1.0  0.8393299999999996  0.03708999999999999  0.25973  1.0000
  C   C171      1.0  0.8769799999999998  0.029999999999999992  0.29668  1.0000
  C   C172      1.0  0.90542  0.06713  0.31791  1.0000
  C   C173      1.0  0.94156  0.06023999999999999  0.35192  1.0000
  C   C174      1.0  0.94936  0.01614000000000001  0.3654  1.0000
  C   C175      1.0  0.9198899999999999  0.97912  0.34425  1.0000
  C   C176      1.0  0.8838800000000001  0.98604  0.31023000000000006  1.0000
  C   C177      1.0  0.8689899999999999  0.97429  0.20665  1.0000
  F   F43       1.0  0.7924700000000001  0.9601  0.21343  1.0000
  C   C178      1.0  0.9206899999999997  0.9515699999999999  0.17728  1.0000
  F   F44       1.0  0.89265  0.91626  0.1562  1.0000
  H   H81       1.0  0.12127999999999997  0.9472499999999999  0.13987  1.0000
  H   H82       1.0  0.05015000000000003  0.90465  0.13348  1.0000
  H   H83       1.0  0.8296799999999995  0.07453  0.255  1.0000
  H   H84       1.0  0.7756099999999999  0.025369999999999893  0.26005  1.0000
  H   H85       1.0  0.9003899999999998  0.10137999999999997  0.30799  1.0000
  H   H86       1.0  0.96323  0.0895  0.3676400000000001  1.0000
  H   H87       1.0  0.9243  0.9448299999999997  0.35406000000000004  1.0000
  H   H88       1.0  0.86143  0.9571  0.29438  1.0000
  C   C179      1.0  0.11387000000000005  0.9590699999999998  0.62957  1.0000
  C   C180      1.0  0.03746000000000011  0.9691999999999996  0.65584  1.0000
  C   C181      1.0  0.021699999999999994  0.011639999999999998  0.67784  1.0000
  F   F45       1.0  0.07289  0.04525  0.67481  1.0000
  C   C182      1.0  0.9544099999999996  0.01925  0.70406  1.0000
  F   F46       1.0  0.9420399999999999  0.06000999999999997  0.72568  1.0000
  C   C183      1.0  0.9025199999999999  0.9842999999999997  0.70916  1.0000
  C   C184      1.0  0.8388199999999999  0.98982  0.74141  1.0000
  C   C185      1.0  0.88375  0.9941299999999997  0.77728  1.0000
  C   C186      1.0  0.8644  0.03341  0.8026  1.0000
  C   C187      1.0  0.91111  0.038729999999999994  0.8343700000000001  1.0000
  C   C188      1.0  0.9778399999999999  0.0048400000000000006  0.84123  1.0000
  C   C189      1.0  0.9961999999999996  0.9653  0.81606  1.0000
  C   C190      1.0  0.9487299999999999  0.9596499999999998  0.78476  1.0000
  C   C191      1.0  0.9156900000000001  0.9428  0.68593  1.0000
  F   F47       1.0  0.86565  0.9087599999999998  0.68955  1.0000
  C   C192      1.0  0.98274  0.9352499999999999  0.65964  1.0000
  F   F48       1.0  0.9957399999999998  0.8941299999999999  0.6385400000000001  1.0000
  H   H89       1.0  0.1536199999999999  0.98789  0.63098  1.0000
  H   H90       1.0  0.15337000000000006  0.9277899999999998  0.63773  1.0000
  H   H91       1.0  0.7922599999999997  0.020829999999999994  0.7387  1.0000
  H   H92       1.0  0.8027899999999999  0.95945  0.74165  1.0000
  H   H93       1.0  0.8140699999999997  0.06023999999999999  0.79749  1.0000
  H   H94       1.0  0.89567  0.06957  0.85328  1.0000
  H   H95       1.0  0.04719  0.93858  0.82063  1.0000
  H   H96       1.0  0.9644699999999998  0.9289999999999998  0.76567  1.0000
