data_image0
_chemical_formula_structural       EuOCO6COC2EuOCO6COC2EuOCO6COC2EuOCO6COC5FCFC7NC2FCFH9C3FCFC7NC2FCFH9C3FCFC7NC2FCFH9C3FCFC7NC2FCFH9C3FCFC7NC2FCFH9C3FCFC7NC2FCFH9C3FCFC7NC2FCFH9C3FCFC7NC2FCFH9
_chemical_formula_sum              "Eu4 O32 C128 F32 N8 H72"
_cell_length_a       37.933
_cell_length_b       21.9864
_cell_length_c       10.0613
_cell_angle_alpha    85.9633
_cell_angle_beta     88.2368
_cell_angle_gamma    91.77549999999998

_symmetry_space_group_name_H-M    'P 1'
_symmetry_Int_Tables_number       1

loop_
  _symmetry_equiv_pos_as_xyz
  'x,y,z'

loop_
  _atom_site_type_symbol
  _atom_site_label
  _atom_site_symmetry_multiplicity
  _atom_site_fract_x
  _atom_site_fract_y
  _atom_site_fract_z
  _atom_site_occupancy
  Eu  Eu1       1.0  0.39675  0.7499900000000002  0.19589  1.0000
  O   O1        1.0  0.33631  0.84053  0.14224  1.0000
  C   C1        1.0  0.31959  0.70073  0.18602  1.0000
  O   O2        1.0  0.47682  0.74028  0.15115  1.0000
  O   O3        1.0  0.44198  0.82081  0.16944  1.0000
  O   O4        1.0  0.41284  0.62197  0.28025  1.0000
  O   O5        1.0  0.31748  0.72253  0.07171  1.0000
  O   O6        1.0  0.3515  0.67903  0.23005  1.0000
  O   O7        1.0  0.36742  0.8144499999999999  0.32437  1.0000
  C   C2        1.0  0.33832  0.83952  0.26298  1.0000
  O   O8        1.0  0.42039  0.70848  0.38591  1.0000
  C   C3        1.0  0.41922  0.64521  0.38385  1.0000
  C   C4        1.0  0.47489000000000003  0.79455  0.16657  1.0000
  Eu  Eu2       1.0  0.87381  0.7368000000000001  0.78758  1.0000
  O   O9        1.0  0.83266  0.8460000000000001  0.8680799999999999  1.0000
  C   C5        1.0  0.80336  0.66177  0.8599400000000001  1.0000
  O   O10       1.0  0.97998  0.79523  0.85185  1.0000
  O   O11       1.0  0.93362  0.75104  0.75676  1.0000
  O   O12       1.0  0.9112  0.6283  0.70522  1.0000
  O   O13       1.0  0.77894  0.65183  0.9413600000000001  1.0000
  O   O14       1.0  0.81401  0.72208  0.82298  1.0000
  O   O15       1.0  0.86414  0.8293099999999999  0.67914  1.0000
  C   C6        1.0  0.84348  0.86558  0.75721  1.0000
  O   O16       1.0  0.8737500000000001  0.68906  0.59265  1.0000
  C   C7        1.0  0.89495  0.63836  0.60381  1.0000
  C   C8        1.0  0.9482000000000002  0.7945599999999999  0.8349699999999999  1.0000
  Eu  Eu3       1.0  0.11746  0.25678  0.17412  1.0000
  O   O17       1.0  0.10783  0.15947  0.41732  1.0000
  C   C9        1.0  0.19288  0.31165  0.16394  1.0000
  O   O18       1.0  0.03842  0.26129  0.13838  1.0000
  O   O19       1.0  0.07519  0.18264999999999998  0.15381  1.0000
  O   O20       1.0  0.08593  0.37096  0.25927  1.0000
  O   O21       1.0  0.19554000000000002  0.2701  0.0907  1.0000
  O   O22       1.0  0.15955  0.33061  0.20021  1.0000
  O   O23       1.0  0.15367  0.18698  0.27348  1.0000
  C   C10       1.0  0.13934  0.15682  0.38995  1.0000
  O   O24       1.0  0.09227000000000002  0.27957  0.3723  1.0000
  C   C11       1.0  0.08193000000000002  0.33987  0.36434  1.0000
  C   C12       1.0  0.04159  0.20631  0.1546  1.0000
  Eu  Eu4       1.0  0.59002  0.24877  0.67972  1.0000
  O   O25       1.0  0.61883  0.13135999999999995  0.71692  1.0000
  C   C13       1.0  0.6661  0.28175  0.76323  1.0000
  O   O26       1.0  0.4899200000000001  0.19864999999999997  0.86756  1.0000
  O   O27       1.0  0.53232  0.2163  0.70557  1.0000
  O   O28       1.0  0.53399  0.36174  0.65101  1.0000
  O   O29       1.0  0.65081  0.27001  0.87071  1.0000
  O   O30       1.0  0.64739  0.28119  0.64674  1.0000
  O   O31       1.0  0.60091  0.17898  0.52797  1.0000
  C   C14       1.0  0.6182500000000001  0.13215  0.59586  1.0000
  O   O32       1.0  0.57553  0.32186  0.52183  1.0000
  C   C15       1.0  0.56156  0.37012  0.58589  1.0000
  C   C16       1.0  0.52127  0.20797  0.8391900000000001  1.0000
  C   C17       1.0  0.28834  0.6992  0.28133  1.0000
  C   C18       1.0  0.27811  0.63462  0.33068  1.0000
  C   C19       1.0  0.24946  0.60405  0.27652  1.0000
  F   F1        1.0  0.23143  0.63133  0.17547  1.0000
  C   C20       1.0  0.23924000000000004  0.54493  0.32564  1.0000
  F   F2        1.0  0.21112  0.51689  0.2727  1.0000
  C   C21       1.0  0.25791  0.51478  0.42802  1.0000
  C   C22       1.0  0.24632000000000004  0.45116  0.48117  1.0000
  C   C23       1.0  0.25067000000000006  0.40699  0.37454  1.0000
  C   C24       1.0  0.22092  0.3800100000000001  0.32032  1.0000
  C   C25       1.0  0.22461  0.34059  0.21738  1.0000
  C   C26       1.0  0.25862  0.32809  0.16928  1.0000
  C   C27       1.0  0.28854  0.35444  0.22389  1.0000
  N   N1        1.0  0.32309  0.34141  0.1751  1.0000
  C   C28       1.0  0.28445  0.39364  0.32667  1.0000
  C   C29       1.0  0.28714  0.54478  0.47996999999999995  1.0000
  F   F3        1.0  0.30643  0.51628  0.57571  1.0000
  C   C30       1.0  0.29686000000000007  0.60447  0.43288  1.0000
  F   F4        1.0  0.32453  0.63303  0.48766  1.0000
  H   H1        1.0  0.26588  0.72217  0.23297  1.0000
  H   H2        1.0  0.29516  0.72585  0.36737  1.0000
  H   H3        1.0  0.21827  0.45219999999999994  0.51627  1.0000
  H   H4        1.0  0.2615  0.43526000000000004  0.56908  1.0000
  H   H5        1.0  0.19489000000000006  0.39000000000000007  0.35862  1.0000
  H   H6        1.0  0.26196  0.29788  0.08968  1.0000
  H   H7        1.0  0.34548000000000006  0.3612  0.21473  1.0000
  H   H8        1.0  0.32652  0.31202  0.09895  1.0000
  H   H9        1.0  0.30752  0.41415  0.36883  1.0000
  C   C31       1.0  0.83481  0.9289  0.70489  1.0000
  C   C32       1.0  0.79596  0.93353  0.67689  1.0000
  C   C33       1.0  0.7750000000000001  0.97571  0.73931  1.0000
  F   F5        1.0  0.7891900000000001  0.013300000000000086  0.82641  1.0000
  C   C34       1.0  0.73895  0.9788499999999999  0.71398  1.0000
  F   F6        1.0  0.7193  0.019730000000000004  0.7759  1.0000
  C   C35       1.0  0.7231200000000001  0.93924  0.62762  1.0000
  C   C36       1.0  0.68355  0.9371800000000001  0.61338  1.0000
  C   C37       1.0  0.6710600000000001  0.99298  0.53554  1.0000
  C   C38       1.0  0.64998  0.03453  0.59783  1.0000
  C   C39       1.0  0.6375  0.08604  0.52526  1.0000
  C   C40       1.0  0.64569  0.09478  0.38802  1.0000
  C   C41       1.0  0.6671600000000001  0.05377  0.3253  1.0000
  N   N2        1.0  0.67709  0.06455  0.18725  1.0000
  C   C42       1.0  0.67966  0.0029200000000000007  0.39918  1.0000
  C   C43       1.0  0.74435  0.89888  0.56132  1.0000
  F   F7        1.0  0.73016  0.8615700000000001  0.47367999999999993  1.0000
  C   C44       1.0  0.7804  0.89626  0.58526  1.0000
  F   F8        1.0  0.8000400000000002  0.85614  0.52106  1.0000
  H   H10       1.0  0.85036  0.9412000000000001  0.61107  1.0000
  H   H11       1.0  0.84324  0.9613600000000001  0.77847  1.0000
  H   H12       1.0  0.67077  0.9318899999999999  0.71472  1.0000
  H   H13       1.0  0.67477  0.89648  0.56224  1.0000
  H   H14       1.0  0.64349  0.0269  0.70346  1.0000
  H   H15       1.0  0.6363600000000001  0.13423  0.33041  1.0000
  H   H16       1.0  0.69397  0.03526  0.14097  1.0000
  H   H17       1.0  0.6687200000000001  0.10304  0.13169  1.0000
  H   H18       1.0  0.69598  0.9709199999999999  0.3507  1.0000
  C   C45       1.0  0.16287  0.12278999999999997  0.48395  1.0000
  C   C46       1.0  0.17235000000000003  0.06167999999999999  0.4353600000000001  1.0000
  C   C47       1.0  0.19792  0.05776  0.33209  1.0000
  F   F9        1.0  0.21324  0.10913  0.26976  1.0000
  C   C48       1.0  0.20903  0.0007799999999999993  0.29648  1.0000
  F   F10       1.0  0.23459000000000002  0.9981800000000001  0.19982  1.0000
  C   C49       1.0  0.19489000000000006  0.9467799999999998  0.36356  1.0000
  C   C50       1.0  0.20999000000000007  0.88581  0.33598  1.0000
  C   C51       1.0  0.24715000000000004  0.8815299999999999  0.38487  1.0000
  C   C52       1.0  0.27517  0.86749  0.29867  1.0000
  C   C53       1.0  0.30947  0.86185  0.34645  1.0000
  C   C54       1.0  0.31577  0.8731899999999999  0.47929  1.0000
  C   C55       1.0  0.28817  0.8878499999999999  0.56524  1.0000
  N   N3        1.0  0.29503  0.89978  0.70007  1.0000
  C   C56       1.0  0.25385  0.8903799999999998  0.51885  1.0000
  C   C57       1.0  0.16836  0.9507  0.4631799999999999  1.0000
  F   F11       1.0  0.15422  0.89956  0.53052  1.0000
  C   C58       1.0  0.15729000000000004  0.007560000000000002  0.49889  1.0000
  F   F12       1.0  0.13253999999999996  0.009670000000000002  0.59877  1.0000
  H   H19       1.0  0.14954  0.11697  0.58408  1.0000
  H   H20       1.0  0.18724  0.15085  0.49677  1.0000
  H   H21       1.0  0.20912  0.87963  0.22746  1.0000
  H   H22       1.0  0.19386  0.84753  0.387  1.0000
  H   H23       1.0  0.27  0.85874  0.19632  1.0000
  H   H24       1.0  0.34213000000000005  0.8699500000000001  0.51681  1.0000
  H   H25       1.0  0.2745  0.9096599999999999  0.76583  1.0000
  H   H26       1.0  0.3207900000000001  0.9003799999999998  0.73389  1.0000
  H   H27       1.0  0.23241  0.90005  0.58679  1.0000
  C   C59       1.0  0.82123  0.6104599999999998  0.79621  1.0000
  C   C60       1.0  0.80922  0.54655  0.84884  1.0000
  C   C61       1.0  0.77345  0.52739  0.84795  1.0000
  F   F13       1.0  0.74876  0.56574  0.7996800000000001  1.0000
  C   C62       1.0  0.76289  0.468  0.89441  1.0000
  F   F14       1.0  0.72802  0.45187  0.8986999999999999  1.0000
  C   C63       1.0  0.7880800000000001  0.42497000000000007  0.9321099999999999  1.0000
  C   C64       1.0  0.77674  0.35912999999999995  0.9683900000000001  1.0000
  C   C65       1.0  0.7584  0.33285  0.85336  1.0000
  C   C66       1.0  0.72249  0.31486  0.8655599999999999  1.0000
  C   C67       1.0  0.7044100000000001  0.29687  0.7543  1.0000
  C   C68       1.0  0.7228700000000001  0.29572  0.63122  1.0000
  C   C69       1.0  0.75887  0.312  0.61894  1.0000
  N   N4        1.0  0.77716  0.31168  0.49248999999999993  1.0000
  C   C70       1.0  0.77654  0.33024000000000003  0.73018  1.0000
  C   C71       1.0  0.8239  0.44346  0.92943  1.0000
  F   F15       1.0  0.8490000000000001  0.40304999999999996  0.9634099999999999  1.0000
  C   C72       1.0  0.83431  0.50361  0.8888299999999999  1.0000
  F   F16       1.0  0.86927  0.5189  0.88243  1.0000
  H   H28       1.0  0.8497199999999999  0.61733  0.8115999999999999  1.0000
  H   H29       1.0  0.8168200000000001  0.61517  0.68741  1.0000
  H   H30       1.0  0.7590100000000001  0.35727  0.0587899999999999  1.0000
  H   H31       1.0  0.79962  0.33062  0.9938599999999999  1.0000
  H   H32       1.0  0.7083500000000001  0.31751  0.9600299999999999  1.0000
  H   H33       1.0  0.70933  0.28244  0.54415  1.0000
  H   H34       1.0  0.80359  0.32649  0.48064  1.0000
  H   H35       1.0  0.7641900000000001  0.2977  0.40921  1.0000
  H   H36       1.0  0.8041500000000001  0.34440999999999994  0.71975  1.0000
  C   C73       1.0  0.42547  0.6053  0.5074  1.0000
  C   C74       1.0  0.46277000000000007  0.61081  0.55529  1.0000
  C   C75       1.0  0.4921400000000001  0.61394  0.46514999999999995  1.0000
  F   F17       1.0  0.48790000000000006  0.61766  0.33144  1.0000
  C   C76       1.0  0.52635  0.61094  0.51186  1.0000
  F   F18       1.0  0.55401  0.61417  0.42239  1.0000
  C   C77       1.0  0.532  0.60135  0.649  1.0000
  C   C78       1.0  0.56876  0.59023  0.69759  1.0000
  C   C79       1.0  0.5849  0.53618  0.6364  1.0000
  C   C80       1.0  0.56621  0.47985  0.63917  1.0000
  C   C81       1.0  0.58099  0.42965  0.58155  1.0000
  C   C82       1.0  0.6153100000000001  0.4358000000000001  0.52479  1.0000
  C   C83       1.0  0.63449  0.49125  0.52406  1.0000
  N   N5        1.0  0.66985  0.49621  0.4697  1.0000
  C   C84       1.0  0.61912  0.54147  0.5784  1.0000
  C   C85       1.0  0.5028600000000001  0.59965  0.73941  1.0000
  F   F19       1.0  0.50736  0.59101  0.87271  1.0000
  C   C86       1.0  0.46864000000000006  0.60471  0.69302  1.0000
  F   F20       1.0  0.44105000000000005  0.60023  0.78297  1.0000
  H   H37       1.0  0.42025000000000007  0.55684  0.48735000000000006  1.0000
  H   H38       1.0  0.40591  0.61668  0.58553  1.0000
  H   H39       1.0  0.56845  0.58112  0.80754  1.0000
  H   H40       1.0  0.58532  0.63242  0.6738  1.0000
  H   H41       1.0  0.54  0.47542  0.68544  1.0000
  H   H42       1.0  0.62751  0.39721  0.48314999999999997  1.0000
  H   H43       1.0  0.68461  0.5371  0.46942000000000006  1.0000
  H   H44       1.0  0.68175  0.45856  0.43177  1.0000
  H   H45       1.0  0.63404  0.58428  0.57743  1.0000
  C   C87       1.0  0.92498  0.84054  0.89445  1.0000
  C   C88       1.0  0.94329  0.8784  0.99323  1.0000
  C   C89       1.0  0.97007  0.9215800000000001  0.94932  1.0000
  F   F21       1.0  0.98061  0.92812  0.8187199999999999  1.0000
  C   C90       1.0  0.9859000000000001  0.9586899999999999  0.03938  1.0000
  F   F22       1.0  0.012350000000000087  0.9987700000000002  0.9949899999999999  1.0000
  C   C91       1.0  0.97432  0.9548999999999999  0.17398  1.0000
  C   C92       1.0  0.99107  0.9954700000000001  0.27101  1.0000
  C   C93       1.0  0.98553  0.06208000000000001  0.23414  1.0000
  C   C94       1.0  0.01473  0.10215  0.20675999999999997  1.0000
  C   C95       1.0  0.010249999999999999  0.16479  0.17791  1.0000
  C   C96       1.0  0.97593  0.18719000000000002  0.1766  1.0000
  C   C97       1.0  0.94653  0.1475  0.20399000000000003  1.0000
  N   N6        1.0  0.91175  0.17083  0.20479  1.0000
  C   C98       1.0  0.9514200000000002  0.08505999999999997  0.23278999999999997  1.0000
  C   C99       1.0  0.94739  0.91206  0.21751999999999996  1.0000
  F   F23       1.0  0.93542  0.9075199999999999  0.34645  1.0000
  C   C100      1.0  0.93234  0.87366  0.12843  1.0000
  F   F24       1.0  0.90683  0.83213  0.17455  1.0000
  H   H46       1.0  0.90136  0.8157300000000001  0.9416999999999999  1.0000
  H   H47       1.0  0.91574  0.87197  0.8125099999999998  1.0000
  H   H48       1.0  0.01963  0.98589  0.27383  1.0000
  H   H49       1.0  0.98021  0.98481  0.37392  1.0000
  H   H50       1.0  0.04103  0.08445  0.21049  1.0000
  H   H51       1.0  0.97195  0.23548999999999998  0.15589  1.0000
  H   H52       1.0  0.88969  0.142  0.22804999999999997  1.0000
  H   H53       1.0  0.9077800000000001  0.21726  0.18361  1.0000
  H   H54       1.0  0.92874  0.05448999999999999  0.25558  1.0000
  C   C101      1.0  0.5474300000000001  0.21012  0.9479  1.0000
  C   C102      1.0  0.54391  0.15299  0.04073  1.0000
  C   C103      1.0  0.55106  0.09595999999999998  0.99313  1.0000
  F   F25       1.0  0.56109  0.09185  0.8638499999999999  1.0000
  C   C104      1.0  0.54675  0.04244  0.07628  1.0000
  F   F26       1.0  0.5530600000000001  0.9888599999999999  0.02236  1.0000
  C   C105      1.0  0.53521  0.04499  0.21067  1.0000
  C   C106      1.0  0.52821  0.9895299999999999  0.30773  1.0000
  C   C107      1.0  0.53309  0.92787  0.25403  1.0000
  C   C108      1.0  0.50344  0.89231  0.22415  1.0000
  C   C109      1.0  0.5069700000000001  0.8325700000000001  0.18601  1.0000
  C   C110      1.0  0.5409300000000001  0.80932  0.17279  1.0000
  C   C111      1.0  0.57087  0.84507  0.19944  1.0000
  N   N7        1.0  0.6053600000000001  0.82132  0.18496  1.0000
  C   C112      1.0  0.56682  0.9039000000000001  0.24209  1.0000
  C   C113      1.0  0.52874  0.10242  0.25852  1.0000
  F   F27       1.0  0.51721  0.10663  0.38672  1.0000
  C   C114      1.0  0.53299  0.15575  0.17476  1.0000
  F   F28       1.0  0.52542  0.20988  0.22424999999999998  1.0000
  H   H55       1.0  0.54286  0.25164  0.0020000000000000018  1.0000
  H   H56       1.0  0.57475  0.2144  0.9047900000000001  1.0000
  H   H57       1.0  0.50047  0.9918  0.34562  1.0000
  H   H58       1.0  0.54503  0.9932899999999999  0.39568  1.0000
  H   H59       1.0  0.47744  0.91095  0.23419  1.0000
  H   H60       1.0  0.5441800000000001  0.76333  0.14326  1.0000
  H   H61       1.0  0.62764  0.8462699999999999  0.21144999999999997  1.0000
  H   H62       1.0  0.60883  0.77881  0.14698  1.0000
  H   H63       1.0  0.58985  0.93108  0.26555  1.0000
  C   C115      1.0  0.06664000000000002  0.36680000000000007  0.48497999999999997  1.0000
  C   C116      1.0  0.028960000000000003  0.3843  0.4643  1.0000
  C   C117      1.0  0.01996  0.44587  0.45514999999999994  1.0000
  F   F29       1.0  0.04530000000000001  0.49077  0.45676  1.0000
  C   C118      1.0  0.98469  0.462  0.44746  1.0000
  F   F30       1.0  0.9778700000000001  0.52226  0.44289000000000006  1.0000
  C   C119      1.0  0.95745  0.41638  0.44875  1.0000
  C   C120      1.0  0.9183100000000001  0.42961999999999995  0.45348  1.0000
  C   C121      1.0  0.9094599999999999  0.49538  0.42239  1.0000
  C   C122      1.0  0.90503  0.53471  0.52532  1.0000
  C   C123      1.0  0.89742  0.59634  0.49611  1.0000
  C   C124      1.0  0.8932599999999999  0.6178999999999999  0.36319  1.0000
  C   C125      1.0  0.89817  0.57914  0.25986  1.0000
  N   N8        1.0  0.89565  0.60217  0.12421999999999998  1.0000
  C   C126      1.0  0.90638  0.51811  0.2897  1.0000
  C   C127      1.0  0.9668500000000001  0.3547999999999999  0.4539  1.0000
  F   F31       1.0  0.94154  0.30964  0.4558  1.0000
  C   C128      1.0  0.0021999999999999793  0.33894  0.46038  1.0000
  F   F32       1.0  0.010229999999999961  0.27906  0.46740999999999994  1.0000
  H   H64       1.0  0.08359000000000001  0.4067700000000001  0.50668  1.0000
  H   H65       1.0  0.06743  0.33342  0.57298  1.0000
  H   H66       1.0  0.9071900000000002  0.41357999999999995  0.55391  1.0000
  H   H67       1.0  0.90462  0.40168000000000004  0.38153  1.0000
  H   H68       1.0  0.9081700000000001  0.5175  0.62777  1.0000
  H   H69       1.0  0.88749  0.66529  0.33925  1.0000
  H   H70       1.0  0.9028  0.57553  0.04657  1.0000
  H   H71       1.0  0.88768  0.64655  0.10051000000000002  1.0000
  H   H72       1.0  0.91046  0.48829  0.20976  1.0000
