data_image0
_chemical_formula_structural       CNCNC3IC2ICNCINH2CNCNC3IC2ICNCINH2CNCNC3IC2ICNCINH2CNCNC3IC2ICNCINH2Sc3C6O13Sc3C6O13
_chemical_formula_sum              "C48 N16 I12 H8 Sc6 O26"
_cell_length_a       9.6191
_cell_length_b       21.289
_cell_length_c       13.4461
_cell_angle_alpha    86.1542
_cell_angle_beta     92.8324
_cell_angle_gamma    90.4821

_space_group_name_H-M_alt    "P 1"
_space_group_IT_number       1

loop_
  _space_group_symop_operation_xyz
  'x, y, z'

loop_
  _atom_site_type_symbol
  _atom_site_label
  _atom_site_symmetry_multiplicity
  _atom_site_fract_x
  _atom_site_fract_y
  _atom_site_fract_z
  _atom_site_occupancy
  C   C1        1.0  0.87674  0.61435  0.9911999999999997  1.0000
  N   N1        1.0  0.0016199999999999787  0.58703  0.9876999999999998  1.0000
  C   C2        1.0  0.12178999999999997  0.61955  0.9980199999999998  1.0000
  N   N2        1.0  0.11769999999999999  0.68233  0.010449999999999996  1.0000
  C   C3        1.0  0.99108  0.71064  0.015229999999999999  1.0000
  C   C4        1.0  0.9810899999999999  0.77928  0.01727  1.0000
  C   C5        1.0  0.98141  0.8075800000000001  0.10870999999999999  1.0000
  I   I1        1.0  0.03587999999999999  0.7532799999999998  0.24437999999999993  1.0000
  C   C6        1.0  0.93849  0.8705899999999999  0.11072  1.0000
  C   C7        1.0  0.8894899999999999  0.904  0.02173  1.0000
  I   I2        1.0  0.77742  0.9906000000000001  0.02582  1.0000
  C   C8        1.0  0.9094899999999999  0.8787999999999999  0.92921  1.0000
  N   N3        1.0  0.8892699999999999  0.9174500000000001  0.8381  1.0000
  C   C9        1.0  0.9511199999999999  0.81552  0.9269700000000001  1.0000
  I   I3        1.0  0.9611499999999998  0.77244  0.78769  1.0000
  N   N4        1.0  0.87064  0.6766  0.005469999999999998  1.0000
  H   H1        1.0  0.85232  0.96341  0.8360399999999998  1.0000
  H   H2        1.0  0.9227500000000002  0.90302  0.7711599999999997  1.0000
  C   C10       1.0  0.62736  0.89228  0.59876  1.0000
  N   N5        1.0  0.5007299999999999  0.9192599999999999  0.5987999999999998  1.0000
  C   C11       1.0  0.38316999999999996  0.8840299999999999  0.6065599999999998  1.0000
  N   N6        1.0  0.3935  0.82026  0.6115799999999999  1.0000
  C   C12       1.0  0.52048  0.7924  0.6147099999999998  1.0000
  C   C13       1.0  0.53016  0.72541  0.5955899999999998  1.0000
  C   C14       1.0  0.53068  0.67842  0.6744  1.0000
  I   I4        1.0  0.49950999999999995  0.70434  0.82276  1.0000
  C   C15       1.0  0.55831  0.61544  0.65521  1.0000
  C   C16       1.0  0.5942699999999999  0.60078  0.55842  1.0000
  I   I5        1.0  0.6716  0.5100100000000001  0.5295599999999999  1.0000
  C   C17       1.0  0.57856  0.6467  0.47792  1.0000
  N   N7        1.0  0.59288  0.62999  0.3771  1.0000
  C   C18       1.0  0.54716  0.70915  0.49700999999999995  1.0000
  I   I6        1.0  0.5307  0.7806799999999999  0.37643  1.0000
  N   N8        1.0  0.6363799999999998  0.82868  0.6051199999999998  1.0000
  H   H3        1.0  0.62695  0.58623  0.3588299999999999  1.0000
  H   H4        1.0  0.55684  0.6588  0.31587  1.0000
  C   C19       1.0  0.13199  0.4046  0.12105000000000009  1.0000
  N   N9        1.0  0.00444  0.43136  0.11863000000000001  1.0000
  C   C20       1.0  0.8870399999999998  0.3957300000000001  0.12566999999999973  1.0000
  N   N10       1.0  0.89862  0.332  0.13161  1.0000
  C   C21       1.0  0.02571999999999997  0.30442  0.13548  1.0000
  C   C22       1.0  0.0366200000000001  0.23824000000000006  0.11145999999999998  1.0000
  C   C23       1.0  0.030850000000000034  0.18835  0.18530999999999995  1.0000
  I   I7        1.0  0.99231  0.20835999999999996  0.33503  1.0000
  C   C24       1.0  0.05775  0.1261  0.16068  1.0000
  C   C25       1.0  0.09866  0.11519  0.06365  1.0000
  I   I8        1.0  0.16974  0.025640000000000107  0.023869999999999992  1.0000
  C   C26       1.0  0.08948000000000002  0.16396  0.98839  1.0000
  N   N11       1.0  0.10720999999999979  0.15069  0.88679  1.0000
  C   C27       1.0  0.057620000000000005  0.22528  0.01169  1.0000
  I   I9        1.0  0.049409999999999954  0.29869  0.89452  1.0000
  N   N12       1.0  0.14127  0.34104  0.12797999999999998  1.0000
  H   H5        1.0  0.19295  0.1256600000000001  0.8664699999999997  1.0000
  H   H6        1.0  0.03703999999999995  0.16848  0.8307899999999998  1.0000
  C   C28       1.0  0.37831999999999993  0.10669000000000001  0.5059  1.0000
  N   N13       1.0  0.5028799999999999  0.07955  0.49872  1.0000
  C   C29       1.0  0.62337  0.11165  0.5105999999999999  1.0000
  N   N14       1.0  0.61991  0.17386  0.52754  1.0000
  C   C30       1.0  0.49387999999999993  0.20187  0.53617  1.0000
  C   C31       1.0  0.48405999999999993  0.27041  0.5387  1.0000
  C   C32       1.0  0.47841  0.29842  0.6303499999999999  1.0000
  I   I10       1.0  0.52331  0.24391999999999997  0.76735  1.0000
  C   C33       1.0  0.43424999999999997  0.3612899999999999  0.63095  1.0000
  C   C34       1.0  0.39045  0.39474  0.54063  1.0000
  I   I11       1.0  0.2774599999999999  0.48131  0.54018  1.0000
  C   C35       1.0  0.41934  0.37011  0.44924  1.0000
  N   N15       1.0  0.40768999999999994  0.409  0.3573799999999999  1.0000
  C   C36       1.0  0.463  0.30722000000000005  0.44812999999999986  1.0000
  I   I12       1.0  0.48395999999999995  0.26595  0.30893999999999994  1.0000
  N   N16       1.0  0.37312  0.16829000000000002  0.52479  1.0000
  H   H7        1.0  0.35163  0.45084  0.3501599999999999  1.0000
  H   H8        1.0  0.47502999999999995  0.4021700000000001  0.30077  1.0000
  Sc  Sc1       1.0  0.0040399999999999915  0.9978899999999999  0.5437399999999999  1.0000
  Sc  Sc2       1.0  0.8442399999999999  0.98558  0.3511399999999999  1.0000
  Sc  Sc3       1.0  0.14242999999999997  0.96275  0.3586699999999999  1.0000
  C   C37       1.0  0.25513  0.06875  0.48147  1.0000
  C   C38       1.0  0.7468099999999999  0.07904  0.48197999999999996  1.0000
  C   C39       1.0  0.039839999999999876  0.07223  0.23443999999999995  1.0000
  C   C40       1.0  0.73763  0.9284900000000001  0.5503199999999999  1.0000
  C   C41       1.0  0.26014  0.91255  0.5556899999999999  1.0000
  C   C42       1.0  0.9550099999999999  0.90387  0.20319999999999994  1.0000
  O   O1        1.0  0.14836  0.06901  0.53439  1.0000
  O   O2        1.0  0.7289999999999999  0.05288000000000001  0.3999099999999999  1.0000
  O   O3        1.0  0.13856999999999997  0.033600000000000005  0.2514199999999999  1.0000
  O   O4        1.0  0.84219  0.94856  0.6030599999999999  1.0000
  O   O5        1.0  0.25915999999999995  0.91046  0.4598899999999999  1.0000
  O   O6        1.0  0.8467599999999998  0.93028  0.2345  1.0000
  O   O7        1.0  0.17124999999999999  0.9433199999999999  0.6038299999999999  1.0000
  O   O8        1.0  0.7231  0.93771  0.4543299999999999  1.0000
  O   O9        1.0  0.07889  0.90773  0.24508999999999997  1.0000
  O   O10       1.0  0.8530699999999999  0.06845  0.54306  1.0000
  O   O11       1.0  0.26769999999999994  0.03143  0.41177999999999987  1.0000
  O   O12       1.0  0.9247  0.06474  0.27724  1.0000
  O   O13       1.0  0.9853699999999999  0.94759  0.43260999999999994  1.0000
  Sc  Sc4       1.0  0.50588  0.50814  0.04891  1.0000
  Sc  Sc5       1.0  0.3453699999999999  0.48408999999999996  0.8617699999999998  1.0000
  Sc  Sc6       1.0  0.64182  0.46014000000000005  0.87067  1.0000
  C   C43       1.0  0.7542099999999999  0.57456  0.9735999999999998  1.0000
  C   C44       1.0  0.24598  0.5852  0.9752099999999998  1.0000
  C   C45       1.0  0.54151  0.56449  0.73437  1.0000
  C   C46       1.0  0.24140999999999999  0.43937  0.06902999999999992  1.0000
  C   C47       1.0  0.7639900000000001  0.42265  0.07177999999999995  1.0000
  C   C48       1.0  0.45064999999999994  0.39564  0.7225199999999999  1.0000
  O   O14       1.0  0.6457399999999999  0.57962  0.023479999999999994  1.0000
  O   O15       1.0  0.22677  0.55283  0.89993  1.0000
  O   O16       1.0  0.63997  0.52607  0.7554299999999998  1.0000
  O   O17       1.0  0.34631  0.46248000000000006  0.11835  1.0000
  O   O18       1.0  0.7594099999999998  0.41328  0.9779299999999997  1.0000
  O   O19       1.0  0.34321  0.42382  0.7511299999999999  1.0000
  O   O20       1.0  0.67767  0.45801  0.11441999999999998  1.0000
  O   O21       1.0  0.22693999999999998  0.44281  0.9726999999999998  1.0000
  O   O22       1.0  0.57419  0.39943  0.76533  1.0000
  O   O23       1.0  0.35412  0.57932  0.03598  1.0000
  O   O24       1.0  0.7688899999999999  0.53109  0.9140299999999998  1.0000
  O   O25       1.0  0.42734  0.55971  0.77903  1.0000
  O   O26       1.0  0.48602999999999996  0.45016999999999996  0.94759  1.0000
