data_image0
_chemical_formula_structural       C2CoO7C2O2CoC2CoO7C2O2CoC2CoO7C2O2CoC2CoO7C2O2CoC3FCFC11FCFH13C3FCFC11FCFH13C3FCFC11FCFH13C3FCFC11FCFH13C3FCFC11FCFH13C3FCFC11FCFH13C3FCFC11FCFH13C3FCFC11FCFH13
_chemical_formula_sum              "C144 Co8 O36 F32 H104"
_cell_length_a       39.5951
_cell_length_b       22.7061
_cell_length_c       6.8513
_cell_angle_alpha    81.6044
_cell_angle_beta     89.3455
_cell_angle_gamma    92.1064

_symmetry_space_group_name_H-M    'P 1'
_symmetry_Int_Tables_number       1

loop_
  _symmetry_equiv_pos_as_xyz
  'x,y,z'

loop_
  _atom_site_type_symbol
  _atom_site_label
  _atom_site_symmetry_multiplicity
  _atom_site_fract_x
  _atom_site_fract_y
  _atom_site_fract_z
  _atom_site_occupancy
  C   C1        1.0  0.31548  0.8268  0.12839  1.0000
  C   C2        1.0  0.42685000000000006  0.8287500000000001  0.11141000000000001  1.0000
  Co  Co1       1.0  0.32719000000000004  0.75287  0.8520800000000001  1.0000
  O   O1        1.0  0.41047000000000006  0.7064700000000002  0.23492  1.0000
  O   O2        1.0  0.39625  0.82264  0.21751000000000006  1.0000
  O   O3        1.0  0.30251  0.7046800000000001  0.05608  1.0000
  O   O4        1.0  0.3463800000000001  0.6806800000000001  0.25998  1.0000
  O   O5        1.0  0.3689300000000001  0.75822  0.9640000000000001  1.0000
  O   O6        1.0  0.39258  0.65421  0.99249  1.0000
  O   O7        1.0  0.43234000000000006  0.7979  0.9843000000000001  1.0000
  C   C3        1.0  0.31775  0.66834  0.19203  1.0000
  C   C4        1.0  0.41188  0.65855  0.12711  1.0000
  O   O8        1.0  0.33249  0.7926500000000002  0.2526900000000001  1.0000
  O   O9        1.0  0.31464000000000003  0.8226600000000002  0.9384000000000001  1.0000
  Co  Co2       1.0  0.37075000000000014  0.7503000000000002  0.23375000000000007  1.0000
  C   C5        1.0  0.8053200000000001  0.7123800000000001  0.6669900000000001  1.0000
  C   C6        1.0  0.89049  0.6338100000000001  0.64941  1.0000
  Co  Co3       1.0  0.8486000000000001  0.7873900000000001  0.39087000000000005  1.0000
  O   O10       1.0  0.90788  0.7738400000000001  0.8876000000000002  1.0000
  O   O11       1.0  0.8932300000000001  0.6607600000000001  0.8204600000000002  1.0000
  O   O12       1.0  0.8486500000000001  0.8535900000000002  0.51961  1.0000
  O   O13       1.0  0.8457700000000001  0.79947  0.8322500000000003  1.0000
  O   O14       1.0  0.8801200000000001  0.75327  0.55874  1.0000
  O   O15       1.0  0.94542  0.7301700000000001  0.7036500000000001  1.0000
  O   O16       1.0  0.8658500000000002  0.64157  0.54645  1.0000
  C   C7        1.0  0.84114  0.84677  0.71031  1.0000
  C   C8        1.0  0.93955  0.7697000000000003  0.7995900000000002  1.0000
  O   O17       1.0  0.8298700000000001  0.69179  0.77113  1.0000
  O   O18       1.0  0.80849  0.75745  0.5223500000000001  1.0000
  Co  Co4       1.0  0.86907  0.73155  0.82062  1.0000
  C   C9        1.0  0.14118000000000003  0.3187  0.41184  1.0000
  C   C10       1.0  0.05584  0.32064  0.2622900000000001  1.0000
  Co  Co5       1.0  0.12025  0.20561000000000004  0.58383  1.0000
  O   O19       1.0  0.07959  0.20301000000000005  0.009840000000000003  1.0000
  O   O20       1.0  0.07748  0.31175  0.10768000000000003  1.0000
  O   O21       1.0  0.16114  0.19498  0.45390000000000014  1.0000
  O   O22       1.0  0.14175  0.19748  0.13995  1.0000
  O   O23       1.0  0.09226  0.21636000000000005  0.3727200000000001  1.0000
  O   O24       1.0  0.09338  0.11846  0.21375  1.0000
  O   O25       1.0  0.04134  0.27876000000000006  0.36479  1.0000
  C   C11       1.0  0.16284  0.18115000000000003  0.27343  1.0000
  C   C12       1.0  0.07746000000000003  0.14130000000000004  0.07348  1.0000
  O   O26       1.0  0.13878  0.30282  0.24061000000000005  1.0000
  O   O27       1.0  0.12798  0.28703000000000006  0.5727900000000002  1.0000
  Co  Co6       1.0  0.10956000000000002  0.25209  0.13337  1.0000
  C   C13       1.0  0.66691  0.17384000000000005  0.86485  1.0000
  C   C14       1.0  0.5696200000000001  0.19319000000000003  0.74185  1.0000
  Co  Co7       1.0  0.6453700000000001  0.23651000000000003  0.15196  1.0000
  O   O28       1.0  0.59196  0.32658999999999994  0.6600900000000001  1.0000
  O   O29       1.0  0.59878  0.21161000000000002  0.6298900000000002  1.0000
  O   O30       1.0  0.68308  0.27909000000000006  0.025080000000000213  1.0000
  O   O31       1.0  0.65525  0.33099  0.77051  1.0000
  O   O32       1.0  0.61297  0.25391  0.9659000000000001  1.0000
  O   O33       1.0  0.60274  0.36896  0.9371300000000002  1.0000
  O   O34       1.0  0.55365  0.22857000000000005  0.8193800000000001  1.0000
  C   C15       1.0  0.6790700000000001  0.32680000000000003  0.8942800000000002  1.0000
  C   C16       1.0  0.58621  0.368  0.7888800000000002  1.0000
  O   O35       1.0  0.6612  0.21900000000000006  0.7355600000000002  1.0000
  O   O36       1.0  0.65522  0.16835  0.04806  1.0000
  Co  Co8       1.0  0.62705  0.2722200000000001  0.7071800000000003  1.0000
  C   C17       1.0  0.3125  0.38197  0.37523000000000006  1.0000
  C   C18       1.0  0.31166000000000005  0.42668  0.20871000000000006  1.0000
  C   C19       1.0  0.2925900000000001  0.47768000000000005  0.20017  1.0000
  F   F1        1.0  0.29556  0.51744  0.03175000000000001  1.0000
  C   C20       1.0  0.2699  0.48805000000000004  0.3507000000000001  1.0000
  F   F2        1.0  0.26249  0.44347000000000003  0.50127  1.0000
  C   C21       1.0  0.25208  0.54133  0.3424400000000001  1.0000
  C   C22       1.0  0.21849000000000002  0.54051  0.45271  1.0000
  C   C23       1.0  0.19647  0.48498000000000013  0.44088000000000005  1.0000
  C   C24       1.0  0.19288  0.44201000000000007  0.60963  1.0000
  C   C25       1.0  0.1752  0.38758000000000004  0.60592  1.0000
  C   C26       1.0  0.17482  0.3422500000000001  0.79022  1.0000
  C   C27       1.0  0.15956  0.37619  0.4290100000000001  1.0000
  C   C28       1.0  0.16209  0.42043  0.2620100000000001  1.0000
  C   C29       1.0  0.18051000000000003  0.47438000000000013  0.26529  1.0000
  C   C30       1.0  0.18303  0.5195500000000001  0.08084  1.0000
  C   C31       1.0  0.26668  0.59747  0.26164000000000004  1.0000
  F   F3        1.0  0.24603000000000003  0.6426800000000001  0.19938  1.0000
  C   C32       1.0  0.30137  0.6109000000000001  0.27673  1.0000
  F   F4        1.0  0.32099  0.57191  0.38964  1.0000
  H   H1        1.0  0.33845  0.3797500000000001  0.4347300000000001  1.0000
  H   H2        1.0  0.30442  0.33817  0.3340300000000001  1.0000
  H   H3        1.0  0.32746  0.4217600000000001  0.08239000000000003  1.0000
  H   H4        1.0  0.22445000000000004  0.54403  0.60891  1.0000
  H   H5        1.0  0.20379000000000003  0.5802700000000001  0.4000900000000001  1.0000
  H   H6        1.0  0.20536  0.45003000000000004  0.7437100000000002  1.0000
  H   H7        1.0  0.19055  0.35739000000000004  0.9079400000000002  1.0000
  H   H8        1.0  0.18502  0.29984000000000005  0.75686  1.0000
  H   H9        1.0  0.14864  0.33465  0.8499600000000003  1.0000
  H   H10       1.0  0.14967  0.41278  0.12736  1.0000
  H   H11       1.0  0.16876000000000002  0.50418  0.9579100000000002  1.0000
  H   H12       1.0  0.17243000000000003  0.56214  0.10919  1.0000
  H   H13       1.0  0.20984  0.52738  0.03209  1.0000
  C   C33       1.0  0.84082  0.026429999999999954  0.4762200000000001  1.0000
  C   C34       1.0  0.8523800000000001  0.03322000000000002  0.6662800000000002  1.0000
  C   C35       1.0  0.8310500000000001  0.03228999999999992  0.83143  1.0000
  F   F5        1.0  0.8440900000000001  0.05639999999999999  0.98537  1.0000
  C   C36       1.0  0.7966500000000002  0.013749999999999924  0.8448800000000002  1.0000
  F   F6        1.0  0.77787  0.03621  0.98142  1.0000
  C   C37       1.0  0.7811600000000002  0.97235  0.73412  1.0000
  C   C38       1.0  0.7442200000000001  0.9751600000000002  0.6748  1.0000
  C   C39       1.0  0.7252  0.02712000000000003  0.72939  1.0000
  C   C40       1.0  0.7248  0.07961  0.59325  1.0000
  C   C41       1.0  0.70612  0.12831999999999996  0.62983  1.0000
  C   C42       1.0  0.70632  0.1823  0.4725900000000001  1.0000
  C   C43       1.0  0.68764  0.12492  0.81074  1.0000
  C   C44       1.0  0.68865  0.07221  0.9474400000000002  1.0000
  C   C45       1.0  0.70664  0.02326  0.90831  1.0000
  C   C46       1.0  0.70559  0.9675600000000002  0.058860000000000016  1.0000
  C   C47       1.0  0.79834  0.9239400000000001  0.6786000000000001  1.0000
  F   F7        1.0  0.78578  0.8979  0.5264000000000001  1.0000
  C   C48       1.0  0.82505  0.8964300000000002  0.7844  1.0000
  F   F8        1.0  0.8322900000000001  0.9075700000000002  0.9691200000000002  1.0000
  H   H14       1.0  0.8457400000000002  0.06852000000000014  0.3738100000000001  1.0000
  H   H15       1.0  0.85409  0.9897700000000001  0.4208900000000001  1.0000
  H   H16       1.0  0.8786600000000001  0.046990000000000316  0.67895  1.0000
  H   H17       1.0  0.743  0.9766700000000003  0.51197  1.0000
  H   H18       1.0  0.73088  0.9325400000000003  0.7363500000000001  1.0000
  H   H19       1.0  0.7389300000000001  0.08200999999999992  0.45561000000000007  1.0000
  H   H20       1.0  0.72233  0.17664000000000002  0.3429  1.0000
  H   H21       1.0  0.71643  0.22216000000000002  0.53226  1.0000
  H   H22       1.0  0.6803  0.18973000000000004  0.41861000000000004  1.0000
  H   H23       1.0  0.6747600000000001  0.06858000000000002  0.08606000000000001  1.0000
  H   H24       1.0  0.6915700000000002  0.97381  0.19526000000000004  1.0000
  H   H25       1.0  0.69261  0.9305000000000002  0.9967800000000001  1.0000
  H   H26       1.0  0.7315700000000002  0.95492  0.10162  1.0000
  C   C49       1.0  0.2608  0.16399000000000002  0.50385  1.0000
  C   C50       1.0  0.2695  0.18412000000000003  0.3040400000000001  1.0000
  C   C51       1.0  0.2706  0.14674000000000004  0.15865000000000004  1.0000
  F   F9        1.0  0.28917  0.16728000000000007  0.9935100000000001  1.0000
  C   C52       1.0  0.25737000000000004  0.08771  0.17785000000000006  1.0000
  F   F10       1.0  0.27235  0.05222000000000001  0.06227  1.0000
  C   C53       1.0  0.22994000000000003  0.06417999999999999  0.3044000000000001  1.0000
  C   C54       1.0  0.22842  0.99995  0.4071800000000001  1.0000
  C   C55       1.0  0.25167  0.9573900000000001  0.3265400000000001  1.0000
  C   C56       1.0  0.28091  0.9407700000000001  0.431  1.0000
  C   C57       1.0  0.30256000000000005  0.8991100000000002  0.36995  1.0000
  C   C58       1.0  0.33436  0.88576  0.4844000000000001  1.0000
  C   C59       1.0  0.29448  0.8725500000000002  0.20035  1.0000
  C   C60       1.0  0.26557  0.8904900000000002  0.09339000000000001  1.0000
  C   C61       1.0  0.24405  0.93233  0.15419000000000005  1.0000
  C   C62       1.0  0.21337  0.9496  0.033379999999999965  1.0000
  C   C63       1.0  0.20286000000000004  0.09905000000000001  0.34886  1.0000
  F   F11       1.0  0.18435  0.08071000000000002  0.5167200000000001  1.0000
  C   C64       1.0  0.19145000000000004  0.14732000000000003  0.21849  1.0000
  F   F12       1.0  0.20247000000000004  0.15714  0.027540000000000005  1.0000
  H   H27       1.0  0.2831  0.16895000000000004  0.5974400000000001  1.0000
  H   H28       1.0  0.23982  0.19009000000000004  0.55106  1.0000
  H   H29       1.0  0.28008000000000005  0.22911000000000006  0.26777  1.0000
  H   H30       1.0  0.23372000000000004  0.001049999999999995  0.56568  1.0000
  H   H31       1.0  0.20212  0.98121  0.4049600000000001  1.0000
  H   H32       1.0  0.2869300000000001  0.96074  0.5613500000000001  1.0000
  H   H33       1.0  0.33749  0.9137000000000002  0.6037  1.0000
  H   H34       1.0  0.35673  0.89499  0.3841600000000001  1.0000
  H   H35       1.0  0.3336  0.8385700000000001  0.5549400000000001  1.0000
  H   H36       1.0  0.25934  0.87094  0.96255  1.0000
  H   H37       1.0  0.21227000000000001  0.92769  0.89865  1.0000
  H   H38       1.0  0.18998  0.9361200000000001  0.12180000000000014  1.0000
  H   H39       1.0  0.21398000000000006  0.9984599999999999  0.9850800000000002  1.0000
  C   C65       1.0  0.8411500000000001  0.54624  0.33416  1.0000
  C   C66       1.0  0.81428  0.5859700000000001  0.31207000000000007  1.0000
  C   C67       1.0  0.7926900000000002  0.59647  0.4656500000000001  1.0000
  F   F13       1.0  0.7667400000000001  0.63256  0.41329  1.0000
  C   C68       1.0  0.79504  0.56816  0.66213  1.0000
  F   F14       1.0  0.81574  0.5215500000000001  0.70061  1.0000
  C   C69       1.0  0.77436  0.58052  0.8199800000000003  1.0000
  C   C70       1.0  0.76715  0.52982  0.98845  1.0000
  C   C71       1.0  0.74426  0.4797300000000001  0.9337100000000003  1.0000
  C   C72       1.0  0.75854  0.42511  0.9103400000000003  1.0000
  C   C73       1.0  0.7381300000000001  0.37439  0.8899600000000002  1.0000
  C   C74       1.0  0.7544100000000001  0.3172600000000001  0.8604300000000003  1.0000
  C   C75       1.0  0.70267  0.37842  0.8933900000000002  1.0000
  C   C76       1.0  0.6885300000000002  0.43313  0.90667  1.0000
  C   C77       1.0  0.7086100000000001  0.48354  0.9288600000000002  1.0000
  C   C78       1.0  0.69103  0.53952  0.9546600000000002  1.0000
  C   C79       1.0  0.76101  0.63689  0.8362100000000002  1.0000
  F   F15       1.0  0.7367200000000003  0.6400300000000001  0.9752100000000002  1.0000
  C   C80       1.0  0.77048  0.6917200000000002  0.7249800000000002  1.0000
  F   F16       1.0  0.74722  0.7345700000000002  0.70894  1.0000
  H   H40       1.0  0.86418  0.56788  0.2571  1.0000
  H   H41       1.0  0.8342700000000001  0.50514  0.27185  1.0000
  H   H42       1.0  0.81026  0.60996  0.16635000000000005  1.0000
  H   H43       1.0  0.7916200000000001  0.51174  0.04042000000000012  1.0000
  H   H44       1.0  0.7560700000000001  0.5457600000000001  0.11975000000000004  1.0000
  H   H45       1.0  0.78576  0.4216700000000001  0.9131900000000002  1.0000
  H   H46       1.0  0.7823  0.3234  0.8431900000000002  1.0000
  H   H47       1.0  0.74459  0.3017500000000001  0.7247200000000003  1.0000
  H   H48       1.0  0.74881  0.2823300000000001  0.9888200000000003  1.0000
  H   H49       1.0  0.66131  0.43554  0.90898  1.0000
  H   H50       1.0  0.66314  0.53351  0.9502000000000003  1.0000
  H   H51       1.0  0.69711  0.5527800000000002  0.10020999999999992  1.0000
  H   H52       1.0  0.69844  0.5750300000000002  0.83173  1.0000
  C   C81       1.0  0.5245400000000001  0.65163  0.24542  1.0000
  C   C82       1.0  0.536  0.6024  0.16262000000000001  1.0000
  C   C83       1.0  0.51953  0.54611  0.17449000000000003  1.0000
  F   F17       1.0  0.53547  0.5056700000000001  0.0832  1.0000
  C   C84       1.0  0.48964  0.5255700000000001  0.27962  1.0000
  F   F18       1.0  0.48084  0.46697000000000005  0.28553  1.0000
  C   C85       1.0  0.47387  0.5556600000000002  0.41830000000000006  1.0000
  C   C86       1.0  0.47869000000000006  0.53523  0.63711  1.0000
  C   C87       1.0  0.50604  0.4901800000000001  0.6798900000000001  1.0000
  C   C88       1.0  0.53987  0.51116  0.6594300000000002  1.0000
  C   C89       1.0  0.5665  0.47227000000000013  0.6942300000000002  1.0000
  C   C90       1.0  0.6022700000000001  0.49735  0.67886  1.0000
  C   C91       1.0  0.55921  0.41065000000000007  0.7457900000000002  1.0000
  C   C92       1.0  0.52552  0.3892300000000001  0.76202  1.0000
  C   C93       1.0  0.49874000000000007  0.42835000000000023  0.73309  1.0000
  C   C94       1.0  0.46294  0.40338  0.7609200000000002  1.0000
  C   C95       1.0  0.45015000000000005  0.59974  0.36379  1.0000
  F   F19       1.0  0.43754  0.62836  0.50817  1.0000
  C   C96       1.0  0.4373  0.61316  0.17275  1.0000
  F   F20       1.0  0.44536000000000003  0.58058  0.028950000000000007  1.0000
  H   H53       1.0  0.5221  0.6420200000000001  0.4084100000000001  1.0000
  H   H54       1.0  0.50114  0.6684400000000001  0.17404  1.0000
  H   H55       1.0  0.55938  0.60963  0.07752  1.0000
  H   H56       1.0  0.48576  0.57462  0.7093500000000001  1.0000
  H   H57       1.0  0.45404000000000005  0.51771  0.7039700000000002  1.0000
  H   H58       1.0  0.54541  0.5584900000000002  0.62039  1.0000
  H   H59       1.0  0.60349  0.5456400000000002  0.61981  1.0000
  H   H60       1.0  0.61753  0.47395  0.5793500000000001  1.0000
  H   H61       1.0  0.61327  0.4917  0.8279300000000002  1.0000
  H   H62       1.0  0.52016  0.3418300000000001  0.8024000000000002  1.0000
  H   H63       1.0  0.46197000000000005  0.35402000000000006  0.79609  1.0000
  H   H64       1.0  0.45061000000000007  0.42117  0.8852500000000002  1.0000
  H   H65       1.0  0.44846  0.41570000000000007  0.6242300000000001  1.0000
  C   C97       1.0  0.93043  0.87687  0.22288  1.0000
  C   C98       1.0  0.95945  0.8438300000000002  0.27578  1.0000
  C   C99       1.0  0.99278  0.8611300000000002  0.21565000000000006  1.0000
  F   F21       1.0  0.017470000000000097  0.83877  0.3375900000000001  1.0000
  C   C100      1.0  0.0029300000000000996  0.9019900000000001  0.04861000000000004  1.0000
  F   F22       1.0  0.034570000000000004  0.9265400000000003  0.054020000000000006  1.0000
  C   C101      1.0  0.9836  0.9159100000000001  0.8758100000000002  1.0000
  C   C102      1.0  0.9875000000000002  0.9758900000000001  0.74226  1.0000
  C   C103      1.0  0.01017  0.022869999999999998  0.81781  1.0000
  C   C104      1.0  0.04487  0.025780000000000004  0.76837  1.0000
  C   C105      1.0  0.06748  0.06441000000000002  0.8491000000000001  1.0000
  C   C106      1.0  0.10479  0.06356999999999999  0.8036000000000001  1.0000
  C   C107      1.0  0.05484  0.10321  0.9729900000000001  1.0000
  C   C108      1.0  0.0201  0.10358  0.011030000000000002  1.0000
  C   C109      1.0  0.9975600000000001  0.06352999999999999  0.9366400000000003  1.0000
  C   C110      1.0  0.9605200000000003  0.06481999999999999  0.9872700000000002  1.0000
  C   C111      1.0  0.96077  0.8736800000000001  0.8124100000000002  1.0000
  F   F23       1.0  0.9333300000000001  0.89355  0.7085600000000002  1.0000
  C   C112      1.0  0.9666100000000001  0.81255  0.8351400000000002  1.0000
  F   F24       1.0  0.9979  0.7921900000000002  0.87796  1.0000
  H   H66       1.0  0.91368  0.8535800000000001  0.1278100000000002  1.0000
  H   H67       1.0  0.9365000000000002  0.9234  0.15629000000000026  1.0000
  H   H68       1.0  0.95602  0.80774  0.3959700000000001  1.0000
  H   H69       1.0  0.99725  0.9678400000000003  0.5958900000000001  1.0000
  H   H70       1.0  0.96209  0.9938600000000001  0.71316  1.0000
  H   H71       1.0  0.054480000000000015  0.9958100000000002  0.67321  1.0000
  H   H72       1.0  0.11041  0.031059999999999997  0.7023800000000001  1.0000
  H   H73       1.0  0.11886  0.051130000000000016  0.94186  1.0000
  H   H74       1.0  0.11404000000000002  0.10833000000000004  0.7323299999999999  1.0000
  H   H75       1.0  0.0107  0.1343  0.10414  1.0000
  H   H76       1.0  0.9554700000000002  0.09840000000000002  0.08567000000000015  1.0000
  H   H77       1.0  0.94587  0.07645  0.8508500000000002  1.0000
  H   H78       1.0  0.9515300000000002  0.020790000000000003  0.06484000000000001  1.0000
  C   C113      1.0  0.51982  0.89104  0.67346  1.0000
  C   C114      1.0  0.50251  0.94498  0.6522300000000002  1.0000
  C   C115      1.0  0.51346  0.9971000000000001  0.7229400000000002  1.0000
  F   F25       1.0  0.4929700000000001  0.04414  0.6899000000000001  1.0000
  C   C116      1.0  0.5412  0.0006700000000000025  0.84709  1.0000
  F   F26       1.0  0.56134  0.9534900000000002  0.8887500000000002  1.0000
  C   C117      1.0  0.53919  0.03895  0.9889600000000001  1.0000
  C   C118      1.0  0.53009  0.010539999999999999  0.19783000000000006  1.0000
  C   C119      1.0  0.5018  0.9635000000000002  0.19745000000000004  1.0000
  C   C120      1.0  0.51044  0.9036300000000002  0.21347000000000005  1.0000
  C   C121      1.0  0.48627000000000004  0.8586300000000001  0.19198000000000007  1.0000
  C   C122      1.0  0.49693000000000004  0.79503  0.21346000000000007  1.0000
  C   C123      1.0  0.45256  0.8738400000000002  0.15145  1.0000
  C   C124      1.0  0.44335  0.9330900000000002  0.14625000000000005  1.0000
  C   C125      1.0  0.46766  0.97834  0.16748000000000002  1.0000
  C   C126      1.0  0.4569  0.04162  0.15813000000000005  1.0000
  C   C127      1.0  0.54419  0.10129000000000006  0.94368  1.0000
  F   F27       1.0  0.53836  0.13477000000000003  0.08878000000000003  1.0000
  C   C128      1.0  0.5588  0.12985999999999998  0.7652500000000002  1.0000
  F   F28       1.0  0.56899  0.09816  0.6233400000000001  1.0000
  H   H79       1.0  0.52051  0.87022  0.82965  1.0000
  H   H80       1.0  0.54556  0.89805  0.6062200000000002  1.0000
  H   H81       1.0  0.47833  0.9451000000000002  0.5804  1.0000
  H   H82       1.0  0.55312  0.9900800000000001  0.26461  1.0000
  H   H83       1.0  0.52273  0.04361000000000001  0.29311000000000004  1.0000
  H   H84       1.0  0.53649  0.89213  0.23908  1.0000
  H   H85       1.0  0.5239  0.7911100000000002  0.25449000000000005  1.0000
  H   H86       1.0  0.4937500000000001  0.77749  0.0717  1.0000
  H   H87       1.0  0.48141  0.7672000000000002  0.3306500000000001  1.0000
  H   H88       1.0  0.41725  0.94424  0.11970000000000003  1.0000
  H   H89       1.0  0.42941  0.0454  0.13108  1.0000
  H   H90       1.0  0.46239  0.05782000000000001  0.30010000000000003  1.0000
  H   H91       1.0  0.47068  0.0708  0.03688  1.0000
  C   C129      1.0  0.08959  0.5977100000000001  0.3643  1.0000
  C   C130      1.0  0.09036  0.54183  0.4855600000000001  1.0000
  C   C131      1.0  0.06508  0.4970000000000001  0.4889700000000001  1.0000
  F   F29       1.0  0.07062  0.4444300000000001  0.60429  1.0000
  C   C132      1.0  0.03450000000000001  0.5044  0.3858900000000001  1.0000
  F   F30       1.0  0.02625  0.55995  0.30296  1.0000
  C   C133      1.0  0.010520000000000002  0.45709000000000005  0.37863  1.0000
  C   C134      1.0  0.97471  0.47109  0.3174800000000001  1.0000
  C   C135      1.0  0.9583800000000001  0.5170000000000001  0.4241600000000001  1.0000
  C   C136      1.0  0.9516300000000001  0.57214  0.3137200000000001  1.0000
  C   C137      1.0  0.93141  0.61277  0.3900500000000001  1.0000
  C   C138      1.0  0.9242700000000001  0.67054  0.26136  1.0000
  C   C139      1.0  0.91759  0.59826  0.58292  1.0000
  C   C140      1.0  0.9264300000000001  0.54538  0.7003  1.0000
  C   C141      1.0  0.94669  0.50428  0.62257  1.0000
  C   C142      1.0  0.9543  0.4465  0.7491400000000003  1.0000
  C   C143      1.0  0.01961  0.39740000000000003  0.38351000000000013  1.0000
  F   F31       1.0  0.99602  0.35351000000000005  0.44637  1.0000
  C   C144      1.0  0.048810000000000006  0.38242  0.28595  1.0000
  F   F32       1.0  0.06914  0.42582000000000003  0.18240000000000006  1.0000
  H   H92       1.0  0.11154000000000001  0.6033600000000001  0.26022000000000006  1.0000
  H   H93       1.0  0.09004000000000001  0.63404  0.4564800000000001  1.0000
  H   H94       1.0  0.11246  0.53246  0.5750100000000001  1.0000
  H   H95       1.0  0.9758400000000002  0.48685  0.15602  1.0000
  H   H96       1.0  0.95775  0.4305500000000001  0.33405000000000007  1.0000
  H   H97       1.0  0.9612500000000003  0.58265  0.16345  1.0000
  H   H98       1.0  0.93913  0.6759  0.12126  1.0000
  H   H99       1.0  0.93124  0.7087200000000001  0.3385700000000001  1.0000
  H   H100      1.0  0.89711  0.67194  0.22368000000000005  1.0000
  H   H101      1.0  0.91584  0.53462  0.84838  1.0000
  H   H102      1.0  0.9430800000000001  0.44367  0.8996300000000003  1.0000
  H   H103      1.0  0.9437500000000001  0.40835  0.6819900000000002  1.0000
  H   H104      1.0  0.9820500000000002  0.44275000000000003  0.76366  1.0000
