data_image0
_chemical_formula_structural       Al4H28C48O20
_chemical_formula_sum              "Al4 H28 C48 O20"
_cell_length_a       19.90377
_cell_length_b       6.67478
_cell_length_c       16.28877
_cell_angle_alpha    89.97283
_cell_angle_beta     89.97232
_cell_angle_gamma    90.08095000000002

_space_group_name_H-M_alt    "P 1"
_space_group_IT_number       1

loop_
  _space_group_symop_operation_xyz
  'x, y, z'

loop_
  _atom_site_type_symbol
  _atom_site_label
  _atom_site_symmetry_multiplicity
  _atom_site_fract_x
  _atom_site_fract_y
  _atom_site_fract_z
  _atom_site_occupancy
  Al  Al1       1.0  0.24331  0.74972  0.2483  1.0000
  Al  Al2       1.0  0.25561000000000006  0.25001  0.24827  1.0000
  Al  Al3       1.0  0.7558600000000002  0.24682000000000004  0.74834  1.0000
  Al  Al4       1.0  0.74393  0.74714  0.7481  1.0000
  H   H1        1.0  0.43902  0.24452000000000004  0.38411  1.0000
  H   H2        1.0  0.060120000000000014  0.7543900000000002  0.3841400000000001  1.0000
  H   H3        1.0  0.058870000000000006  0.7454000000000001  0.11403  1.0000
  H   H4        1.0  0.4407700000000001  0.25374  0.11379  1.0000
  H   H5        1.0  0.5595200000000001  0.7529  0.6138  1.0000
  H   H6        1.0  0.94011  0.24408000000000005  0.61368  1.0000
  H   H7        1.0  0.93987  0.2535  0.88331  1.0000
  H   H8        1.0  0.5598900000000002  0.74135  0.88469  1.0000
  H   H9        1.0  0.36288  0.8280500000000002  0.44473  1.0000
  H   H10       1.0  0.13628  0.17021000000000003  0.4438100000000001  1.0000
  H   H11       1.0  0.13567000000000004  0.3290300000000001  0.05359  1.0000
  H   H12       1.0  0.36378000000000005  0.67005  0.05425  1.0000
  H   H13       1.0  0.6348400000000001  0.16807  0.5535800000000002  1.0000
  H   H14       1.0  0.8642  0.82865  0.5539700000000002  1.0000
  H   H15       1.0  0.8631800000000001  0.6700400000000001  0.9440800000000003  1.0000
  H   H16       1.0  0.63762  0.32415  0.94427  1.0000
  H   H17       1.0  0.45639  0.8805400000000002  0.544  1.0000
  H   H18       1.0  0.04317000000000001  0.11809  0.5442900000000003  1.0000
  H   H19       1.0  0.0425  0.38151  0.9536500000000002  1.0000
  H   H20       1.0  0.45694000000000007  0.61661  0.95445  1.0000
  H   H21       1.0  0.5415700000000001  0.11729000000000003  0.4537  1.0000
  H   H22       1.0  0.9580600000000001  0.8821000000000002  0.4547600000000001  1.0000
  H   H23       1.0  0.95589  0.6192500000000002  0.04493  1.0000
  H   H24       1.0  0.54441  0.3789800000000001  0.04368  1.0000
  H   H25       1.0  0.75209  0.49729000000000007  0.85668  1.0000
  H   H26       1.0  0.24900000000000005  0.5000100000000001  0.13978  1.0000
  H   H27       1.0  0.74916  0.9978800000000001  0.6395100000000002  1.0000
  H   H28       1.0  0.25210000000000005  0.99898  0.35664  1.0000
  C   C1        1.0  0.33956  0.5074700000000001  0.3488900000000001  1.0000
  C   C2        1.0  0.15977  0.49212000000000006  0.34887  1.0000
  C   C3        1.0  0.15889  0.00872  0.14847000000000005  1.0000
  C   C4        1.0  0.34012  0.99141  0.14826  1.0000
  C   C5        1.0  0.65873  0.48884  0.6490700000000003  1.0000
  C   C6        1.0  0.8395500000000001  0.50638  0.6475400000000002  1.0000
  C   C7        1.0  0.8403000000000003  0.98926  0.84827  1.0000
  C   C8        1.0  0.66017  0.0029900000000000018  0.84903  1.0000
  C   C9        1.0  0.39531  0.53122  0.4094500000000001  1.0000
  C   C10       1.0  0.10384000000000003  0.46729  0.40914  1.0000
  C   C11       1.0  0.10286  0.03232000000000001  0.08853000000000003  1.0000
  C   C12       1.0  0.39661  0.9672900000000001  0.0887  1.0000
  C   C13       1.0  0.60282  0.4657900000000001  0.58859  1.0000
  C   C14       1.0  0.8962500000000001  0.53095  0.58833  1.0000
  C   C15       1.0  0.89607  0.9663300000000002  0.90871  1.0000
  C   C16       1.0  0.60442  0.027390000000000008  0.90955  1.0000
  C   C17       1.0  0.4004000000000001  0.7126400000000002  0.4548  1.0000
  C   C18       1.0  0.09884  0.2856  0.45442  1.0000
  C   C19       1.0  0.09800000000000003  0.21392  0.04327  1.0000
  C   C20       1.0  0.40146000000000004  0.7851500000000002  0.043810000000000016  1.0000
  C   C21       1.0  0.5975700000000002  0.28415  0.54335  1.0000
  C   C22       1.0  0.9016700000000001  0.7133  0.54355  1.0000
  C   C23       1.0  0.9007700000000001  0.7853800000000002  0.9543900000000002  1.0000
  C   C24       1.0  0.59982  0.20939  0.9546  1.0000
  C   C25       1.0  0.45218  0.7411800000000001  0.5096100000000002  1.0000
  C   C26       1.0  0.04727000000000001  0.25726000000000004  0.50966  1.0000
  C   C27       1.0  0.046450000000000005  0.24236000000000005  0.98824  1.0000
  C   C28       1.0  0.45311  0.7558300000000002  0.9889600000000001  1.0000
  C   C29       1.0  0.5459100000000001  0.25628  0.48833  1.0000
  C   C30       1.0  0.95358  0.7423800000000003  0.4889300000000001  1.0000
  C   C31       1.0  0.95209  0.7576700000000002  0.00983  1.0000
  C   C32       1.0  0.54818  0.23927000000000004  0.0095  1.0000
  C   C33       1.0  0.49655000000000005  0.40705  0.47613  1.0000
  C   C34       1.0  0.0028900000000000006  0.5916300000000001  0.4764400000000001  1.0000
  C   C35       1.0  0.0016400000000000004  0.9082500000000002  0.02194  1.0000
  C   C36       1.0  0.49829000000000007  0.08971000000000003  0.022060000000000007  1.0000
  C   C37       1.0  0.5016700000000001  0.59069  0.5218  1.0000
  C   C38       1.0  0.9978300000000001  0.40777  0.52206  1.0000
  C   C39       1.0  0.9969600000000001  0.09161  0.9759400000000003  1.0000
  C   C40       1.0  0.50288  0.90569  0.9765800000000002  1.0000
  C   C41       1.0  0.4426500000000001  0.38134  0.42007  1.0000
  C   C42       1.0  0.05659000000000001  0.6173200000000002  0.42004  1.0000
  C   C43       1.0  0.055400000000000005  0.8824300000000003  0.07812  1.0000
  C   C44       1.0  0.44433  0.11659  0.07804  1.0000
  C   C45       1.0  0.5556400000000001  0.61612  0.57784  1.0000
  C   C46       1.0  0.9437700000000001  0.38141  0.57796  1.0000
  C   C47       1.0  0.94338  0.11677  0.91942  1.0000
  C   C48       1.0  0.5566500000000001  0.87856  0.92044  1.0000
  O   O1        1.0  0.3084  0.66769  0.32967  1.0000
  O   O2        1.0  0.19172000000000006  0.33305  0.3302  1.0000
  O   O3        1.0  0.18947  0.16998000000000005  0.16804000000000005  1.0000
  O   O4        1.0  0.30927  0.8301400000000002  0.16740000000000005  1.0000
  O   O5        1.0  0.68818  0.3268700000000001  0.66991  1.0000
  O   O6        1.0  0.80826  0.66661  0.66638  1.0000
  O   O7        1.0  0.8087900000000001  0.8289600000000003  0.82937  1.0000
  O   O8        1.0  0.69123  0.1634  0.8297000000000002  1.0000
  O   O9        1.0  0.32686  0.33219000000000004  0.32174000000000014  1.0000
  O   O10       1.0  0.1719  0.66773  0.32158  1.0000
  O   O11       1.0  0.1723  0.83271  0.1744  1.0000
  O   O12       1.0  0.32646  0.16719000000000003  0.17423  1.0000
  O   O13       1.0  0.67313  0.6650000000000001  0.67424  1.0000
  O   O14       1.0  0.8260000000000001  0.33077  0.67375  1.0000
  O   O15       1.0  0.82775  0.16465  0.82123  1.0000
  O   O16       1.0  0.6730800000000001  0.82768  0.8220700000000002  1.0000
  O   O17       1.0  0.24925  0.49997000000000014  0.19919  1.0000
  O   O18       1.0  0.24919  0.9998100000000001  0.29734  1.0000
  O   O19       1.0  0.7507  0.4964200000000001  0.79729  1.0000
  O   O20       1.0  0.7505900000000001  0.99793  0.6989100000000003  1.0000
