data_image0
_chemical_formula_structural       V32Ni4H64C80N16O52
_chemical_formula_sum              "V32 Ni4 H64 C80 N16 O52"
_cell_length_a       16.97383114
_cell_length_b       16.97346874
_cell_length_c       14.82051836
_cell_angle_alpha    90.00034998
_cell_angle_beta     89.99917995
_cell_angle_gamma    89.99846451

_symmetry_space_group_name_H-M    'P 1'
_symmetry_Int_Tables_number       1

loop_
  _symmetry_equiv_pos_as_xyz
  'x,y,z'

loop_
  _atom_site_type_symbol
  _atom_site_label
  _atom_site_symmetry_multiplicity
  _atom_site_fract_x
  _atom_site_fract_y
  _atom_site_fract_z
  _atom_site_occupancy
  V   V1        1.0  0.37683378  0.3848424  0.6319042  1.0000
  V   V2        1.0  0.65194154  0.45338606  0.58114096  1.0000
  V   V3        1.0  0.53712382  0.34808642  0.57992527  1.0000
  V   V4        1.0  0.5568778000000001  0.44086864  0.72819786  1.0000
  V   V5        1.0  0.62313471  0.61519727  0.63189291  1.0000
  V   V6        1.0  0.34804233  0.54665353  0.58115191  1.0000
  V   V7        1.0  0.4628591000000001  0.65197011  0.57993406  1.0000
  V   V8        1.0  0.44307938  0.5592023  0.72818357  1.0000
  V   V9        1.0  0.38481392  0.62318421  0.36813601000000007  1.0000
  V   V10       1.0  0.45337358  0.34806199999999987  0.41888994  1.0000
  V   V11       1.0  0.34806518  0.46289643  0.42011286  1.0000
  V   V12       1.0  0.44083420000000006  0.44311779  0.27185975  1.0000
  V   V13       1.0  0.61517708  0.37685117  0.3681239  1.0000
  V   V14       1.0  0.54661068  0.65198201  0.41889976  1.0000
  V   V15       1.0  0.6519092600000003  0.53714206  0.42011836000000014  1.0000
  V   V16       1.0  0.55914828  0.55692601  0.27186711  1.0000
  V   V17       1.0  0.87686213  0.11515749  0.13189048  1.0000
  V   V18       1.0  0.15196545000000006  0.0465917  0.08109625  1.0000
  V   V19       1.0  0.03713287  0.15190273  0.07988015  1.0000
  V   V20       1.0  0.05691197  0.059132210000000004  0.22812285  1.0000
  V   V21       1.0  0.12314836  0.88480903  0.13186969  1.0000
  V   V22       1.0  0.84807233  0.9533639100000001  0.08110169000000002  1.0000
  V   V23       1.0  0.9628893  0.84804393  0.07988353  1.0000
  V   V24       1.0  0.9431095599999999  0.94081468  0.22812490000000002  1.0000
  V   V25       1.0  0.88485209  0.87684051  0.86809882  1.0000
  V   V26       1.0  0.95338806  0.15193597999999997  0.91886382  1.0000
  V   V27       1.0  0.84807767  0.03711639  0.92007977  1.0000
  V   V28       1.0  0.94084997  0.05687938999999999  0.7718374200000002  1.0000
  V   V29       1.0  0.11517636  0.12311215  0.86809068  1.0000
  V   V30       1.0  0.04663124  0.84802116  0.91886611  1.0000
  V   V31       1.0  0.15193965000000006  0.9628422499999999  0.92007729  1.0000
  V   V32       1.0  0.05916854  0.9430707400000001  0.77183042  1.0000
  Ni  Ni1       1.0  0.24637102  0.2536206  0.7500037000000002  1.0000
  Ni  Ni2       1.0  0.7536255100000002  0.7463732  0.7500028800000001  1.0000
  Ni  Ni3       1.0  0.25362739  0.75363252  0.24999655  1.0000
  Ni  Ni4       1.0  0.74636939  0.24637368  0.24999817  1.0000
  H   H1        1.0  0.06759453000000001  0.25736634  0.75497401  1.0000
  H   H2        1.0  0.9556943200000001  0.26199592  0.64850072  1.0000
  H   H3        1.0  0.22680411  0.3206225  0.55617341  1.0000
  H   H4        1.0  0.76722872  0.32299384  0.43992109  1.0000
  H   H5        1.0  0.8715626100000002  0.33269301  0.55565074  1.0000
  H   H6        1.0  0.92492466  0.24264826999999997  0.24748808000000005  1.0000
  H   H7        1.0  0.03665287  0.25127367  0.3533304100000001  1.0000
  H   H8        1.0  0.12251063000000001  0.32542772  0.43971105  1.0000
  H   H9        1.0  0.9324075400000003  0.74262002  0.75498222  1.0000
  H   H10       1.0  0.04430978000000001  0.73800427  0.6485122100000003  1.0000
  H   H11       1.0  0.7732031700000002  0.67937469  0.55617635  1.0000
  H   H12       1.0  0.23277634000000005  0.6770208499999999  0.43991445  1.0000
  H   H13       1.0  0.1284474  0.6673213899999999  0.5556493  1.0000
  H   H14       1.0  0.07507793  0.75735238  0.24748647  1.0000
  H   H15       1.0  0.96335204  0.7487297  0.35333246  1.0000
  H   H16       1.0  0.87749934  0.67458095  0.43971243  1.0000
  H   H17       1.0  0.25736482  0.93241292  0.24502796  1.0000
  H   H18       1.0  0.26201337  0.04431171  0.35150831000000005  1.0000
  H   H19       1.0  0.32063598  0.7731882  0.44381425  1.0000
  H   H20       1.0  0.32299986  0.23276642  0.56010501  1.0000
  H   H21       1.0  0.3327129  0.12843844  0.44436373  1.0000
  H   H22       1.0  0.24266246  0.07506072  0.7525208400000002  1.0000
  H   H23       1.0  0.25129015  0.9633351799999998  0.64667321  1.0000
  H   H24       1.0  0.32544968  0.87748156  0.56027797  1.0000
  H   H25       1.0  0.74262664  0.06757733  0.24503413  1.0000
  H   H26       1.0  0.73798382  0.95567953  0.35151503  1.0000
  H   H27       1.0  0.67936312  0.22680325  0.44382769  1.0000
  H   H28       1.0  0.67699933  0.76722094  0.56010807  1.0000
  H   H29       1.0  0.66728207  0.87154983  0.44436957  1.0000
  H   H30       1.0  0.75734583  0.92492246  0.75252275  1.0000
  H   H31       1.0  0.74871097  0.03665111  0.64667679  1.0000
  H   H32       1.0  0.6745514100000002  0.12250739999999999  0.56029016  1.0000
  H   H33       1.0  0.56758178  0.24262293  0.25496154  1.0000
  H   H34       1.0  0.45568295  0.23796487999999996  0.14848569  1.0000
  H   H35       1.0  0.72680624  0.17937092  0.0561603  1.0000
  H   H36       1.0  0.26722504  0.17700105  0.93990627  1.0000
  H   H37       1.0  0.3715619900000001  0.16727152  0.05563166  1.0000
  H   H38       1.0  0.42492078  0.25733694  0.74747845  1.0000
  H   H39       1.0  0.53665203  0.24869392999999998  0.8533139  1.0000
  H   H40       1.0  0.62250573  0.17454142  0.9397049300000001  1.0000
  H   H41       1.0  0.4324062  0.75738253  0.25496905  1.0000
  H   H42       1.0  0.54430845  0.76202692  0.14849684000000005  1.0000
  H   H43       1.0  0.27319248  0.82063579  0.05616686  1.0000
  H   H44       1.0  0.73277244  0.82298555  0.93990803  1.0000
  H   H45       1.0  0.62843647  0.83270971  0.05563954  1.0000
  H   H46       1.0  0.57507336  0.74267219  0.74747817  1.0000
  H   H47       1.0  0.46334235000000007  0.75130456  0.85331587  1.0000
  H   H48       1.0  0.37749275  0.82545263  0.93971101  1.0000
  H   H49       1.0  0.75736311  0.5675987  0.74502321  1.0000
  H   H50       1.0  0.76201537  0.4556929099999999  0.8514930600000002  1.0000
  H   H51       1.0  0.8206261000000002  0.72681224  0.94381836  1.0000
  H   H52       1.0  0.82298127  0.26722702  0.06008318  1.0000
  H   H53       1.0  0.8327101  0.37156431  0.94435531  1.0000
  H   H54       1.0  0.7426418800000001  0.42493713  0.25250737  1.0000
  H   H55       1.0  0.7512934  0.5366663499999998  0.14666445  1.0000
  H   H56       1.0  0.82545512  0.6225125  0.06027718  1.0000
  H   H57       1.0  0.24262002  0.43241065  0.74502437  1.0000
  H   H58       1.0  0.23798141  0.54431524  0.85149314  1.0000
  H   H59       1.0  0.17937614  0.27319798  0.94382901  1.0000
  H   H60       1.0  0.17702478  0.73278878  0.060084090000000014  1.0000
  H   H61       1.0  0.16729764000000003  0.62845169  0.94435926  1.0000
  H   H62       1.0  0.2573624400000001  0.57508217  0.25250832  1.0000
  H   H63       1.0  0.24871129  0.46335221  0.14666731  1.0000
  H   H64       1.0  0.17455396  0.37750072  0.06028622  1.0000
  C   C1        1.0  0.07729603000000002  0.27296855  0.68468472  1.0000
  C   C2        1.0  0.01468333  0.27591876  0.62429662  1.0000
  C   C3        1.0  0.02873834  0.29273858  0.53295139  1.0000
  C   C4        1.0  0.16619083  0.30596649  0.57335604  1.0000
  C   C5        1.0  0.82732943  0.30540632  0.4240807900000001  1.0000
  C   C6        1.0  0.8866186100000002  0.31143978  0.48842503  1.0000
  C   C7        1.0  0.96448015  0.29132768  0.46588853  1.0000
  C   C8        1.0  0.91539134  0.26300152  0.31614434000000013  1.0000
  C   C9        1.0  0.97803574  0.2682179  0.37626628  1.0000
  C   C10       1.0  0.10704824  0.30923978  0.50864041  1.0000
  C   C11       1.0  0.92270505  0.72702417  0.6846915000000002  1.0000
  C   C12       1.0  0.9853211299999999  0.72408218  0.62430391  1.0000
  C   C13       1.0  0.97126815  0.70726881  0.53295566  1.0000
  C   C14       1.0  0.83381296  0.69403221  0.57336101  1.0000
  C   C15       1.0  0.17267498  0.69460696  0.42407927  1.0000
  C   C16       1.0  0.11338675  0.6885743499999998  0.4884265500000001  1.0000
  C   C17       1.0  0.03552494  0.70868363  0.46589168  1.0000
  C   C18       1.0  0.08461073  0.73700374  0.31614303  1.0000
  C   C19       1.0  0.021967100000000007  0.73178954  0.3762690300000001  1.0000
  C   C20       1.0  0.89295816  0.69076652  0.50864518  1.0000
  C   C21       1.0  0.27297235  0.92271165  0.31531824  1.0000
  C   C22       1.0  0.2759302  0.98532249  0.37571045  1.0000
  C   C23       1.0  0.29275437  0.9712579600000001  0.46705048  1.0000
  C   C24       1.0  0.30597665  0.83380738  0.4266409  1.0000
  C   C25       1.0  0.30541513  0.17266683  0.57593964  1.0000
  C   C26       1.0  0.31145451  0.11338029  0.51159189  1.0000
  C   C27       1.0  0.29134354  0.03551178  0.53411788  1.0000
  C   C28       1.0  0.26301293  0.08459982  0.68386794  1.0000
  C   C29       1.0  0.26823255000000007  0.02195559  0.62374326  1.0000
  C   C30       1.0  0.30925548  0.89294883  0.49135838  1.0000
  C   C31       1.0  0.72702092  0.07728388  0.31532337  1.0000
  C   C32       1.0  0.7240648500000001  0.0146705  0.37571624  1.0000
  C   C33       1.0  0.70724193  0.02873249  0.46705929  1.0000
  C   C34       1.0  0.69402011  0.16618633  0.42664824  1.0000
  C   C35       1.0  0.69458491  0.82732043  0.5759421  1.0000
  C   C36       1.0  0.68854295  0.88660968  0.51159555  1.0000
  C   C37       1.0  0.70865465  0.9644738500000001  0.5341258  1.0000
  C   C38       1.0  0.73698963  0.91538622  0.68386782  1.0000
  C   C39       1.0  0.73176691  0.9780326399999999  0.62374497  1.0000
  C   C40       1.0  0.69074234  0.1070424  0.49136629  1.0000
  C   C41       1.0  0.5772879700000002  0.22701598999999995  0.18466839  1.0000
  C   C42       1.0  0.51467031  0.22405275  0.12428043  1.0000
  C   C43       1.0  0.52873279  0.2072318  0.0329428  1.0000
  C   C44       1.0  0.66618962  0.19402179  0.07334186  1.0000
  C   C45       1.0  0.32732154  0.1945824  0.9240676100000003  1.0000
  C   C46       1.0  0.38661383  0.18853563  0.98840191  1.0000
  C   C47       1.0  0.46448125  0.2086443  0.9658697  1.0000
  C   C48       1.0  0.41538492  0.2369805  0.81613461  1.0000
  C   C49       1.0  0.47803727000000007  0.23175389  0.87624949  1.0000
  C   C50       1.0  0.60704535  0.19073603  0.00863413  1.0000
  C   C51       1.0  0.42270506  0.77298574  0.18467511  1.0000
  C   C52       1.0  0.48532437  0.77594062  0.12428839  1.0000
  C   C53       1.0  0.4712627500000001  0.79275856  0.0329489  1.0000
  C   C54       1.0  0.33380516  0.80597968  0.07334595  1.0000
  C   C55       1.0  0.6726735500000002  0.80540712  0.92406938  1.0000
  C   C56       1.0  0.61338356  0.81144973  0.98840728  1.0000
  C   C57       1.0  0.5355152  0.79134296  0.9658765400000002  1.0000
  C   C58       1.0  0.58461178  0.76301979  0.81613473  1.0000
  C   C59       1.0  0.52196029  0.76824066  0.87625315  1.0000
  C   C60       1.0  0.39295192  0.80925761  0.008637610000000004  1.0000
  C   C61       1.0  0.77297346  0.57730038  0.8153154200000001  1.0000
  C   C62       1.0  0.77593356  0.51467854  0.87570066  1.0000
  C   C63       1.0  0.79275603  0.52873955  0.96703583  1.0000
  C   C64       1.0  0.80597314  0.66620045  0.9266391900000001  1.0000
  C   C65       1.0  0.80540192  0.32732877  0.07592013  1.0000
  C   C66       1.0  0.81144844  0.38661865  0.01158438  1.0000
  C   C67       1.0  0.79134027  0.46448928  0.0341133  1.0000
  C   C68       1.0  0.76299899  0.41539902  0.18385047  1.0000
  C   C69       1.0  0.7682293  0.47804883  0.12373099  1.0000
  C   C70       1.0  0.80925606  0.60705342  0.99134609  1.0000
  C   C71       1.0  0.22701739  0.4227058599999999  0.81531764  1.0000
  C   C72       1.0  0.22406419  0.48532835999999996  0.8757011600000001  1.0000
  C   C73       1.0  0.20724740000000003  0.47127464  0.96704444  1.0000
  C   C74       1.0  0.194027  0.33380806999999996  0.9266449900000002  1.0000
  C   C75       1.0  0.19460345  0.67268628  0.07591846  1.0000
  C   C76       1.0  0.18855841  0.61339334  0.01158359  1.0000
  C   C77       1.0  0.20866569  0.53552648  0.03411639  1.0000
  C   C78       1.0  0.23700285  0.58461655  0.18384834000000005  1.0000
  C   C79       1.0  0.23177481  0.52196465  0.12372924  1.0000
  C   C80       1.0  0.19074879000000006  0.39295695999999997  0.99134976  1.0000
  N   N1        1.0  0.15250205  0.28594418  0.65995877  1.0000
  N   N2        1.0  0.27944672  0.15946448  0.66055499  1.0000
  N   N3        1.0  0.8475013400000002  0.71404747  0.65996243  1.0000
  N   N4        1.0  0.72055652  0.8405187099999999  0.66055776  1.0000
  N   N5        1.0  0.28594727000000003  0.8474982  0.34003767  1.0000
  N   N6        1.0  0.159478  0.72056766  0.3394548000000001  1.0000
  N   N7        1.0  0.71404565  0.15249364  0.3400475  1.0000
  N   N8        1.0  0.84052427  0.27944072  0.3394586  1.0000
  N   N9        1.0  0.6525002200000002  0.21405011  0.15994585  1.0000
  N   N10       1.0  0.77942959  0.34052831  0.16053894  1.0000
  N   N11       1.0  0.34749453  0.7859541199999999  0.15994993  1.0000
  N   N12       1.0  0.22057332  0.6594882899999999  0.16053852  1.0000
  N   N13       1.0  0.78594199  0.65251187  0.84003844  1.0000
  N   N14       1.0  0.65947793  0.77944368  0.8394496800000002  1.0000
  N   N15       1.0  0.21404932  0.3474997  0.84004812  1.0000
  N   N16       1.0  0.34052004  0.22055344999999998  0.83945269  1.0000
  O   O1        1.0  0.47824421  0.36915320999999995  0.68865968  1.0000
  O   O2        1.0  0.62808472  0.36379984  0.65187777  1.0000
  O   O3        1.0  0.3647635700000001  0.48644141  0.69017559  1.0000
  O   O4        1.0  0.31741153  0.4383336  0.53863421  1.0000
  O   O5        1.0  0.42701012  0.32247002  0.53806532  1.0000
  O   O6        1.0  0.31554042  0.32438289  0.6853221  1.0000
  O   O7        1.0  0.5217416  0.63090176  0.68865812  1.0000
  O   O8        1.0  0.37188309  0.63627269  0.65187642  1.0000
  O   O9        1.0  0.63520372  0.51360152  0.6901544  1.0000
  O   O10       1.0  0.6825537  0.56170277  0.5386264  1.0000
  O   O11       1.0  0.57296882  0.67757777  0.53806744  1.0000
  O   O12       1.0  0.68444483  0.67562908  0.68531528  1.0000
  O   O13       1.0  0.36913304  0.52177875  0.31137443  1.0000
  O   O14       1.0  0.36375661  0.37192748  0.34815831  1.0000
  O   O15       1.0  0.48641415999999993  0.63525908  0.30987837  1.0000
  O   O16       1.0  0.43830135  0.68260802  0.46140851  1.0000
  O   O17       1.0  0.32244972  0.5730175  0.46196392  1.0000
  O   O18       1.0  0.32436773  0.68446783  0.31469553  1.0000
  O   O19       1.0  0.63084759  0.47826819  0.31138216  1.0000
  O   O20       1.0  0.6362212800000001  0.6281087899999999  0.34817082  1.0000
  O   O21       1.0  0.51357999  0.36478554  0.30986021  1.0000
  O   O22       1.0  0.56168842  0.31744243  0.46140023  1.0000
  O   O23       1.0  0.6775370100000001  0.4270356799999999  0.46196291  1.0000
  O   O24       1.0  0.67562336  0.31555932  0.31469047000000006  1.0000
  O   O25       1.0  0.9782433500000001  0.13082788  0.18861585  1.0000
  O   O26       1.0  0.12809385  0.13619904  0.15184871  1.0000
  O   O27       1.0  0.86479274  0.01357669  0.19012996  1.0000
  O   O28       1.0  0.8174550700000002  0.061682329999999994  0.03861397  1.0000
  O   O29       1.0  0.9270204100000002  0.17751098  0.038051460000000016  1.0000
  O   O30       1.0  0.81556366  0.17560924  0.18530758  1.0000
  O   O31       1.0  0.02177478  0.86911859  0.18860914  1.0000
  O   O32       1.0  0.87192788  0.86374458  0.15184544  1.0000
  O   O33       1.0  0.13522753  0.9863724500000001  0.19011552  1.0000
  O   O34       1.0  0.182569  0.93826624  0.03860073  1.0000
  O   O35       1.0  0.07299316  0.82244137  0.03804582  1.0000
  O   O36       1.0  0.18444192  0.82437225  0.18529938  1.0000
  O   O37       1.0  0.86916001  0.9782131399999999  0.81135712  1.0000
  O   O38       1.0  0.86379393  0.12807598  0.84810952  1.0000
  O   O39       1.0  0.98641627  0.86475707  0.8098562100000002  1.0000
  O   O40       1.0  0.9383248200000002  0.81741582  0.96136681  1.0000
  O   O41       1.0  0.8224904000000001  0.92699391  0.96192286  1.0000
  O   O42       1.0  0.82439579  0.8155492  0.81468936  1.0000
  O   O43       1.0  0.13085586  0.02173305  0.81135077  1.0000
  O   O44       1.0  0.13622873  0.87187212  0.8481189000000002  1.0000
  O   O45       1.0  0.01360904  0.13518999  0.80984183  1.0000
  O   O46       1.0  0.061703799999999996  0.18253407  0.96135842  1.0000
  O   O47       1.0  0.17754552  0.07295232  0.9619173800000003  1.0000
  O   O48       1.0  0.17561645  0.18442413  0.8146849400000001  1.0000
  O   O49       1.0  0.49997911999999994  0.5000357799999999  0.80674428  1.0000
  O   O50       1.0  0.49998802  0.50003137  0.19330692  1.0000
  O   O51       1.0  1.9319999999999995e-05  0.9999669200000001  0.3066986000000001  1.0000
  O   O52       1.0  4.719999999999998e-06  0.99997039  0.6932646300000002  1.0000
