data_image0
_chemical_formula_structural       Al8H96C176O40
_chemical_formula_sum              "Al8 H96 C176 O40"
_cell_length_a       30.19223
_cell_length_b       13.166560000000002
_cell_length_c       15.864160000000002
_cell_angle_alpha    88.42686
_cell_angle_beta     90.07064
_cell_angle_gamma    91.02663

_space_group_name_H-M_alt    "P 1"
_space_group_IT_number       1

loop_
  _space_group_symop_operation_xyz
  'x, y, z'

loop_
  _atom_site_type_symbol
  _atom_site_label
  _atom_site_symmetry_multiplicity
  _atom_site_fract_x
  _atom_site_fract_y
  _atom_site_fract_z
  _atom_site_occupancy
  Al  Al1       1.0  0.25078  0.13198  0.0019299999999999996  1.0000
  Al  Al2       1.0  0.7493499999999997  0.36961  0.99729  1.0000
  Al  Al3       1.0  0.7507799999999997  0.12016  0.9994099999999999  1.0000
  Al  Al4       1.0  0.24994  0.38214000000000004  0.002829999999999999  1.0000
  Al  Al5       1.0  0.25038  0.63178  0.0014999999999999996  1.0000
  Al  Al6       1.0  0.74882  0.6197  0.00015999999999999996  1.0000
  Al  Al7       1.0  0.24898999999999993  0.88128  0.00012999999999999993  1.0000
  Al  Al8       1.0  0.7489899999999998  0.87008  0.002249999999999999  1.0000
  H   H1        1.0  0.04091999999999999  0.24593  0.2856299999999999  1.0000
  H   H2        1.0  0.15312999999999996  0.2535  0.50002  1.0000
  H   H3        1.0  0.69565  0.23926  0.031189999999999992  1.0000
  H   H4        1.0  0.9595399999999997  0.24563  0.2855899999999999  1.0000
  H   H5        1.0  0.84767  0.25171  0.49986999999999987  1.0000
  H   H6        1.0  0.9599299999999997  0.26102  0.7143299999999998  1.0000
  H   H7        1.0  0.04124  0.26145  0.7143499999999998  1.0000
  H   H8        1.0  0.53939  0.99662  0.28532999999999986  1.0000
  H   H9        1.0  0.65214  0.99568  0.4989899999999999  1.0000
  H   H10       1.0  0.4580999999999999  0.99964  0.2860399999999999  1.0000
  H   H11       1.0  0.34686  0.00934  0.50135  1.0000
  H   H12       1.0  0.45966  0.01192  0.7149  1.0000
  H   H13       1.0  0.54093  0.00806  0.71426  1.0000
  H   H14       1.0  0.3981299999999999  0.15706999999999996  0.3018499999999999  1.0000
  H   H15       1.0  0.35141  0.15278  0.17141  1.0000
  H   H16       1.0  0.35108  0.35340999999999995  0.36993  1.0000
  H   H17       1.0  0.30636  0.35372  0.23690999999999995  1.0000
  H   H18       1.0  0.18795999999999993  0.09463  0.23444999999999994  1.0000
  H   H19       1.0  0.15136  0.4013  0.17281999999999995  1.0000
  H   H20       1.0  0.10454999999999998  0.40416  0.30292  1.0000
  H   H21       1.0  0.14317  0.09855  0.3669699999999999  1.0000
  H   H22       1.0  0.14808  0.10705  0.82867  1.0000
  H   H23       1.0  0.10201999999999997  0.1034  0.6979099999999998  1.0000
  H   H24       1.0  0.14603  0.40813000000000005  0.63285  1.0000
  H   H25       1.0  0.19035999999999995  0.41285  0.76586  1.0000
  H   H26       1.0  0.3515199999999999  0.35754  0.8320899999999998  1.0000
  H   H27       1.0  0.35586  0.16101  0.63155  1.0000
  H   H28       1.0  0.3117899999999999  0.16716  0.76459  1.0000
  H   H29       1.0  0.3970899999999999  0.35266999999999993  0.7011799999999998  1.0000
  H   H30       1.0  0.6867199999999998  0.3312  0.23194999999999993  1.0000
  H   H31       1.0  0.6486899999999998  0.14559  0.17014  1.0000
  H   H32       1.0  0.64258  0.33523  0.3650299999999999  1.0000
  H   H33       1.0  0.60219  0.14923000000000003  0.2998299999999999  1.0000
  H   H34       1.0  0.64938  0.14600000000000002  0.6297999999999998  1.0000
  H   H35       1.0  0.69397  0.14702999999999994  0.7628599999999998  1.0000
  H   H36       1.0  0.6526899999999998  0.34343  0.8224099999999998  1.0000
  H   H37       1.0  0.60606  0.33761  0.69177  1.0000
  H   H38       1.0  0.85383  0.10224  0.8292399999999998  1.0000
  H   H39       1.0  0.90024  0.103  0.6990299999999998  1.0000
  H   H40       1.0  0.8086299999999998  0.40135  0.7632699999999998  1.0000
  H   H41       1.0  0.85327  0.40072  0.63046  1.0000
  H   H42       1.0  0.8519  0.3992  0.17179999999999995  1.0000
  H   H43       1.0  0.8097299999999997  0.09361000000000001  0.23540999999999995  1.0000
  H   H44       1.0  0.8544399999999998  0.09869  0.3682199999999999  1.0000
  H   H45       1.0  0.8985899999999998  0.40291999999999994  0.3017499999999999  1.0000
  H   H46       1.0  0.30441  0.7586199999999999  0.034  1.0000
  H   H47       1.0  0.03880999999999999  0.73808  0.28622  1.0000
  H   H48       1.0  0.15170999999999996  0.74911  0.4990199999999999  1.0000
  H   H49       1.0  0.9574299999999998  0.73664  0.28713  1.0000
  H   H50       1.0  0.84622  0.7446  0.50279  1.0000
  H   H51       1.0  0.9591399999999998  0.75286  0.7158199999999998  1.0000
  H   H52       1.0  0.04045999999999999  0.75364  0.7149599999999998  1.0000
  H   H53       1.0  0.8036599999999998  0.49401  0.03458999999999999  1.0000
  H   H54       1.0  0.53858  0.48398  0.2846799999999999  1.0000
  H   H55       1.0  0.6524799999999998  0.48733  0.49614999999999987  1.0000
  H   H56       1.0  0.4573199999999999  0.49003  0.2868099999999999  1.0000
  H   H57       1.0  0.3474  0.50746  0.50387  1.0000
  H   H58       1.0  0.4611699999999999  0.50393  0.71557  1.0000
  H   H59       1.0  0.54248  0.49902  0.71337  1.0000
  H   H60       1.0  0.39981  0.65491  0.30636999999999986  1.0000
  H   H61       1.0  0.35306  0.6567699999999999  0.17619999999999994  1.0000
  H   H62       1.0  0.3526699999999999  0.85445  0.3704599999999999  1.0000
  H   H63       1.0  0.3079199999999999  0.84889  0.23787  1.0000
  H   H64       1.0  0.18813999999999995  0.59577  0.23376  1.0000
  H   H65       1.0  0.14709  0.89906  0.17166999999999993  1.0000
  H   H66       1.0  0.10040999999999997  0.89874  0.30204  1.0000
  H   H67       1.0  0.14364  0.59682  0.36670999999999987  1.0000
  H   H68       1.0  0.14689999999999995  0.60311  0.8297599999999998  1.0000
  H   H69       1.0  0.10023999999999997  0.59858  0.6999699999999998  1.0000
  H   H70       1.0  0.14697  0.89943  0.6288299999999998  1.0000
  H   H71       1.0  0.19188  0.9054  0.7611099999999997  1.0000
  H   H72       1.0  0.35057  0.86337  0.8313399999999997  1.0000
  H   H73       1.0  0.3585299999999999  0.6578799999999999  0.6355699999999997  1.0000
  H   H74       1.0  0.3146899999999999  0.66371  0.7690999999999998  1.0000
  H   H75       1.0  0.39688  0.8586  0.7007099999999999  1.0000
  H   H76       1.0  0.68804  0.8418400000000001  0.2359  1.0000
  H   H77       1.0  0.64797  0.63587  0.16829  1.0000
  H   H78       1.0  0.64333  0.84673  0.36836999999999986  1.0000
  H   H79       1.0  0.6018199999999998  0.6387799999999999  0.2992999999999999  1.0000
  H   H80       1.0  0.64302  0.64832  0.6315999999999998  1.0000
  H   H81       1.0  0.6878599999999998  0.65483  0.76414  1.0000
  H   H82       1.0  0.6444599999999998  0.84783  0.8288699999999998  1.0000
  H   H83       1.0  0.5978999999999999  0.84837  0.6985899999999998  1.0000
  H   H84       1.0  0.8494699999999997  0.59993  0.8318599999999998  1.0000
  H   H85       1.0  0.8954999999999997  0.5951899999999999  0.70093  1.0000
  H   H86       1.0  0.81244  0.90567  0.7676399999999998  1.0000
  H   H87       1.0  0.8565799999999998  0.89998  0.63472  1.0000
  H   H88       1.0  0.85022  0.8912099999999998  0.17368  1.0000
  H   H89       1.0  0.8067499999999997  0.58693  0.23890999999999996  1.0000
  H   H90       1.0  0.8517299999999998  0.59136  0.3711699999999999  1.0000
  H   H91       1.0  0.89742  0.89413  0.3035  1.0000
  H   H92       1.0  0.30503999999999987  0.26316  0.9696199999999998  1.0000
  H   H93       1.0  0.80408  0.99664  0.96527  1.0000
  H   H94       1.0  0.19395  0.00845000000000001  0.9697099999999997  1.0000
  H   H95       1.0  0.69411  0.7461  0.9658999999999998  1.0000
  H   H96       1.0  0.19645999999999997  0.50748  0.9632399999999998  1.0000
  C   C1        1.0  0.19991  0.24642  0.11844999999999997  1.0000
  C   C2        1.0  0.022919999999999992  0.24946  0.34475  1.0000
  C   C3        1.0  0.024099999999999993  0.25348  0.49997  1.0000
  C   C4        1.0  0.09466  0.25328  0.4228099999999999  1.0000
  C   C5        1.0  0.04772  0.25311  0.4216799999999999  1.0000
  C   C6        1.0  0.11709  0.25353  0.5000499999999998  1.0000
  C   C7        1.0  0.16981999999999994  0.16209000000000004  0.2505199999999999  1.0000
  C   C8        1.0  0.14478999999999995  0.16458  0.32418999999999987  1.0000
  C   C9        1.0  0.12290999999999998  0.33656  0.28803  1.0000
  C   C10       1.0  0.14875999999999995  0.33519  0.21534  1.0000
  C   C11       1.0  0.8007699999999999  0.24208000000000002  0.11745  1.0000
  C   C12       1.0  0.97765  0.24936000000000005  0.3447199999999999  1.0000
  C   C13       1.0  0.9767  0.25327  0.4999399999999999  1.0000
  C   C14       1.0  0.90605  0.25289  0.4226699999999999  1.0000
  C   C15       1.0  0.9529899999999998  0.25289  0.4216099999999999  1.0000
  C   C16       1.0  0.8837199999999997  0.25237000000000004  0.4998799999999999  1.0000
  C   C17       1.0  0.8011  0.25242  0.8818999999999998  1.0000
  C   C18       1.0  0.9778899999999998  0.25728  0.6551799999999998  1.0000
  C   C19       1.0  0.9061399999999997  0.25218  0.5771299999999998  1.0000
  C   C20       1.0  0.9530899999999998  0.2532  0.57827  1.0000
  C   C21       1.0  0.8286399999999999  0.25202  0.8042199999999998  1.0000
  C   C22       1.0  0.8798499999999998  0.25201  0.6561199999999998  1.0000
  C   C23       1.0  0.8281699999999997  0.24594  0.19559999999999994  1.0000
  C   C24       1.0  0.82899  0.16111000000000003  0.2511099999999999  1.0000
  C   C25       1.0  0.8540099999999998  0.16422  0.32489  1.0000
  C   C26       1.0  0.8796199999999997  0.25096  0.34366  1.0000
  C   C27       1.0  0.8789899999999998  0.33537  0.28741  1.0000
  C   C28       1.0  0.85304  0.33341000000000004  0.21466999999999994  1.0000
  C   C29       1.0  0.19913999999999998  0.26316  0.88378  1.0000
  C   C30       1.0  0.023149999999999993  0.25757  0.6552  1.0000
  C   C31       1.0  0.09474  0.25367  0.5772699999999997  1.0000
  C   C32       1.0  0.047809999999999984  0.25387  0.5783  1.0000
  C   C33       1.0  0.17177  0.26043  0.8055899999999998  1.0000
  C   C34       1.0  0.17107  0.3453800000000001  0.7501799999999997  1.0000
  C   C35       1.0  0.14633999999999994  0.34242  0.676  1.0000
  C   C36       1.0  0.12097  0.25556  0.6565599999999998  1.0000
  C   C37       1.0  0.12147  0.17102  0.71273  1.0000
  C   C38       1.0  0.14703999999999995  0.17295  0.7859099999999998  1.0000
  C   C39       1.0  0.17214  0.24768  0.19588999999999995  1.0000
  C   C40       1.0  0.12086999999999998  0.25153  0.3436499999999999  1.0000
  C   C41       1.0  0.82855  0.33631  0.7480899999999998  1.0000
  C   C42       1.0  0.8534899999999997  0.3356300000000001  0.6742699999999998  1.0000
  C   C43       1.0  0.8800999999999998  0.16818000000000002  0.7130399999999998  1.0000
  C   C44       1.0  0.85431  0.16762  0.7858299999999998  1.0000
  C   C45       1.0  0.6989  0.99032  0.11775999999999998  1.0000
  C   C46       1.0  0.52161  0.00046000000000000435  0.3446799999999999  1.0000
  C   C47       1.0  0.52322  0.002860000000000004  0.4999499999999999  1.0000
  C   C48       1.0  0.59356  0.00021000000000000023  0.42209  1.0000
  C   C49       1.0  0.54663  0.0023500000000000044  0.4213999999999999  1.0000
  C   C50       1.0  0.61612  0.99782  0.4992099999999999  1.0000
  C   C51       1.0  0.6710599999999999  0.99325  0.19502999999999995  1.0000
  C   C52       1.0  0.6680999999999998  0.39814  0.24745999999999996  1.0000
  C   C53       1.0  0.64349  0.4007  0.3216  1.0000
  C   C54       1.0  0.61911  0.48708  0.3407399999999999  1.0000
  C   C55       1.0  0.6210699999999998  0.08202000000000001  0.28599  1.0000
  C   C56       1.0  0.6469499999999998  0.0801  0.21336  1.0000
  C   C57       1.0  0.29994  0.99751  0.11856999999999997  1.0000
  C   C58       1.0  0.4763599999999999  0.0021000000000000025  0.3450699999999999  1.0000
  C   C59       1.0  0.47582999999999986  0.004919999999999998  0.50034  1.0000
  C   C60       1.0  0.40501999999999994  0.007650000000000006  0.4236799999999999  1.0000
  C   C61       1.0  0.4519399999999999  0.006050000000000001  0.4222  1.0000
  C   C62       1.0  0.38289  0.00824000000000001  0.5010799999999997  1.0000
  C   C63       1.0  0.3785199999999999  0.00589  0.34473  1.0000
  C   C64       1.0  0.3016799999999999  0.01843000000000001  0.8842599999999998  1.0000
  C   C65       1.0  0.47743  0.007740000000000007  0.6555799999999998  1.0000
  C   C66       1.0  0.4054799999999999  0.007160000000000008  0.5781799999999998  1.0000
  C   C67       1.0  0.4524199999999999  0.005560000000000001  0.57887  1.0000
  C   C68       1.0  0.32736999999999994  0.000229999999999999  0.1965  1.0000
  C   C69       1.0  0.32659  0.41945  0.2533699999999999  1.0000
  C   C70       1.0  0.35159  0.41955  0.32722  1.0000
  C   C71       1.0  0.37832  0.08973  0.28782999999999986  1.0000
  C   C72       1.0  0.35253  0.08755  0.21493  1.0000
  C   C73       1.0  0.69926  0.9991  0.8820499999999998  1.0000
  C   C74       1.0  0.52268  0.0055700000000000055  0.6552199999999998  1.0000
  C   C75       1.0  0.594  0.99809  0.57665  1.0000
  C   C76       1.0  0.5470999999999998  0.0010900000000000072  0.5780999999999997  1.0000
  C   C77       1.0  0.67244  0.49983  0.8014199999999998  1.0000
  C   C78       1.0  0.67317  0.08178  0.74755  1.0000
  C   C79       1.0  0.6482099999999997  0.08095  0.6736599999999998  1.0000
  C   C80       1.0  0.62054  0.99731  0.6555199999999998  1.0000
  C   C81       1.0  0.62406  0.40689  0.7076699999999998  1.0000
  C   C82       1.0  0.64976  0.40992  0.7806299999999998  1.0000
  C   C83       1.0  0.3304299999999999  0.51101  0.80853  1.0000
  C   C84       1.0  0.3303699999999999  0.09991000000000001  0.7497699999999998  1.0000
  C   C85       1.0  0.35497  0.09620000000000001  0.6756499999999998  1.0000
  C   C86       1.0  0.37948  0.009659999999999998  0.65748  1.0000
  C   C87       1.0  0.37896  0.4206700000000001  0.7158999999999998  1.0000
  C   C88       1.0  0.35364  0.42325  0.7891499999999998  1.0000
  C   C89       1.0  0.19793  0.74683  0.11718999999999997  1.0000
  C   C90       1.0  0.02098  0.74156  0.34555  1.0000
  C   C91       1.0  0.022669999999999992  0.74556  0.50077  1.0000
  C   C92       1.0  0.09298  0.74775  0.4225599999999999  1.0000
  C   C93       1.0  0.04603  0.74593  0.4221399999999999  1.0000
  C   C94       1.0  0.11564999999999996  0.7480100000000001  0.49952999999999986  1.0000
  C   C95       1.0  0.16911  0.66187  0.24984999999999993  1.0000
  C   C96       1.0  0.14421  0.6627200000000001  0.32373  1.0000
  C   C97       1.0  0.11974999999999997  0.83258  0.28719  1.0000
  C   C98       1.0  0.14556  0.83294  0.21432999999999994  1.0000
  C   C99       1.0  0.7985599999999998  0.73631  0.12023999999999997  1.0000
  C   C100      1.0  0.9757099999999997  0.7407600000000001  0.34607  1.0000
  C   C101      1.0  0.97525  0.7449399999999999  0.5012999999999997  1.0000
  C   C102      1.0  0.90433  0.74447  0.4248599999999999  1.0000
  C   C103      1.0  0.9512799999999998  0.74439  0.4232399999999999  1.0000
  C   C104      1.0  0.88226  0.74456  0.5024  1.0000
  C   C105      1.0  0.8010899999999997  0.75574  0.8857499999999998  1.0000
  C   C106      1.0  0.9769399999999998  0.74922  0.6564899999999998  1.0000
  C   C107      1.0  0.90493  0.74487  0.5794099999999998  1.0000
  C   C108      1.0  0.95188  0.74523  0.5798899999999998  1.0000
  C   C109      1.0  0.8285799999999998  0.75334  0.8078699999999998  1.0000
  C   C110      1.0  0.87905  0.7473  0.65897  1.0000
  C   C111      1.0  0.8261199999999997  0.73852  0.19811999999999994  1.0000
  C   C112      1.0  0.82654  0.6539100000000001  0.25388  1.0000
  C   C113      1.0  0.8516599999999998  0.65667  0.3275899999999999  1.0000
  C   C114      1.0  0.87774  0.74283  0.34598  1.0000
  C   C115      1.0  0.87745  0.82704  0.28941  1.0000
  C   C116      1.0  0.8514099999999999  0.82558  0.21678999999999995  1.0000
  C   C117      1.0  0.19925999999999994  0.7591199999999999  0.8818699999999998  1.0000
  C   C118      1.0  0.02221  0.74963  0.65598  1.0000
  C   C119      1.0  0.09361  0.74686  0.57711  1.0000
  C   C120      1.0  0.04664999999999997  0.74615  0.57882  1.0000
  C   C121      1.0  0.17187  0.75504  0.8038799999999998  1.0000
  C   C122      1.0  0.17183999999999996  0.83854  0.7469099999999997  1.0000
  C   C123      1.0  0.14677999999999994  0.83489  0.6732  1.0000
  C   C124      1.0  0.12030999999999997  0.74899  0.6558099999999998  1.0000
  C   C125      1.0  0.12034999999999997  0.6657  0.7133099999999998  1.0000
  C   C126      1.0  0.14631  0.66812  0.7859899999999997  1.0000
  C   C127      1.0  0.17018  0.7472699999999999  0.19489999999999993  1.0000
  C   C128      1.0  0.11901  0.7477699999999999  0.34312  1.0000
  C   C129      1.0  0.83061  0.83804  0.7522399999999998  1.0000
  C   C130      1.0  0.8552299999999998  0.83453  0.67813  1.0000
  C   C131      1.0  0.87726  0.6630900000000001  0.7155  1.0000
  C   C132      1.0  0.85184  0.6654999999999999  0.7887199999999998  1.0000
  C   C133      1.0  0.6969199999999998  0.48148  0.11398  1.0000
  C   C134      1.0  0.52113  0.48909  0.3442699999999999  1.0000
  C   C135      1.0  0.52355  0.49315  0.49943  1.0000
  C   C136      1.0  0.59344  0.48923  0.4203999999999999  1.0000
  C   C137      1.0  0.5465399999999998  0.49135  0.4205099999999999  1.0000
  C   C138      1.0  0.61645  0.48849999999999993  0.49703999999999987  1.0000
  C   C139      1.0  0.66958  0.48302  0.19198  1.0000
  C   C140      1.0  0.66938  0.90886  0.25103  1.0000
  C   C141      1.0  0.64439  0.91193  0.3246699999999999  1.0000
  C   C142      1.0  0.61969  0.99818  0.3429099999999999  1.0000
  C   C143      1.0  0.62042  0.57152  0.28444  1.0000
  C   C144      1.0  0.64588  0.57012  0.21127999999999994  1.0000
  C   C145      1.0  0.2997599999999999  0.5045  0.12074999999999997  1.0000
  C   C146      1.0  0.4759099999999999  0.49238  0.34546  1.0000
  C   C147      1.0  0.47622  0.49632999999999994  0.50071  1.0000
  C   C148      1.0  0.40515  0.50267  0.4253599999999999  1.0000
  C   C149      1.0  0.45196999999999987  0.49811  0.4230299999999999  1.0000
  C   C150      1.0  0.38339  0.5043  0.50307  1.0000
  C   C151      1.0  0.37843  0.50403  0.3467399999999999  1.0000
  C   C152      1.0  0.3028599999999999  0.51387  0.8862699999999998  1.0000
  C   C153      1.0  0.4786399999999999  0.49965000000000004  0.6559299999999998  1.0000
  C   C154      1.0  0.40633999999999987  0.50183  0.57976  1.0000
  C   C155      1.0  0.45324  0.4982  0.57964  1.0000
  C   C156      1.0  0.32711  0.50515  0.19874999999999995  1.0000
  C   C157      1.0  0.32765999999999995  0.91601  0.25267  1.0000
  C   C158      1.0  0.3525999999999999  0.91943  0.32655  1.0000
  C   C159      1.0  0.3791199999999999  0.5893  0.2913499999999999  1.0000
  C   C160      1.0  0.3532099999999999  0.59044  0.21857999999999994  1.0000
  C   C161      1.0  0.69953  0.50316  0.87971  1.0000
  C   C162      1.0  0.52387  0.49698  0.65471  1.0000
  C   C163      1.0  0.5946899999999998  0.49024  0.57471  1.0000
  C   C164      1.0  0.54783  0.49243  0.5770799999999998  1.0000
  C   C165      1.0  0.6719099999999999  0.99759  0.8037999999999997  1.0000
  C   C166      1.0  0.66991  0.58584  0.7475399999999998  1.0000
  C   C167      1.0  0.6449399999999997  0.58188  0.67372  1.0000
  C   C168      1.0  0.62145  0.49274  0.65333  1.0000
  C   C169      1.0  0.6190999999999998  0.91353  0.7124799999999998  1.0000
  C   C170      1.0  0.64499  0.91309  0.7853399999999998  1.0000
  C   C171      1.0  0.32891  0.015890000000000015  0.8061099999999998  1.0000
  C   C172      1.0  0.33259  0.5959  0.7531099999999997  1.0000
  C   C173      1.0  0.3570899999999999  0.59232  0.6788699999999998  1.0000
  C   C174      1.0  0.3807399999999999  0.50493  0.6594699999999998  1.0000
  C   C175      1.0  0.3781699999999999  0.92603  0.71464  1.0000
  C   C176      1.0  0.3526299999999999  0.92849  0.7876599999999998  1.0000
  O   O1        1.0  0.21742999999999998  0.16240000000000002  0.10005999999999997  1.0000
  O   O2        1.0  0.7219699999999998  0.24334999999999998  0.9962199999999998  1.0000
  O   O3        1.0  0.7957199999999998  0.32506  0.07474  1.0000
  O   O4        1.0  0.7974599999999997  0.16935000000000003  0.9255299999999997  1.0000
  O   O5        1.0  0.7843699999999998  0.15571  0.09872999999999997  1.0000
  O   O6        1.0  0.21549  0.34946  0.9038299999999998  1.0000
  O   O7        1.0  0.20425  0.3295  0.07555999999999997  1.0000
  O   O8        1.0  0.2044  0.17958  0.9252099999999998  1.0000
  O   O9        1.0  0.7829999999999998  0.33565  0.8998999999999998  1.0000
  O   O10       1.0  0.7133499999999998  0.3961  0.09489999999999997  1.0000
  O   O11       1.0  0.2957799999999999  0.08009  0.07576999999999998  1.0000
  O   O12       1.0  0.29765  0.4304700000000001  0.9290699999999997  1.0000
  O   O13       1.0  0.2822899999999999  0.41986  0.1008  1.0000
  O   O14       1.0  0.7174699999999998  0.08385  0.9000799999999998  1.0000
  O   O15       1.0  0.7043499999999998  0.07323  0.07461  1.0000
  O   O16       1.0  0.7046399999999998  0.41994  0.9211299999999998  1.0000
  O   O17       1.0  0.28646  0.10474  0.9043599999999998  1.0000
  O   O18       1.0  0.2777799999999999  0.75864  0.99983  1.0000
  O   O19       1.0  0.21551  0.66274  0.09921999999999997  1.0000
  O   O20       1.0  0.7933899999999998  0.8197299999999998  0.07912  1.0000
  O   O21       1.0  0.7958999999999998  0.67302  0.9284099999999997  1.0000
  O   O22       1.0  0.78204  0.65017  0.09979999999999997  1.0000
  O   O23       1.0  0.21556999999999996  0.84561  0.9011499999999998  1.0000
  O   O24       1.0  0.20213  0.83006  0.07431  1.0000
  O   O25       1.0  0.20460999999999993  0.67631  0.9244199999999998  1.0000
  O   O26       1.0  0.78451  0.84104  0.9043999999999998  1.0000
  O   O27       1.0  0.7773399999999998  0.49549  0.99957  1.0000
  O   O28       1.0  0.7154999999999998  0.90533  0.09974  1.0000
  O   O29       1.0  0.29568  0.58837  0.07881999999999997  1.0000
  O   O30       1.0  0.2955299999999999  0.93485  0.9253099999999997  1.0000
  O   O31       1.0  0.28242  0.91194  0.09957999999999997  1.0000
  O   O32       1.0  0.7157  0.58959  0.9002999999999998  1.0000
  O   O33       1.0  0.70202  0.56477  0.07185999999999997  1.0000
  O   O34       1.0  0.70243  0.91591  0.9254699999999998  1.0000
  O   O35       1.0  0.28642  0.59903  0.90448  1.0000
  O   O36       1.0  0.2783899999999999  0.25886  0.0036799999999999992  1.0000
  O   O37       1.0  0.77802  0.9953  0.0009699999999999998  1.0000
  O   O38       1.0  0.22198999999999994  0.0060100000000000015  0.9993899999999999  1.0000
  O   O39       1.0  0.7204999999999998  0.7443300000000002  0.0007  1.0000
  O   O40       1.0  0.22214999999999993  0.50584  0.99994  1.0000
