data_image0
_chemical_formula_structural       Al4H56C96N8O20
_chemical_formula_sum              "Al4 H56 C96 N8 O20"
_cell_length_a       31.80931
_cell_length_b       6.64979
_cell_length_c       17.13502
_cell_angle_alpha    89.88063000000001
_cell_angle_beta     89.97418
_cell_angle_gamma    89.45057

_space_group_name_H-M_alt    "P 1"
_space_group_IT_number       1

loop_
  _space_group_symop_operation_xyz
  'x, y, z'

loop_
  _atom_site_type_symbol
  _atom_site_label
  _atom_site_symmetry_multiplicity
  _atom_site_fract_x
  _atom_site_fract_y
  _atom_site_fract_z
  _atom_site_occupancy
  Al  Al1       1.0  0.24919  0.24854  0.9993700000000001  1.0000
  Al  Al2       1.0  0.24937  0.7476  0.99532  1.0000
  Al  Al3       1.0  0.74853  0.25405  0.0008299999999999998  1.0000
  Al  Al4       1.0  0.75012  0.75326  0.99708  1.0000
  H   H1        1.0  0.30038  0.99329  0.03125  1.0000
  H   H2        1.0  0.04165  0.9611700000000001  0.79742  1.0000
  H   H3        1.0  0.03371  0.0005200000000000003  0.49944  1.0000
  H   H4        1.0  0.16029  0.00556  0.57872  1.0000
  H   H5        1.0  0.04125  0.04449  0.20262  1.0000
  H   H6        1.0  0.16058  0.99284  0.42157  1.0000
  H   H7        1.0  0.13606  0.28052  0.3256  1.0000
  H   H8        1.0  0.18743  0.2813  0.21559  1.0000
  H   H9        1.0  0.08865  0.29254  0.75076  1.0000
  H   H10       1.0  0.14312  0.29834999999999995  0.85596  1.0000
  H   H11       1.0  0.13537  0.71543  0.67518  1.0000
  H   H12       1.0  0.18744  0.7148300000000001  0.78441  1.0000
  H   H13       1.0  0.08837  0.7129699999999999  0.24663999999999997  1.0000
  H   H14       1.0  0.14142  0.70852  0.13948  1.0000
  H   H15       1.0  0.69859  0.99785  0.03377  1.0000
  H   H16       1.0  0.95704  0.96289  0.79791  1.0000
  H   H17       1.0  0.96467  0.00169  0.50079  1.0000
  H   H18       1.0  0.83789  0.00967  0.57907  1.0000
  H   H19       1.0  0.90901  0.29628  0.75199  1.0000
  H   H20       1.0  0.85468  0.30399  0.8574  1.0000
  H   H21       1.0  0.95678  0.04494  0.20301999999999995  1.0000
  H   H22       1.0  0.83795  0.99584  0.42204  1.0000
  H   H23       1.0  0.86205  0.28465  0.3254899999999999  1.0000
  H   H24       1.0  0.81056  0.28538  0.21563  1.0000
  H   H25       1.0  0.91073  0.71291  0.24804  1.0000
  H   H26       1.0  0.8573400000000002  0.70804  0.14162  1.0000
  H   H27       1.0  0.86336  0.7214199999999998  0.67625  1.0000
  H   H28       1.0  0.81166  0.72207  0.78602  1.0000
  H   H29       1.0  0.19854  0.50257  0.03292  1.0000
  H   H30       1.0  0.79953  0.49843000000000004  0.03732  1.0000
  H   H31       1.0  0.45758  0.5319  0.79748  1.0000
  H   H32       1.0  0.46507  0.4961999999999999  0.49874000000000007  1.0000
  H   H33       1.0  0.3389  0.47423  0.5802  1.0000
  H   H34       1.0  0.36422  0.7748199999999998  0.67353  1.0000
  H   H35       1.0  0.31191  0.7802  0.7824299999999998  1.0000
  H   H36       1.0  0.54205  0.54379  0.7975399999999999  1.0000
  H   H37       1.0  0.53401  0.51046  0.50127  1.0000
  H   H38       1.0  0.66116  0.51767  0.57684  1.0000
  H   H39       1.0  0.59036  0.22349  0.7531399999999999  1.0000
  H   H40       1.0  0.64405  0.22184  0.8596299999999998  1.0000
  H   H41       1.0  0.54144  0.47026  0.20249999999999999  1.0000
  H   H42       1.0  0.66018  0.53289  0.41983  1.0000
  H   H43       1.0  0.58745  0.80124  0.24427999999999997  1.0000
  H   H44       1.0  0.64041  0.7976499999999999  0.13699  1.0000
  H   H45       1.0  0.457  0.46066  0.20238999999999993  1.0000
  H   H46       1.0  0.33787  0.49042  0.42325  1.0000
  H   H47       1.0  0.36231  0.21419  0.32688  1.0000
  H   H48       1.0  0.31064  0.21198  0.21762  1.0000
  H   H49       1.0  0.63588  0.2339  0.32765  1.0000
  H   H50       1.0  0.68753  0.22663  0.21798999999999996  1.0000
  H   H51       1.0  0.4091  0.78288  0.24601  1.0000
  H   H52       1.0  0.35623  0.78356  0.13879  1.0000
  H   H53       1.0  0.41066  0.20089  0.75392  1.0000
  H   H54       1.0  0.35636  0.20148  0.85965  1.0000
  H   H55       1.0  0.63605  0.7954299999999999  0.6733799999999998  1.0000
  H   H56       1.0  0.68812  0.79739  0.78237  1.0000
  C   C1        1.0  0.0334  0.0003299999999999998  0.66677  1.0000
  C   C2        1.0  0.02063  0.97893  0.74817  1.0000
  C   C3        1.0  0.09049  0.0019599999999999995  0.56593  1.0000
  C   C4        1.0  0.1334  0.0021400000000000017  0.5401099999999998  1.0000
  C   C5        1.0  0.07599  0.00227  0.64339  1.0000
  C   C6        1.0  0.10853  0.004069999999999998  0.70586  1.0000
  C   C7        1.0  0.1684  0.006790000000000003  0.8263299999999998  1.0000
  C   C8        1.0  0.19911  0.004569999999999999  0.89188  1.0000
  C   C9        1.0  0.03355  0.002410000000000001  0.3332599999999999  1.0000
  C   C10       1.0  0.02048  0.026  0.25211  1.0000
  C   C11       1.0  0.09069  0.9983600000000001  0.4336899999999999  1.0000
  C   C12       1.0  0.13352  0.99701  0.45986  1.0000
  C   C13       1.0  0.07622  0.99905  0.35621  1.0000
  C   C14       1.0  0.1086  0.99698  0.29336  1.0000
  C   C15       1.0  0.13723  0.15553  0.2847999999999999  1.0000
  C   C16       1.0  0.16602  0.15627  0.22333999999999996  1.0000
  C   C17       1.0  0.16761  0.99491  0.17071  1.0000
  C   C18       1.0  0.19783  0.9965500000000002  0.10413  1.0000
  C   C19       1.0  0.11071  0.16776000000000002  0.7575399999999998  1.0000
  C   C20       1.0  0.14088  0.17098000000000002  0.81653  1.0000
  C   C21       1.0  0.13699  0.8425  0.71489  1.0000
  C   C22       1.0  0.16622  0.84199  0.77553  1.0000
  C   C23       1.0  0.11038  0.83606  0.24023  1.0000
  C   C24       1.0  0.13996  0.83357  0.18017  1.0000
  C   C25       1.0  0.96483  0.0018499999999999999  0.66718  1.0000
  C   C26       1.0  0.97788  0.9799300000000001  0.74842  1.0000
  C   C27       1.0  0.90774  0.00459  0.56668  1.0000
  C   C28       1.0  0.86489  0.005529999999999999  0.54065  1.0000
  C   C29       1.0  0.92219  0.0054  0.64418  1.0000
  C   C30       1.0  0.8897  0.008759999999999999  0.70687  1.0000
  C   C31       1.0  0.88725  0.17229  0.75872  1.0000
  C   C32       1.0  0.85716  0.17649  0.81797  1.0000
  C   C33       1.0  0.83012  0.0131  0.8280199999999998  1.0000
  C   C34       1.0  0.79966  0.01115  0.894  1.0000
  C   C35       1.0  0.96494  0.0029200000000000007  0.33360999999999996  1.0000
  C   C36       1.0  0.97773  0.02626  0.25232  1.0000
  C   C37       1.0  0.90781  0.99996  0.4344  1.0000
  C   C38       1.0  0.86493  0.99972  0.46041  1.0000
  C   C39       1.0  0.92232  0.0003099999999999999  0.3569  1.0000
  C   C40       1.0  0.8899  0.9986899999999999  0.29414  1.0000
  C   C41       1.0  0.83067  0.99641  0.17212  1.0000
  C   C42       1.0  0.80022  0.99736  0.10604999999999998  1.0000
  C   C43       1.0  0.86104  0.15871  0.28514999999999996  1.0000
  C   C44       1.0  0.83215  0.15936  0.22389  1.0000
  C   C45       1.0  0.8884  0.8367200000000001  0.24153999999999998  1.0000
  C   C46       1.0  0.85866  0.83398  0.18183999999999997  1.0000
  C   C47       1.0  0.86157  0.84842  0.71604  1.0000
  C   C48       1.0  0.8325500000000002  0.84854  0.77707  1.0000
  C   C49       1.0  0.4659  0.49573  0.66678  1.0000
  C   C50       1.0  0.47861  0.51826  0.74808  1.0000
  C   C51       1.0  0.40863  0.48610000000000003  0.5663899999999998  1.0000
  C   C52       1.0  0.36564  0.48142  0.54126  1.0000
  C   C53       1.0  0.42333  0.48810999999999993  0.64371  1.0000
  C   C54       1.0  0.39085  0.48724  0.70643  1.0000
  C   C55       1.0  0.36246  0.64944  0.71421  1.0000
  C   C56       1.0  0.33315  0.65278  0.7747099999999999  1.0000
  C   C57       1.0  0.33097  0.49086  0.8271599999999998  1.0000
  C   C58       1.0  0.30006  0.4969  0.8924299999999997  1.0000
  C   C59       1.0  0.53445  0.50526  0.66681  1.0000
  C   C60       1.0  0.52133  0.52408  0.74812  1.0000
  C   C61       1.0  0.59124  0.51447  0.56582  1.0000
  C   C62       1.0  0.63393  0.5192  0.53898  1.0000
  C   C63       1.0  0.57707  0.50971  0.64352  1.0000
  C   C64       1.0  0.6096  0.50944  0.706  1.0000
  C   C65       1.0  0.61198  0.34818  0.75924  1.0000
  C   C66       1.0  0.64177  0.34701  0.8188799999999999  1.0000
  C   C67       1.0  0.66916  0.50962  0.82748  1.0000
  C   C68       1.0  0.69977  0.51168  0.8932299999999997  1.0000
  C   C69       1.0  0.53317  0.5099  0.33309  1.0000
  C   C70       1.0  0.52043  0.48589  0.25186  1.0000
  C   C71       1.0  0.59046  0.52014  0.43353  1.0000
  C   C72       1.0  0.63343  0.52556  0.45873999999999987  1.0000
  C   C73       1.0  0.57575  0.51759  0.35618  1.0000
  C   C74       1.0  0.60815  0.51799  0.29331  1.0000
  C   C75       1.0  0.60968  0.67667  0.23898  1.0000
  C   C76       1.0  0.63923  0.6746899999999999  0.17881  1.0000
  C   C77       1.0  0.66722  0.51167  0.17077999999999993  1.0000
  C   C78       1.0  0.69756  0.50379  0.10446  1.0000
  C   C79       1.0  0.46458  0.50157  0.33304  1.0000
  C   C80       1.0  0.4777  0.48106  0.25179999999999997  1.0000
  C   C81       1.0  0.4078  0.49265  0.43412  1.0000
  C   C82       1.0  0.36512  0.4883  0.46102999999999994  1.0000
  C   C83       1.0  0.42194  0.49779  0.35638  1.0000
  C   C84       1.0  0.38939  0.49854  0.2939  1.0000
  C   C85       1.0  0.36089  0.33924  0.28593  1.0000
  C   C86       1.0  0.33197  0.33738  0.22474999999999998  1.0000
  C   C87       1.0  0.33026  0.49737  0.1712  1.0000
  C   C88       1.0  0.30021  0.49281  0.10442  1.0000
  C   C89       1.0  0.63698  0.35739  0.286  1.0000
  C   C90       1.0  0.66589  0.35287  0.22481  1.0000
  C   C91       1.0  0.3873  0.65881  0.24016999999999997  1.0000
  C   C92       1.0  0.35781  0.6593  0.18001  1.0000
  C   C93       1.0  0.38866  0.3262  0.75961  1.0000
  C   C94       1.0  0.35857  0.3264699999999999  0.8188799999999999  1.0000
  C   C95       1.0  0.63781  0.66983  0.7140399999999999  1.0000
  C   C96       1.0  0.667  0.67133  0.77478  1.0000
  N   N1        1.0  0.99903  0.01156  0.61829  1.0000
  N   N2        1.0  0.06585000000000002  0.00033000000000000027  0.49971  1.0000
  N   N3        1.0  0.99932  0.99111  0.38208  1.0000
  N   N4        1.0  0.93252  0.0016700000000000011  0.5005499999999998  1.0000
  N   N5        1.0  0.50028  0.49038  0.6181099999999998  1.0000
  N   N6        1.0  0.43296  0.49112  0.49972999999999995  1.0000
  N   N7        1.0  0.56612  0.5151  0.50016  1.0000
  N   N8        1.0  0.49877  0.51668  0.38169  1.0000
  O   O1        1.0  0.27493  0.99704  0.00010999999999999999  1.0000
  O   O2        1.0  0.20834  0.16905000000000003  0.07806  1.0000
  O   O3        1.0  0.21113  0.17407  0.9179099999999998  1.0000
  O   O4        1.0  0.21009  0.82583  0.07812  1.0000
  O   O5        1.0  0.29196  0.66011  0.07045  1.0000
  O   O6        1.0  0.2234  0.49967  5.9999999999999995e-05  1.0000
  O   O7        1.0  0.21029  0.8322999999999999  0.9177  1.0000
  O   O8        1.0  0.28521  0.6692200000000001  0.91065  1.0000
  O   O9        1.0  0.72331  0.00276  0.0005999999999999997  1.0000
  O   O10       1.0  0.78975  0.16909  0.07835  1.0000
  O   O11       1.0  0.71218  0.33011  0.08666  1.0000
  O   O12       1.0  0.77509  0.50136  0.00346  1.0000
  O   O13       1.0  0.78542  0.18029  0.91756  1.0000
  O   O14       1.0  0.70635  0.34624  0.9293099999999997  1.0000
  O   O15       1.0  0.7877  0.8264100000000001  0.082  1.0000
  O   O16       1.0  0.79094  0.83944  0.9225899999999999  1.0000
  O   O17       1.0  0.28569  0.32092  0.08586  1.0000
  O   O18       1.0  0.29137  0.33064  0.92588  1.0000
  O   O19       1.0  0.70599  0.66968  0.07023  1.0000
  O   O20       1.0  0.71657  0.67959  0.90967  1.0000
