data_image0
_chemical_formula_structural       Zn8H32C68O40
_chemical_formula_sum              "Zn8 H32 C68 O40"
_cell_length_a       11.2562
_cell_length_b       13.1744
_cell_length_c       20.3965
_cell_angle_alpha    90.0
_cell_angle_beta     90.0
_cell_angle_gamma    90.0

_symmetry_space_group_name_H-M    'P 1'
_symmetry_Int_Tables_number       1

loop_
  _symmetry_equiv_pos_as_xyz
  'x,y,z'

loop_
  _atom_site_type_symbol
  _atom_site_label
  _atom_site_symmetry_multiplicity
  _atom_site_fract_x
  _atom_site_fract_y
  _atom_site_fract_z
  _atom_site_occupancy
  Zn  Zn1       1.0  0.67718  0.9784700000000002  0.46775  1.0000
  Zn  Zn2       1.0  0.8896  0.07205  0.35934  1.0000
  Zn  Zn3       1.0  0.8228200000000001  0.02153  0.9677500000000001  1.0000
  Zn  Zn4       1.0  0.6104  0.9279500000000003  0.8593400000000001  1.0000
  Zn  Zn5       1.0  0.32282  0.47847  0.03225  1.0000
  Zn  Zn6       1.0  0.1104  0.57205  0.14066  1.0000
  Zn  Zn7       1.0  0.17718  0.52153  0.5322500000000001  1.0000
  Zn  Zn8       1.0  0.3896  0.42795  0.64066  1.0000
  H   H1        1.0  0.6293  0.2943  0.2899  1.0000
  H   H2        1.0  0.5483  0.2744  0.4833000000000001  1.0000
  H   H3        1.0  0.4014  0.4977  0.371  1.0000
  H   H4        1.0  0.35990000000000005  0.5228  0.2593  1.0000
  H   H5        1.0  0.44890000000000013  0.5548000000000001  0.2018  1.0000
  H   H6        1.0  0.6676  0.5496  0.2149  1.0000
  H   H7        1.0  0.8961  0.7788000000000002  0.25910000000000005  1.0000
  H   H8        1.0  0.5621  0.7782  0.3358  1.0000
  H   H9        1.0  0.8707000000000001  0.7057  0.7899  1.0000
  H   H10       1.0  0.9517  0.7256000000000002  0.9833  1.0000
  H   H11       1.0  0.0986  0.5023  0.8710000000000001  1.0000
  H   H12       1.0  0.14010000000000003  0.4772  0.7593000000000001  1.0000
  H   H13       1.0  0.051100000000000007  0.44520000000000004  0.7018000000000001  1.0000
  H   H14       1.0  0.8324  0.4504  0.7149000000000001  1.0000
  H   H15       1.0  0.6039  0.2212  0.7591  1.0000
  H   H16       1.0  0.9379  0.22180000000000005  0.8358  1.0000
  H   H17       1.0  0.3707  0.7943  0.21010000000000004  1.0000
  H   H18       1.0  0.4517  0.7744000000000001  0.0167  1.0000
  H   H19       1.0  0.5986  0.9977000000000001  0.129  1.0000
  H   H20       1.0  0.6401  0.022800000000000008  0.2407  1.0000
  H   H21       1.0  0.5511  0.0548  0.2982  1.0000
  H   H22       1.0  0.33240000000000003  0.0496  0.2851  1.0000
  H   H23       1.0  0.1039  0.2788  0.2409  1.0000
  H   H24       1.0  0.4379  0.2782  0.1642  1.0000
  H   H25       1.0  0.1293  0.2057  0.7101  1.0000
  H   H26       1.0  0.0483  0.22560000000000002  0.5167000000000002  1.0000
  H   H27       1.0  0.9014  0.0023  0.629  1.0000
  H   H28       1.0  0.8599000000000002  0.9772000000000001  0.7407  1.0000
  H   H29       1.0  0.9489  0.9452000000000003  0.7982  1.0000
  H   H30       1.0  0.1676  0.9504  0.7851000000000001  1.0000
  H   H31       1.0  0.3961  0.7212  0.7409000000000001  1.0000
  H   H32       1.0  0.0621  0.7218  0.6642  1.0000
  C   C1        1.0  0.5142  0.4037  0.32156  1.0000
  C   C2        1.0  0.5877  0.3190000000000001  0.32711000000000007  1.0000
  C   C3        1.0  0.5998  0.2705  0.38745000000000007  1.0000
  C   C4        1.0  0.5403  0.3076  0.44224  1.0000
  C   C5        1.0  0.4692  0.3935  0.4366900000000001  1.0000
  C   C6        1.0  0.4532000000000001  0.4411  0.3753300000000001  1.0000
  C   C7        1.0  0.6798  0.1794  0.3939500000000001  1.0000
  C   C8        1.0  0.4121  0.4365000000000001  0.4971  1.0000
  C   C9        1.0  0.4443  0.536  0.24873  1.0000
  C   C10       1.0  0.5975  0.6570000000000003  0.27581  1.0000
  C   C11       1.0  0.6842  0.6111  0.23747  1.0000
  C   C12       1.0  0.7963  0.6565000000000001  0.23242000000000002  1.0000
  C   C13       1.0  0.8205000000000001  0.7476  0.26396  1.0000
  C   C14       1.0  0.7334  0.7932  0.30279000000000006  1.0000
  C   C15       1.0  0.6214  0.7477  0.30909  1.0000
  C   C16       1.0  0.8925  0.6022  0.19389  1.0000
  C   C17       1.0  0.7575  0.8890000000000002  0.33972  1.0000
  C   C18       1.0  0.9858  0.5963  0.8215600000000001  1.0000
  C   C19       1.0  0.9123000000000001  0.6810000000000002  0.8271100000000002  1.0000
  C   C20       1.0  0.9002  0.7295000000000001  0.88745  1.0000
  C   C21       1.0  0.9597000000000002  0.6924000000000002  0.9422400000000001  1.0000
  C   C22       1.0  0.0308  0.6065  0.93669  1.0000
  C   C23       1.0  0.0468  0.5589  0.87533  1.0000
  C   C24       1.0  0.8202  0.8206  0.89395  1.0000
  C   C25       1.0  0.08790000000000002  0.5635  0.9971  1.0000
  C   C26       1.0  0.0557  0.4640000000000001  0.74873  1.0000
  C   C27       1.0  0.9025  0.343  0.77581  1.0000
  C   C28       1.0  0.8158000000000001  0.38890000000000013  0.73747  1.0000
  C   C29       1.0  0.7037  0.3435  0.73242  1.0000
  C   C30       1.0  0.6795  0.2524  0.76396  1.0000
  C   C31       1.0  0.7666000000000002  0.2068  0.80279  1.0000
  C   C32       1.0  0.8786  0.2523  0.80909  1.0000
  C   C33       1.0  0.6075  0.3978000000000001  0.69389  1.0000
  C   C34       1.0  0.7425  0.111  0.8397200000000001  1.0000
  C   C35       1.0  0.48580000000000007  0.9037  0.17844000000000002  1.0000
  C   C36       1.0  0.41230000000000006  0.819  0.17289000000000002  1.0000
  C   C37       1.0  0.4002  0.7705  0.11255000000000003  1.0000
  C   C38       1.0  0.45970000000000005  0.8076000000000001  0.05776  1.0000
  C   C39       1.0  0.5308000000000002  0.8935  0.06331  1.0000
  C   C40       1.0  0.5468  0.9411  0.12467000000000002  1.0000
  C   C41       1.0  0.32020000000000004  0.6794  0.10605000000000002  1.0000
  C   C42       1.0  0.5879000000000001  0.9365  0.0029000000000000002  1.0000
  C   C43       1.0  0.5557  0.036  0.25127000000000005  1.0000
  C   C44       1.0  0.4025000000000001  0.157  0.22419000000000006  1.0000
  C   C45       1.0  0.3158  0.1111  0.26253  1.0000
  C   C46       1.0  0.20370000000000002  0.1565  0.26758000000000004  1.0000
  C   C47       1.0  0.17950000000000002  0.24760000000000004  0.23604  1.0000
  C   C48       1.0  0.26660000000000006  0.29320000000000007  0.19721  1.0000
  C   C49       1.0  0.3786000000000001  0.24770000000000006  0.19091000000000005  1.0000
  C   C50       1.0  0.10750000000000003  0.1022  0.30611  1.0000
  C   C51       1.0  0.24250000000000002  0.389  0.16028000000000003  1.0000
  C   C52       1.0  0.014200000000000003  0.09630000000000002  0.6784400000000003  1.0000
  C   C53       1.0  0.0877  0.18100000000000002  0.67289  1.0000
  C   C54       1.0  0.0998  0.2295  0.6125500000000001  1.0000
  C   C55       1.0  0.0403  0.19240000000000002  0.55776  1.0000
  C   C56       1.0  0.9692000000000001  0.1065  0.56331  1.0000
  C   C57       1.0  0.9532000000000003  0.0589  0.62467  1.0000
  C   C58       1.0  0.17980000000000002  0.32060000000000005  0.60605  1.0000
  C   C59       1.0  0.9121000000000001  0.0635  0.5029  1.0000
  C   C60       1.0  0.9443  0.964  0.7512700000000001  1.0000
  C   C61       1.0  0.0975  0.8430000000000002  0.72419  1.0000
  C   C62       1.0  0.1842  0.8889  0.76253  1.0000
  C   C63       1.0  0.2963  0.8435  0.76758  1.0000
  C   C64       1.0  0.3205  0.7524  0.73604  1.0000
  C   C65       1.0  0.2334  0.7068  0.6972100000000001  1.0000
  C   C66       1.0  0.12140000000000001  0.7523  0.69091  1.0000
  C   C67       1.0  0.3925  0.8978000000000003  0.80611  1.0000
  C   C68       1.0  0.2575  0.6110000000000002  0.66028  1.0000
  O   O1        1.0  0.7469  0.15823  0.34578000000000003  1.0000
  O   O2        1.0  0.6752  0.13095  0.4473500000000001  1.0000
  O   O3        1.0  0.44412000000000007  0.39966  0.55088  1.0000
  O   O4        1.0  0.3374  0.5079  0.4896400000000001  1.0000
  O   O5        1.0  0.51078  0.44539  0.25898000000000004  1.0000
  O   O6        1.0  0.48494  0.6184  0.28703  1.0000
  O   O7        1.0  0.8699900000000003  0.52233  0.16526  1.0000
  O   O8        1.0  0.99575  0.6435600000000001  0.19572000000000003  1.0000
  O   O9        1.0  0.85501  0.93354  0.329  1.0000
  O   O10       1.0  0.67786  0.9188000000000001  0.37877  1.0000
  O   O11       1.0  0.7531  0.84177  0.8457800000000001  1.0000
  O   O12       1.0  0.8248000000000001  0.8690500000000001  0.94735  1.0000
  O   O13       1.0  0.05588000000000001  0.60034  0.05088  1.0000
  O   O14       1.0  0.1626  0.4921000000000001  0.98964  1.0000
  O   O15       1.0  0.98922  0.55461  0.75898  1.0000
  O   O16       1.0  0.01506  0.3816  0.7870300000000001  1.0000
  O   O17       1.0  0.63001  0.47767  0.66526  1.0000
  O   O18       1.0  0.50425  0.35644  0.6957200000000001  1.0000
  O   O19       1.0  0.64499  0.06646  0.8290000000000001  1.0000
  O   O20       1.0  0.82214  0.08120000000000001  0.8787700000000002  1.0000
  O   O21       1.0  0.2531  0.6582300000000001  0.15422  1.0000
  O   O22       1.0  0.3248  0.63095  0.05265  1.0000
  O   O23       1.0  0.55588  0.8996600000000001  0.9491200000000001  1.0000
  O   O24       1.0  0.6626000000000001  0.007900000000000003  0.010360000000000001  1.0000
  O   O25       1.0  0.4892200000000001  0.94539  0.24102  1.0000
  O   O26       1.0  0.51506  0.1184  0.21297000000000005  1.0000
  O   O27       1.0  0.13001  0.02233  0.33474000000000004  1.0000
  O   O28       1.0  0.00425  0.14356  0.30428000000000005  1.0000
  O   O29       1.0  0.14499  0.43354000000000004  0.171  1.0000
  O   O30       1.0  0.32214  0.4188000000000001  0.12123000000000002  1.0000
  O   O31       1.0  0.2469  0.34177  0.6542200000000001  1.0000
  O   O32       1.0  0.1752  0.36905  0.55265  1.0000
  O   O33       1.0  0.94412  0.10034  0.44912000000000013  1.0000
  O   O34       1.0  0.8374  0.9921  0.51036  1.0000
  O   O35       1.0  0.01078  0.054610000000000006  0.7410200000000001  1.0000
  O   O36       1.0  0.9849400000000001  0.8816  0.71297  1.0000
  O   O37       1.0  0.36999  0.97767  0.83474  1.0000
  O   O38       1.0  0.49575  0.85644  0.8042800000000001  1.0000
  O   O39       1.0  0.35501  0.56646  0.6710000000000003  1.0000
  O   O40       1.0  0.17786  0.5812  0.62123  1.0000
