data_image0
_chemical_formula_structural       Cu18H126C162N18O54
_chemical_formula_sum              "Cu18 H126 C162 N18 O54"
_cell_length_a       26.90697
_cell_length_b       26.82953
_cell_length_c       7.026869999999999
_cell_angle_alpha    89.95711
_cell_angle_beta     89.78891
_cell_angle_gamma    120.01692

_symmetry_space_group_name_H-M    'P 1'
_symmetry_Int_Tables_number       1

loop_
  _symmetry_equiv_pos_as_xyz
  'x,y,z'

loop_
  _atom_site_type_symbol
  _atom_site_label
  _atom_site_symmetry_multiplicity
  _atom_site_fract_x
  _atom_site_fract_y
  _atom_site_fract_z
  _atom_site_occupancy
  Cu  Cu1       1.0  0.32479  0.21261  0.06349  1.0000
  Cu  Cu2       1.0  0.7888699999999998  0.11140999999999998  0.06516  1.0000
  Cu  Cu3       1.0  0.88806  0.67952  0.07751  1.0000
  Cu  Cu4       1.0  0.98515  0.5426899999999999  0.41048  1.0000
  Cu  Cu5       1.0  0.45619  0.44514  0.40269999999999995  1.0000
  Cu  Cu6       1.0  0.55517  0.01038  0.4062099999999999  1.0000
  Cu  Cu7       1.0  0.6565099999999999  0.8775499999999998  0.73426  1.0000
  Cu  Cu8       1.0  0.12036999999999994  0.7776599999999998  0.74686  1.0000
  Cu  Cu9       1.0  0.22038999999999992  0.3406699999999999  0.73061  1.0000
  Cu  Cu10      1.0  0.67997  0.7900599999999999  0.93181  1.0000
  Cu  Cu11      1.0  0.2076699999999999  0.89088  0.93536  1.0000
  Cu  Cu12      1.0  0.10776999999999996  0.31745999999999996  0.9195799999999997  1.0000
  Cu  Cu13      1.0  0.34728999999999993  0.12453999999999997  0.25968  1.0000
  Cu  Cu14      1.0  0.87511  0.22212  0.26102  1.0000
  Cu  Cu15      1.0  0.77665  0.65409  0.26988  1.0000
  Cu  Cu16      1.0  0.010290000000000006  0.45534  0.60063  1.0000
  Cu  Cu17      1.0  0.54238  0.55695  0.60071  1.0000
  Cu  Cu18      1.0  0.44301  0.98587  0.60207  1.0000
  H   H1        1.0  0.46162  0.16100999999999996  0.04985  1.0000
  H   H2        1.0  0.84051  0.30034999999999995  0.04803  1.0000
  H   H3        1.0  0.6998399999999999  0.5423999999999999  0.04772  1.0000
  H   H4        1.0  0.12151999999999993  0.4893399999999999  0.38138  1.0000
  H   H5        1.0  0.5070999999999999  0.6343399999999999  0.39251  1.0000
  H   H6        1.0  0.36694999999999983  0.8727999999999998  0.39866999999999997  1.0000
  H   H7        1.0  0.79144  0.8238  0.71157  1.0000
  H   H8        1.0  0.16912999999999992  0.9660999999999997  0.7263399999999998  1.0000
  H   H9        1.0  0.03065999999999999  0.20802999999999996  0.69357  1.0000
  H   H10       1.0  0.5443  0.8436  0.95237  1.0000
  H   H11       1.0  0.15476  0.70102  0.96639  1.0000
  H   H12       1.0  0.29755  0.4526299999999999  0.9443299999999999  1.0000
  H   H13       1.0  0.20815999999999998  0.17168999999999998  0.25825  1.0000
  H   H14       1.0  0.82568  0.03354  0.26835  1.0000
  H   H15       1.0  0.9648299999999999  0.7931399999999997  0.29077  1.0000
  H   H16       1.0  0.8751999999999999  0.5091499999999999  0.63596  1.0000
  H   H17       1.0  0.49268000000000006  0.36866  0.61633  1.0000
  H   H18       1.0  0.63173  0.12428  0.61542  1.0000
  H   H19       1.0  0.5349999999999999  0.18478999999999995  0.79912  1.0000
  H   H20       1.0  0.8169599999999999  0.3499999999999999  0.79777  1.0000
  H   H21       1.0  0.65277  0.4693999999999999  0.79572  1.0000
  H   H22       1.0  0.1924  0.51118  0.12445  1.0000
  H   H23       1.0  0.48571  0.6853299999999999  0.14167  1.0000
  H   H24       1.0  0.3170799999999998  0.7980699999999997  0.15406  1.0000
  H   H25       1.0  0.86328  0.84584  0.45692  1.0000
  H   H26       1.0  0.14484  0.01473  0.47466  1.0000
  H   H27       1.0  0.9819  0.13876  0.43297  1.0000
  H   H28       1.0  0.47261  0.82189  0.2072  1.0000
  H   H29       1.0  0.17606999999999995  0.6520299999999999  0.22444  1.0000
  H   H30       1.0  0.34711999999999993  0.5242699999999999  0.19837  1.0000
  H   H31       1.0  0.13206  0.14581999999999998  0.50048  1.0000
  H   H32       1.0  0.85249  0.98429  0.51008  1.0000
  H   H33       1.0  0.012790000000000032  0.8657  0.54289  1.0000
  H   H34       1.0  0.80263  0.4840299999999999  0.89013  1.0000
  H   H35       1.0  0.51843  0.31988999999999995  0.86352  1.0000
  H   H36       1.0  0.68123  0.19696999999999995  0.86697  1.0000
  H   H37       1.0  0.5302300000000002  0.23012  0.49305  1.0000
  H   H38       1.0  0.77091  0.2992699999999999  0.49409  1.0000
  H   H39       1.0  0.7060299999999998  0.4745699999999999  0.49601  1.0000
  H   H40       1.0  0.18727  0.558  0.8219799999999999  1.0000
  H   H41       1.0  0.44328  0.63673  0.83179  1.0000
  H   H42       1.0  0.36659  0.80183  0.84698  1.0000
  H   H43       1.0  0.85824  0.8916099999999999  0.15201  1.0000
  H   H44       1.0  0.10060999999999998  0.96392  0.16967  1.0000
  H   H45       1.0  0.03473  0.14538999999999996  0.13093  1.0000
  H   H46       1.0  0.4787499999999999  0.7782999999999998  0.51489  1.0000
  H   H47       1.0  0.22159999999999994  0.70423  0.52695  1.0000
  H   H48       1.0  0.29589  0.51919  0.50244  1.0000
  H   H49       1.0  0.13658  0.10298999999999998  0.81237  1.0000
  H   H50       1.0  0.8977299999999999  0.03333  0.81643  1.0000
  H   H51       1.0  0.96151  0.85875  0.84883  1.0000
  H   H52       1.0  0.80753  0.4356899999999999  0.18943  1.0000
  H   H53       1.0  0.56469  0.3706999999999999  0.16687  1.0000
  H   H54       1.0  0.63091  0.19111  0.17379999999999998  1.0000
  H   H55       1.0  0.45161  0.253  0.44845  1.0000
  H   H56       1.0  0.7458  0.19673  0.45362999999999987  1.0000
  H   H57       1.0  0.80824  0.55292  0.46095  1.0000
  H   H58       1.0  0.11068999999999997  0.58437  0.78884  1.0000
  H   H59       1.0  0.41855  0.5344  0.78713  1.0000
  H   H60       1.0  0.46803  0.88035  0.7971  1.0000
  H   H61       1.0  0.78161  0.91762  0.11446  1.0000
  H   H62       1.0  0.07773999999999989  0.8619799999999997  0.12928  1.0000
  H   H63       1.0  0.13844  0.22036  0.1034  1.0000
  H   H64       1.0  0.55517  0.75188  0.55293  1.0000
  H   H65       1.0  0.24844999999999987  0.8075499999999998  0.55739  1.0000
  H   H66       1.0  0.19277999999999998  0.44324  0.53891  1.0000
  H   H67       1.0  0.21539999999999998  0.08083  0.8659  1.0000
  H   H68       1.0  0.91948  0.13465999999999997  0.86722  1.0000
  H   H69       1.0  0.85985  0.7794099999999998  0.8891  1.0000
  H   H70       1.0  0.8850499999999999  0.4107  0.22152  1.0000
  H   H71       1.0  0.58813  0.47266999999999987  0.20941  1.0000
  H   H72       1.0  0.5288  0.11324  0.21609999999999996  1.0000
  H   H73       1.0  0.37507  0.25683  0.53789  1.0000
  H   H74       1.0  0.74124  0.11599  0.54442  1.0000
  H   H75       1.0  0.88763  0.6287499999999999  0.55715  1.0000
  H   H76       1.0  0.036639999999999964  0.59082  0.88794  1.0000
  H   H77       1.0  0.41149  0.4522799999999999  0.8790599999999997  1.0000
  H   H78       1.0  0.5489999999999998  0.9582299999999998  0.88301  1.0000
  H   H79       1.0  0.70812  0.9256  0.21188  1.0000
  H   H80       1.0  0.0728599999999999  0.7813799999999997  0.22518  1.0000
  H   H81       1.0  0.21918  0.29253  0.20596999999999996  1.0000
  H   H82       1.0  0.62814  0.7433099999999998  0.45504  1.0000
  H   H83       1.0  0.25638  0.88858  0.45612  1.0000
  H   H84       1.0  0.11124000000000003  0.37002  0.44073  1.0000
  H   H85       1.0  0.2928200000000001  0.07693999999999998  0.7810199999999999  1.0000
  H   H86       1.0  0.92237  0.21527999999999994  0.7815  1.0000
  H   H87       1.0  0.77972  0.70445  0.79301  1.0000
  H   H88       1.0  0.95996  0.40583  0.12235  1.0000
  H   H89       1.0  0.59257  0.55323  0.11846  1.0000
  H   H90       1.0  0.44815  0.038299999999999994  0.12378999999999998  1.0000
  H   H91       1.0  0.26745  0.23327  0.6342799999999998  1.0000
  H   H92       1.0  0.7648499999999999  0.03134  0.63998  1.0000
  H   H93       1.0  0.9720399999999998  0.735  0.65968  1.0000
  H   H94       1.0  0.93446  0.57384  0.98219  1.0000
  H   H95       1.0  0.43079999999999996  0.3669699999999999  0.9689699999999999  1.0000
  H   H96       1.0  0.6339599999999999  0.06265  0.9715799999999999  1.0000
  H   H97       1.0  0.60508  0.9091999999999998  0.30867  1.0000
  H   H98       1.0  0.08990999999999988  0.6956599999999997  0.3185  1.0000
  H   H99       1.0  0.30536  0.3961699999999999  0.3075899999999999  1.0000
  H   H100      1.0  0.73075  0.7592699999999999  0.36011  1.0000
  H   H101      1.0  0.23496999999999996  0.97327  0.35669  1.0000
  H   H102      1.0  0.025209999999999996  0.26869  0.35101  1.0000
  H   H103      1.0  0.39987  0.09735999999999999  0.68603  1.0000
  H   H104      1.0  0.9022700000000001  0.30042  0.69379  1.0000
  H   H105      1.0  0.69405  0.6010699999999999  0.69794  1.0000
  H   H106      1.0  0.06428999999999996  0.4247199999999999  0.01863  1.0000
  H   H107      1.0  0.57244  0.63927  0.02438999999999999  1.0000
  H   H108      1.0  0.3626399999999999  0.93117  0.02582  1.0000
  H   H109      1.0  0.32067999999999997  0.30452999999999997  0.69474  1.0000
  H   H110      1.0  0.69418  0.014469999999999997  0.70399  1.0000
  H   H111      1.0  0.98741  0.6802  0.72537  1.0000
  H   H112      1.0  0.9879700000000001  0.64285  0.06258  1.0000
  H   H113      1.0  0.36056999999999995  0.34977  0.04053  1.0000
  H   H114      1.0  0.65089  0.00962  0.04565  1.0000
  H   H115      1.0  0.65939  0.9781699999999998  0.38597  1.0000
  H   H116      1.0  0.02082000000000001  0.68017  0.39776  1.0000
  H   H117      1.0  0.31941  0.34096999999999994  0.3796  1.0000
  H   H118      1.0  0.6762699999999999  0.6901699999999997  0.28425  1.0000
  H   H119      1.0  0.3050699999999999  0.9887199999999998  0.29164  1.0000
  H   H120      1.0  0.01050999999999998  0.3221399999999999  0.26524  1.0000
  H   H121      1.0  0.34442  0.02694  0.62552  1.0000
  H   H122      1.0  0.9721900000000001  0.31704  0.6202999999999997  1.0000
  H   H123      1.0  0.6791699999999998  0.6554499999999999  0.62158  1.0000
  H   H124      1.0  0.00916999999999992  0.3552399999999999  0.94818  1.0000
  H   H125      1.0  0.6419799999999998  0.6543299999999999  0.95226  1.0000
  H   H126      1.0  0.34762999999999994  0.98702  0.97229  1.0000
  C   C1        1.0  0.41414  0.22268999999999994  0.7250399999999998  1.0000
  C   C2        1.0  0.7771199999999999  0.19008999999999998  0.7281  1.0000
  C   C3        1.0  0.8123499999999999  0.5899699999999999  0.73549  1.0000
  C   C4        1.0  0.07467000000000003  0.55395  0.06704  1.0000
  C   C5        1.0  0.44654  0.5259  0.06557  1.0000
  C   C6        1.0  0.47546999999999984  0.9193799999999998  0.07074  1.0000
  C   C7        1.0  0.74505  0.88782  0.39257  1.0000
  C   C8        1.0  0.10834999999999992  0.8559399999999998  0.40577  1.0000
  C   C9        1.0  0.14359  0.25506  0.38282999999999995  1.0000
  C   C10       1.0  0.59121  0.78078  0.27375  1.0000
  C   C11       1.0  0.21901999999999994  0.8132899999999998  0.2786  1.0000
  C   C12       1.0  0.18637999999999993  0.4068299999999999  0.26148  1.0000
  C   C13       1.0  0.2551899999999999  0.11233999999999997  0.59265  1.0000
  C   C14       1.0  0.88712  0.14176999999999998  0.59563  1.0000
  C   C15       1.0  0.85433  0.7432899999999998  0.61185  1.0000
  C   C16       1.0  0.9220799999999998  0.44338999999999995  0.9462  1.0000
  C   C17       1.0  0.55581  0.4788799999999999  0.9362399999999997  1.0000
  C   C18       1.0  0.52202  0.07643999999999998  0.93909  1.0000
  C   C19       1.0  0.41614  0.19547999999999996  0.89853  1.0000
  C   C20       1.0  0.80531  0.2198  0.89933  1.0000
  C   C21       1.0  0.7814  0.5881899999999999  0.90453  1.0000
  C   C22       1.0  0.07653000000000001  0.5257  0.23798999999999995  1.0000
  C   C23       1.0  0.47305  0.55454  0.23991999999999994  1.0000
  C   C24       1.0  0.4465599999999999  0.9180399999999997  0.24421  1.0000
  C   C25       1.0  0.74659  0.8595799999999998  0.56421  1.0000
  C   C26       1.0  0.13585999999999987  0.8857899999999997  0.57721  1.0000
  C   C27       1.0  0.11277  0.25269  0.55289  1.0000
  C   C28       1.0  0.5896199999999998  0.8085999999999998  0.10131  1.0000
  C   C29       1.0  0.19111999999999998  0.7828299999999999  0.10815  1.0000
  C   C30       1.0  0.2164099999999999  0.4080699999999999  0.09086999999999999  1.0000
  C   C31       1.0  0.25459  0.14018999999999998  0.41906  1.0000
  C   C32       1.0  0.85873  0.11282  0.42406  1.0000
  C   C33       1.0  0.88439  0.74594  0.43982  1.0000
  C   C34       1.0  0.9203599999999998  0.4726199999999999  0.77747  1.0000
  C   C35       1.0  0.5270099999999999  0.4489799999999999  0.76594  1.0000
  C   C36       1.0  0.55153  0.07832999999999998  0.7664299999999998  1.0000
  C   C37       1.0  0.46063999999999994  0.18239999999999995  0.9197699999999999  1.0000
  C   C38       1.0  0.81875  0.2776699999999999  0.91928  1.0000
  C   C39       1.0  0.72357  0.54365  0.9207299999999999  1.0000
  C   C40       1.0  0.12018999999999994  0.5112099999999999  0.25316  1.0000
  C   C41       1.0  0.4864699999999999  0.61236  0.26167  1.0000
  C   C42       1.0  0.3891299999999999  0.8733599999999999  0.2686  1.0000
  C   C43       1.0  0.79039  0.84539  0.5821299999999999  1.0000
  C   C44       1.0  0.14815  0.9433  0.59698  1.0000
  C   C45       1.0  0.05421999999999999  0.20969999999999997  0.5656  1.0000
  C   C46       1.0  0.54561  0.8224799999999999  0.08252  1.0000
  C   C47       1.0  0.17637  0.72439  0.09433999999999998  1.0000
  C   C48       1.0  0.2746099999999999  0.45168999999999987  0.07295999999999997  1.0000
  C   C49       1.0  0.20877  0.15089999999999998  0.39008  1.0000
  C   C50       1.0  0.84732  0.05578999999999999  0.39774  1.0000
  C   C51       1.0  0.94183  0.7911299999999999  0.42037  1.0000
  C   C52       1.0  0.8763099999999999  0.48657999999999996  0.7627899999999999  1.0000
  C   C53       1.0  0.5146099999999999  0.39145999999999986  0.7447399999999998  1.0000
  C   C54       1.0  0.60918  0.12298  0.74546  1.0000
  C   C55       1.0  0.50128  0.19536999999999993  0.7767599999999998  1.0000
  C   C56       1.0  0.8058  0.30536  0.77665  1.0000
  C   C57       1.0  0.69735  0.50311  0.7769299999999998  1.0000
  C   C58       1.0  0.15961  0.52329  0.10653  1.0000
  C   C59       1.0  0.47498  0.64091  0.11819  1.0000
  C   C60       1.0  0.3612599999999999  0.8319299999999997  0.1287  1.0000
  C   C61       1.0  0.8302399999999999  0.8575099999999999  0.43704  1.0000
  C   C62       1.0  0.13488999999999995  0.9704699999999999  0.45339  1.0000
  C   C63       1.0  0.027049999999999987  0.17125  0.41724  1.0000
  C   C64       1.0  0.5059599999999997  0.81073  0.22800999999999996  1.0000
  C   C65       1.0  0.18804999999999997  0.69705  0.24149  1.0000
  C   C66       1.0  0.30225  0.49137999999999993  0.21787  1.0000
  C   C67       1.0  0.16664  0.13685  0.52859  1.0000
  C   C68       1.0  0.86194  0.028199999999999992  0.53608  1.0000
  C   C69       1.0  0.9686299999999998  0.8313599999999999  0.56446  1.0000
  C   C70       1.0  0.8360499999999998  0.47277  0.90783  1.0000
  C   C71       1.0  0.52874  0.36424  0.88578  1.0000
  C   C72       1.0  0.6368  0.16326  0.8888699999999998  1.0000
  C   C73       1.0  0.49876  0.22077999999999995  0.60497  1.0000
  C   C74       1.0  0.77985  0.27704999999999996  0.60646  1.0000
  C   C75       1.0  0.72701  0.50577  0.60899  1.0000
  C   C76       1.0  0.15689  0.54949  0.93688  1.0000
  C   C77       1.0  0.45093  0.61373  0.94471  1.0000
  C   C78       1.0  0.38887999999999995  0.8338899999999999  0.95658  1.0000
  C   C79       1.0  0.82763  0.8832199999999998  0.26608  1.0000
  C   C80       1.0  0.10991999999999995  0.9420799999999999  0.28234  1.0000
  C   C81       1.0  0.05650999999999996  0.17462999999999995  0.24806  1.0000
  C   C82       1.0  0.5089999999999999  0.7859199999999997  0.40034  1.0000
  C   C83       1.0  0.21374  0.7261699999999999  0.41089999999999993  1.0000
  C   C84       1.0  0.27368000000000003  0.4888199999999999  0.38837  1.0000
  C   C85       1.0  0.16883  0.11248999999999999  0.70311  1.0000
  C   C86       1.0  0.88748  0.05559  0.70784  1.0000
  C   C87       1.0  0.94001  0.8276999999999999  0.7358799999999998  1.0000
  C   C88       1.0  0.8385599999999999  0.4456399999999999  0.07552  1.0000
  C   C89       1.0  0.55482  0.39259  0.0558  1.0000
  C   C90       1.0  0.60872  0.16027  0.06091  1.0000
  C   C91       1.0  0.4552399999999999  0.23361  0.58042  1.0000
  C   C92       1.0  0.7660499999999999  0.22019999999999998  0.58384  1.0000
  C   C93       1.0  0.78371  0.54913  0.58949  1.0000
  C   C94       1.0  0.11449999999999995  0.5641399999999999  0.9185599999999999  1.0000
  C   C95       1.0  0.43732  0.55701  0.92001  1.0000
  C   C96       1.0  0.44514999999999993  0.8775299999999999  0.92889  1.0000
  C   C97       1.0  0.7851499999999999  0.8976799999999999  0.24531  1.0000
  C   C98       1.0  0.09726999999999997  0.88558  0.25988  1.0000
  C   C99       1.0  0.11399999999999999  0.21630999999999997  0.23252  1.0000
  C   C100      1.0  0.5514399999999999  0.7714599999999999  0.42154  1.0000
  C   C101      1.0  0.22854999999999992  0.7834599999999998  0.42784  1.0000
  C   C102      1.0  0.21649999999999997  0.44671999999999995  0.40859  1.0000
  C   C103      1.0  0.21273999999999998  0.10050999999999999  0.73322  1.0000
  C   C104      1.0  0.89951  0.11168999999999997  0.73613  1.0000
  C   C105      1.0  0.8836499999999999  0.7837699999999999  0.75817  1.0000
  C   C106      1.0  0.8815  0.43169999999999986  0.09342  1.0000
  C   C107      1.0  0.56776  0.44914  0.07947999999999998  1.0000
  C   C108      1.0  0.5521099999999999  0.11704999999999997  0.08443  1.0000
  C   C109      1.0  0.37298  0.24062  0.6832199999999998  1.0000
  C   C110      1.0  0.75842  0.13059999999999997  0.68804  1.0000
  C   C111      1.0  0.8719899999999998  0.6305299999999999  0.7001399999999999  1.0000
  C   C112      1.0  0.03490000000000003  0.57392  0.03182  1.0000
  C   C113      1.0  0.42753  0.46643  0.02425  1.0000
  C   C114      1.0  0.5347099999999999  0.9601099999999999  0.028319999999999998  1.0000
  C   C115      1.0  0.7058099999999999  0.9084699999999999  0.35582  1.0000
  C   C116      1.0  0.08934999999999987  0.7962899999999998  0.3691999999999999  1.0000
  C   C117      1.0  0.20373  0.29433  0.34926  1.0000
  C   C118      1.0  0.63038  0.7601499999999999  0.31075  1.0000
  C   C119      1.0  0.2388699999999999  0.8732499999999997  0.31327  1.0000
  C   C120      1.0  0.12637999999999994  0.36775999999999986  0.2972  1.0000
  C   C121      1.0  0.29575999999999997  0.09377999999999997  0.63622  1.0000
  C   C122      1.0  0.9056299999999999  0.20104999999999995  0.6372299999999999  1.0000
  C   C123      1.0  0.7947399999999998  0.7027299999999997  0.64892  1.0000
  C   C124      1.0  0.962  0.42341999999999996  0.97958  1.0000
  C   C125      1.0  0.57506  0.53848  0.97524  1.0000
  C   C126      1.0  0.46259  0.036039999999999996  0.97915  1.0000
  C   C127      1.0  0.29663999999999996  0.26006999999999997  0.74811  1.0000
  C   C128      1.0  0.73861  0.03455  0.75484  1.0000
  C   C129      1.0  0.96742  0.7049599999999999  0.7744999999999997  1.0000
  C   C130      1.0  0.96212  0.59729  0.10343999999999998  1.0000
  C   C131      1.0  0.40541  0.36972  0.08769  1.0000
  C   C132      1.0  0.63093  0.03477999999999999  0.09142  1.0000
  C   C133      1.0  0.6333799999999998  0.9327599999999998  0.42857  1.0000
  C   C134      1.0  0.0660999999999999  0.6997599999999999  0.43957  1.0000
  C   C135      1.0  0.30005  0.36672  0.42512999999999995  1.0000
  C   C136      1.0  0.7024199999999999  0.7354599999999998  0.24056  1.0000
  C   C137      1.0  0.2606399999999999  0.96934  0.24130999999999997  1.0000
  C   C138      1.0  0.029869999999999994  0.29583  0.22709  1.0000
  C   C139      1.0  0.37004  0.07130999999999998  0.57231  1.0000
  C   C140      1.0  0.9272899999999998  0.2974399999999999  0.57446  1.0000
  C   C141      1.0  0.6985499999999999  0.6295899999999999  0.57824  1.0000
  C   C142      1.0  0.034890000000000004  0.40032  0.90204  1.0000
  C   C143      1.0  0.5971  0.63493  0.90646  1.0000
  C   C144      1.0  0.36623  0.96186  0.91462  1.0000
  C   C145      1.0  0.26089  0.2582999999999999  0.91966  1.0000
  C   C146      1.0  0.7406899999999998  0.0008099999999999997  0.9264  1.0000
  C   C147      1.0  0.9996800000000001  0.74004  0.94793  1.0000
  C   C148      1.0  0.92387  0.5922099999999999  0.27099  1.0000
  C   C149      1.0  0.40918  0.3355  0.25443  1.0000
  C   C150      1.0  0.66489  0.07284  0.25793  1.0000
  C   C151      1.0  0.59612  0.9283499999999999  0.5989  1.0000
  C   C152      1.0  0.07054999999999993  0.66636  0.60762  1.0000
  C   C153      1.0  0.33231  0.40259  0.59773  1.0000
  C   C154      1.0  0.7397099999999999  0.7391599999999998  0.07189  1.0000
  C   C155      1.0  0.25865  0.0027599999999999994  0.0687  1.0000
  C   C156      1.0  0.99667  0.25689  0.06154  1.0000
  C   C157      1.0  0.40538  0.07198999999999998  0.40103  1.0000
  C   C158      1.0  0.92407  0.33207  0.40831  1.0000
  C   C159      1.0  0.66556  0.59268  0.40871  1.0000
  C   C160      1.0  0.07033999999999997  0.40331  0.7282599999999999  1.0000
  C   C161      1.0  0.5941200000000002  0.66844  0.736  1.0000
  C   C162      1.0  0.33179999999999993  0.9273599999999999  0.74285  1.0000
  N   N1        1.0  0.33577  0.23977999999999997  0.8029599999999998  1.0000
  N   N2        1.0  0.75976  0.09441999999999998  0.8075  1.0000
  N   N3        1.0  0.9072599999999998  0.6668699999999999  0.82323  1.0000
  N   N4        1.0  0.99915  0.57428  0.15522999999999998  1.0000
  N   N5        1.0  0.42702  0.4294199999999999  0.14424  1.0000
  N   N6        1.0  0.57133  0.99675  0.14793999999999996  1.0000
  N   N7        1.0  0.67016  0.9092299999999999  0.47882  1.0000
  N   N8        1.0  0.08893999999999991  0.7599499999999999  0.49181  1.0000
  N   N9        1.0  0.23957999999999996  0.32949999999999996  0.47361  1.0000
  N   N10       1.0  0.66593  0.7590599999999998  0.1881  1.0000
  N   N11       1.0  0.2382299999999999  0.9090999999999998  0.19083  1.0000
  N   N12       1.0  0.09006000000000004  0.33224  0.17446  1.0000
  N   N13       1.0  0.33295  0.09411  0.51752  1.0000
  N   N14       1.0  0.90533  0.23778999999999995  0.51798  1.0000
  N   N15       1.0  0.75871  0.66685  0.5264  1.0000
  N   N16       1.0  0.9977799999999999  0.42365  0.85508  1.0000
  N   N17       1.0  0.5742899999999999  0.5747399999999999  0.85489  1.0000
  N   N18       1.0  0.4261  0.99942  0.85913  1.0000
  O   O1        1.0  0.37718  0.18173  0.03683  1.0000
  O   O2        1.0  0.8199  0.19488  0.03608999999999999  1.0000
  O   O3        1.0  0.8051799999999999  0.62754  0.04213  1.0000
  O   O4        1.0  0.03829000000000001  0.51248  0.37886  1.0000
  O   O5        1.0  0.48551  0.52856  0.37912  1.0000
  O   O6        1.0  0.4718799999999999  0.9577399999999998  0.37985  1.0000
  O   O7        1.0  0.70777  0.84561  0.70337  1.0000
  O   O8        1.0  0.15047  0.8611099999999999  0.7145499999999999  1.0000
  O   O9        1.0  0.1373  0.28995  0.6957  1.0000
  O   O10       1.0  0.62847  0.8220899999999999  0.9625399999999997  1.0000
  O   O11       1.0  0.17847999999999992  0.80758  0.96553  1.0000
  O   O12       1.0  0.19133999999999998  0.3691799999999999  0.9527399999999998  1.0000
  O   O13       1.0  0.29637  0.15707  0.28899  1.0000
  O   O14       1.0  0.84215  0.13800999999999997  0.29459  1.0000
  O   O15       1.0  0.85976  0.7071  0.30136  1.0000
  O   O16       1.0  0.95938  0.48757  0.6384399999999998  1.0000
  O   O17       1.0  0.5107299999999999  0.47326999999999997  0.6320099999999997  1.0000
  O   O18       1.0  0.52657  0.0391  0.62921  1.0000
  O   O19       1.0  0.2697  0.23975  0.07849  1.0000
  O   O20       1.0  0.7617  0.029079999999999995  0.08225  1.0000
  O   O21       1.0  0.9701599999999998  0.7346199999999998  0.09967  1.0000
  O   O22       1.0  0.92794  0.56767  0.42397  1.0000
  O   O23       1.0  0.43258999999999986  0.3633099999999999  0.40896  1.0000
  O   O24       1.0  0.63736  0.06723  0.41513  1.0000
  O   O25       1.0  0.60127  0.90439  0.75112  1.0000
  O   O26       1.0  0.09508  0.6951299999999999  0.75971  1.0000
  O   O27       1.0  0.30275999999999986  0.39532999999999996  0.75092  1.0000
  O   O28       1.0  0.73507  0.76267  0.9174299999999999  1.0000
  O   O29       1.0  0.23439999999999991  0.9736  0.9170799999999999  1.0000
  O   O30       1.0  0.02523  0.26051  0.90877  1.0000
  O   O31       1.0  0.4008999999999999  0.09547  0.24616999999999997  1.0000
  O   O32       1.0  0.9024  0.30493  0.25086  1.0000
  O   O33       1.0  0.6947399999999998  0.5974099999999999  0.25656  1.0000
  O   O34       1.0  0.06488999999999996  0.42747999999999997  0.57689  1.0000
  O   O35       1.0  0.56994  0.63966  0.58371  1.0000
  O   O36       1.0  0.36037  0.93043  0.59086  1.0000
  O   O37       1.0  0.22473999999999994  0.27465999999999996  0.90678  1.0000
  O   O38       1.0  0.72249  0.94776  0.91609  1.0000
  O   O39       1.0  0.05313  0.7727099999999999  0.94236  1.0000
  O   O40       1.0  0.8902599999999998  0.6117499999999999  0.25954  1.0000
  O   O41       1.0  0.3901299999999999  0.28236  0.24106  1.0000
  O   O42       1.0  0.7176199999999999  0.10770999999999999  0.24163  1.0000
  O   O43       1.0  0.5621999999999999  0.9476299999999999  0.59179  1.0000
  O   O44       1.0  0.050469999999999994  0.6129599999999998  0.59763  1.0000
  O   O45       1.0  0.38534  0.43735  0.59082  1.0000
  O   O46       1.0  0.77323  0.71952  0.08353  1.0000
  O   O47       1.0  0.27987  0.056399999999999985  0.07497  1.0000
  O   O48       1.0  0.94347  0.22325  0.07408  1.0000
  O   O49       1.0  0.43723  0.05031999999999998  0.41098999999999997  1.0000
  O   O50       1.0  0.94231  0.38497  0.42495  1.0000
  O   O51       1.0  0.61224  0.55968  0.4169699999999999  1.0000
  O   O52       1.0  0.10293  0.38240999999999997  0.73258  1.0000
  O   O53       1.0  0.61476  0.7219599999999999  0.7438699999999998  1.0000
  O   O54       1.0  0.2780999999999999  0.8971199999999999  0.74981  1.0000
