data_image0
_chemical_formula_structural       Ba16H96C80N16O64
_chemical_formula_sum              "Ba16 H96 C80 N16 O64"
_cell_length_a       8.9813
_cell_length_b       19.7126
_cell_length_c       19.7126
_cell_angle_alpha    90.0
_cell_angle_beta     90.0
_cell_angle_gamma    90.0

_symmetry_space_group_name_H-M    'P 1'
_symmetry_Int_Tables_number       1

loop_
  _symmetry_equiv_pos_as_xyz
  'x,y,z'

loop_
  _atom_site_type_symbol
  _atom_site_label
  _atom_site_symmetry_multiplicity
  _atom_site_fract_x
  _atom_site_fract_y
  _atom_site_fract_z
  _atom_site_occupancy
  Ba  Ba1       1.0  0.7725600000000001  0.8171300000000001  0.64536  1.0000
  Ba  Ba2       1.0  0.7663000000000001  0.69162  0.8664700000000002  1.0000
  Ba  Ba3       1.0  0.7725600000000001  0.18287000000000003  0.35464  1.0000
  Ba  Ba4       1.0  0.7663000000000001  0.30838  0.13353  1.0000
  Ba  Ba5       1.0  0.7725600000000001  0.35464  0.8171300000000001  1.0000
  Ba  Ba6       1.0  0.7663000000000001  0.13353  0.69162  1.0000
  Ba  Ba7       1.0  0.7725600000000001  0.64536  0.18287000000000003  1.0000
  Ba  Ba8       1.0  0.7663000000000001  0.8664700000000002  0.30838  1.0000
  Ba  Ba9       1.0  0.27256  0.3171300000000001  0.85464  1.0000
  Ba  Ba10      1.0  0.2663  0.19162000000000007  0.63353  1.0000
  Ba  Ba11      1.0  0.27256  0.6828700000000001  0.14536  1.0000
  Ba  Ba12      1.0  0.2663  0.8083800000000002  0.36647  1.0000
  Ba  Ba13      1.0  0.27256  0.85464  0.6828700000000001  1.0000
  Ba  Ba14      1.0  0.2663  0.63353  0.8083800000000002  1.0000
  Ba  Ba15      1.0  0.27256  0.14536  0.3171300000000001  1.0000
  Ba  Ba16      1.0  0.2663  0.36647  0.19162000000000007  1.0000
  H   H1        1.0  0.667  0.887  0.0010000000000000002  1.0000
  H   H2        1.0  0.757  0.8260000000000001  0.016000000000000004  1.0000
  H   H3        1.0  0.478  0.7970000000000002  0.027  1.0000
  H   H4        1.0  0.448  0.7420000000000001  0.9680000000000001  1.0000
  H   H5        1.0  0.445  0.8670000000000001  0.9170000000000001  1.0000
  H   H6        1.0  0.572  0.871  0.875  1.0000
  H   H7        1.0  0.899  0.9  0.9660000000000001  1.0000
  H   H8        1.0  0.824  0.8900000000000001  0.8990000000000002  1.0000
  H   H9        1.0  0.102  0.7970000000000002  0.846  1.0000
  H   H10       1.0  0.066  0.87  0.8630000000000001  1.0000
  H   H11       1.0  0.002  0.795  0.017  1.0000
  H   H12       1.0  0.118  0.823  0.978  1.0000
  H   H13       1.0  0.667  0.113  0.9990000000000001  1.0000
  H   H14       1.0  0.757  0.174  0.984  1.0000
  H   H15       1.0  0.478  0.20300000000000004  0.973  1.0000
  H   H16       1.0  0.448  0.258  0.03200000000000001  1.0000
  H   H17       1.0  0.445  0.133  0.083  1.0000
  H   H18       1.0  0.572  0.129  0.125  1.0000
  H   H19       1.0  0.899  0.10000000000000002  0.034  1.0000
  H   H20       1.0  0.824  0.11000000000000001  0.101  1.0000
  H   H21       1.0  0.102  0.20300000000000004  0.15400000000000003  1.0000
  H   H22       1.0  0.066  0.13  0.137  1.0000
  H   H23       1.0  0.002  0.20500000000000002  0.9830000000000001  1.0000
  H   H24       1.0  0.118  0.177  0.022  1.0000
  H   H25       1.0  0.667  0.9990000000000001  0.887  1.0000
  H   H26       1.0  0.757  0.984  0.8260000000000001  1.0000
  H   H27       1.0  0.478  0.973  0.7970000000000002  1.0000
  H   H28       1.0  0.448  0.03200000000000001  0.7420000000000001  1.0000
  H   H29       1.0  0.445  0.083  0.8670000000000001  1.0000
  H   H30       1.0  0.572  0.125  0.871  1.0000
  H   H31       1.0  0.899  0.034  0.9  1.0000
  H   H32       1.0  0.824  0.101  0.8900000000000001  1.0000
  H   H33       1.0  0.102  0.15400000000000003  0.7970000000000002  1.0000
  H   H34       1.0  0.066  0.137  0.87  1.0000
  H   H35       1.0  0.002  0.9830000000000001  0.795  1.0000
  H   H36       1.0  0.118  0.022  0.823  1.0000
  H   H37       1.0  0.667  0.0010000000000000002  0.113  1.0000
  H   H38       1.0  0.757  0.016000000000000004  0.174  1.0000
  H   H39       1.0  0.478  0.027  0.20300000000000004  1.0000
  H   H40       1.0  0.448  0.9680000000000001  0.258  1.0000
  H   H41       1.0  0.445  0.9170000000000001  0.133  1.0000
  H   H42       1.0  0.572  0.875  0.129  1.0000
  H   H43       1.0  0.899  0.9660000000000001  0.10000000000000002  1.0000
  H   H44       1.0  0.824  0.8990000000000002  0.11000000000000001  1.0000
  H   H45       1.0  0.102  0.846  0.20300000000000004  1.0000
  H   H46       1.0  0.066  0.8630000000000001  0.13  1.0000
  H   H47       1.0  0.002  0.017  0.20500000000000002  1.0000
  H   H48       1.0  0.118  0.978  0.177  1.0000
  H   H49       1.0  0.167  0.38700000000000007  0.499  1.0000
  H   H50       1.0  0.257  0.326  0.48400000000000004  1.0000
  H   H51       1.0  0.9780000000000001  0.297  0.473  1.0000
  H   H52       1.0  0.9480000000000001  0.24200000000000002  0.532  1.0000
  H   H53       1.0  0.945  0.367  0.583  1.0000
  H   H54       1.0  0.072  0.37100000000000005  0.625  1.0000
  H   H55       1.0  0.3990000000000001  0.4000000000000001  0.534  1.0000
  H   H56       1.0  0.324  0.39  0.601  1.0000
  H   H57       1.0  0.602  0.297  0.654  1.0000
  H   H58       1.0  0.566  0.37  0.637  1.0000
  H   H59       1.0  0.502  0.29500000000000004  0.48300000000000004  1.0000
  H   H60       1.0  0.618  0.323  0.522  1.0000
  H   H61       1.0  0.167  0.6130000000000001  0.501  1.0000
  H   H62       1.0  0.257  0.674  0.516  1.0000
  H   H63       1.0  0.9780000000000001  0.703  0.527  1.0000
  H   H64       1.0  0.9480000000000001  0.758  0.4680000000000001  1.0000
  H   H65       1.0  0.945  0.633  0.41700000000000004  1.0000
  H   H66       1.0  0.072  0.629  0.3750000000000001  1.0000
  H   H67       1.0  0.3990000000000001  0.6  0.4660000000000001  1.0000
  H   H68       1.0  0.324  0.61  0.3990000000000001  1.0000
  H   H69       1.0  0.602  0.703  0.34600000000000003  1.0000
  H   H70       1.0  0.566  0.63  0.363  1.0000
  H   H71       1.0  0.502  0.705  0.517  1.0000
  H   H72       1.0  0.618  0.677  0.47800000000000004  1.0000
  H   H73       1.0  0.167  0.499  0.6130000000000001  1.0000
  H   H74       1.0  0.257  0.48400000000000004  0.674  1.0000
  H   H75       1.0  0.9780000000000001  0.473  0.703  1.0000
  H   H76       1.0  0.9480000000000001  0.532  0.758  1.0000
  H   H77       1.0  0.945  0.583  0.633  1.0000
  H   H78       1.0  0.072  0.625  0.629  1.0000
  H   H79       1.0  0.3990000000000001  0.534  0.6  1.0000
  H   H80       1.0  0.324  0.601  0.61  1.0000
  H   H81       1.0  0.602  0.654  0.703  1.0000
  H   H82       1.0  0.566  0.637  0.63  1.0000
  H   H83       1.0  0.502  0.48300000000000004  0.705  1.0000
  H   H84       1.0  0.618  0.522  0.677  1.0000
  H   H85       1.0  0.167  0.501  0.38700000000000007  1.0000
  H   H86       1.0  0.257  0.516  0.326  1.0000
  H   H87       1.0  0.9780000000000001  0.527  0.297  1.0000
  H   H88       1.0  0.9480000000000001  0.4680000000000001  0.24200000000000002  1.0000
  H   H89       1.0  0.945  0.41700000000000004  0.367  1.0000
  H   H90       1.0  0.072  0.3750000000000001  0.37100000000000005  1.0000
  H   H91       1.0  0.3990000000000001  0.4660000000000001  0.4000000000000001  1.0000
  H   H92       1.0  0.324  0.3990000000000001  0.39  1.0000
  H   H93       1.0  0.602  0.34600000000000003  0.297  1.0000
  H   H94       1.0  0.566  0.363  0.37  1.0000
  H   H95       1.0  0.502  0.517  0.29500000000000004  1.0000
  H   H96       1.0  0.618  0.47800000000000004  0.323  1.0000
  C   C1        1.0  0.7136  0.8458  0.9818  1.0000
  C   C2        1.0  0.5186  0.7643000000000002  0.9939000000000001  1.0000
  C   C3        1.0  0.6044  0.7097  0.032100000000000004  1.0000
  C   C4        1.0  0.5201  0.8383000000000003  0.8967  1.0000
  C   C5        1.0  0.4429  0.7945000000000001  0.8443000000000002  1.0000
  C   C6        1.0  0.8467  0.8663000000000001  0.9401  1.0000
  C   C7        1.0  0.0256  0.8285  0.8581000000000001  1.0000
  C   C8        1.0  0.9331  0.8301  0.793  1.0000
  C   C9        1.0  0.0373  0.7868000000000002  0.9736  1.0000
  C   C10       1.0  0.1045  0.7157  0.9646000000000001  1.0000
  C   C11       1.0  0.7136  0.1542  0.018200000000000004  1.0000
  C   C12       1.0  0.5186  0.2357  0.0061  1.0000
  C   C13       1.0  0.6044  0.2903  0.9679  1.0000
  C   C14       1.0  0.5201  0.1617  0.10330000000000002  1.0000
  C   C15       1.0  0.4429  0.20550000000000002  0.1557  1.0000
  C   C16       1.0  0.8467  0.1337  0.05990000000000001  1.0000
  C   C17       1.0  0.0256  0.1715  0.14190000000000003  1.0000
  C   C18       1.0  0.9331  0.1699  0.20700000000000002  1.0000
  C   C19       1.0  0.0373  0.21320000000000003  0.026400000000000003  1.0000
  C   C20       1.0  0.1045  0.28430000000000005  0.0354  1.0000
  C   C21       1.0  0.7136  0.018200000000000004  0.8458  1.0000
  C   C22       1.0  0.5186  0.0061  0.7643000000000002  1.0000
  C   C23       1.0  0.6044  0.9679  0.7097  1.0000
  C   C24       1.0  0.5201  0.10330000000000002  0.8383000000000003  1.0000
  C   C25       1.0  0.4429  0.1557  0.7945000000000001  1.0000
  C   C26       1.0  0.8467  0.05990000000000001  0.8663000000000001  1.0000
  C   C27       1.0  0.0256  0.14190000000000003  0.8285  1.0000
  C   C28       1.0  0.9331  0.20700000000000002  0.8301  1.0000
  C   C29       1.0  0.0373  0.026400000000000003  0.7868000000000002  1.0000
  C   C30       1.0  0.1045  0.0354  0.7157  1.0000
  C   C31       1.0  0.7136  0.9818  0.1542  1.0000
  C   C32       1.0  0.5186  0.9939000000000001  0.2357  1.0000
  C   C33       1.0  0.6044  0.032100000000000004  0.2903  1.0000
  C   C34       1.0  0.5201  0.8967  0.1617  1.0000
  C   C35       1.0  0.4429  0.8443000000000002  0.20550000000000002  1.0000
  C   C36       1.0  0.8467  0.9401  0.1337  1.0000
  C   C37       1.0  0.0256  0.8581000000000001  0.1715  1.0000
  C   C38       1.0  0.9331  0.793  0.1699  1.0000
  C   C39       1.0  0.0373  0.9736  0.21320000000000003  1.0000
  C   C40       1.0  0.1045  0.9646000000000001  0.28430000000000005  1.0000
  C   C41       1.0  0.2136  0.3458  0.5182  1.0000
  C   C42       1.0  0.0186  0.2643  0.5061  1.0000
  C   C43       1.0  0.1044  0.20970000000000003  0.4679  1.0000
  C   C44       1.0  0.0201  0.3383  0.6033000000000001  1.0000
  C   C45       1.0  0.9429  0.29450000000000004  0.6557  1.0000
  C   C46       1.0  0.3467  0.3663  0.5599  1.0000
  C   C47       1.0  0.5256  0.3285  0.6419  1.0000
  C   C48       1.0  0.4331  0.3301  0.707  1.0000
  C   C49       1.0  0.5373  0.2868  0.5264  1.0000
  C   C50       1.0  0.6045  0.2157  0.5354  1.0000
  C   C51       1.0  0.2136  0.6542000000000001  0.4818  1.0000
  C   C52       1.0  0.0186  0.7357  0.4939  1.0000
  C   C53       1.0  0.1044  0.7903000000000002  0.5321  1.0000
  C   C54       1.0  0.0201  0.6617  0.39670000000000005  1.0000
  C   C55       1.0  0.9429  0.7055  0.3443  1.0000
  C   C56       1.0  0.3467  0.6337  0.4401  1.0000
  C   C57       1.0  0.5256  0.6715  0.3581  1.0000
  C   C58       1.0  0.4331  0.6699  0.29300000000000004  1.0000
  C   C59       1.0  0.5373  0.7132  0.4736  1.0000
  C   C60       1.0  0.6045  0.7843000000000001  0.46460000000000007  1.0000
  C   C61       1.0  0.2136  0.5182  0.6542000000000001  1.0000
  C   C62       1.0  0.0186  0.5061  0.7357  1.0000
  C   C63       1.0  0.1044  0.4679  0.7903000000000002  1.0000
  C   C64       1.0  0.0201  0.6033000000000001  0.6617  1.0000
  C   C65       1.0  0.9429  0.6557  0.7055  1.0000
  C   C66       1.0  0.3467  0.5599  0.6337  1.0000
  C   C67       1.0  0.5256  0.6419  0.6715  1.0000
  C   C68       1.0  0.4331  0.707  0.6699  1.0000
  C   C69       1.0  0.5373  0.5264  0.7132  1.0000
  C   C70       1.0  0.6045  0.5354  0.7843000000000001  1.0000
  C   C71       1.0  0.2136  0.4818  0.3458  1.0000
  C   C72       1.0  0.0186  0.4939  0.2643  1.0000
  C   C73       1.0  0.1044  0.5321  0.20970000000000003  1.0000
  C   C74       1.0  0.0201  0.39670000000000005  0.3383  1.0000
  C   C75       1.0  0.9429  0.3443  0.29450000000000004  1.0000
  C   C76       1.0  0.3467  0.4401  0.3663  1.0000
  C   C77       1.0  0.5256  0.3581  0.3285  1.0000
  C   C78       1.0  0.4331  0.29300000000000004  0.3301  1.0000
  C   C79       1.0  0.5373  0.4736  0.2868  1.0000
  C   C80       1.0  0.6045  0.46460000000000007  0.2157  1.0000
  N   N1        1.0  0.6106  0.8005000000000002  0.9456000000000001  1.0000
  N   N2        1.0  0.9386  0.8092000000000001  0.9188000000000001  1.0000
  N   N3        1.0  0.6106  0.19950000000000004  0.0544  1.0000
  N   N4        1.0  0.9386  0.1908  0.0812  1.0000
  N   N5        1.0  0.6106  0.0544  0.8005000000000002  1.0000
  N   N6        1.0  0.9386  0.0812  0.8092000000000001  1.0000
  N   N7        1.0  0.6106  0.9456000000000001  0.19950000000000004  1.0000
  N   N8        1.0  0.9386  0.9188000000000001  0.1908  1.0000
  N   N9        1.0  0.11060000000000003  0.3005  0.5544  1.0000
  N   N10       1.0  0.4386  0.3092  0.5812  1.0000
  N   N11       1.0  0.11060000000000003  0.6995  0.4456  1.0000
  N   N12       1.0  0.4386  0.6908  0.4188  1.0000
  N   N13       1.0  0.11060000000000003  0.5544  0.6995  1.0000
  N   N14       1.0  0.4386  0.5812  0.6908  1.0000
  N   N15       1.0  0.11060000000000003  0.4456  0.3005  1.0000
  N   N16       1.0  0.4386  0.4188  0.3092  1.0000
  O   O1        1.0  0.7147  0.6844  0.0020000000000000005  1.0000
  O   O2        1.0  0.5597000000000001  0.6922  0.0889  1.0000
  O   O3        1.0  0.4765  0.7329  0.8400000000000001  1.0000
  O   O4        1.0  0.35  0.8243  0.8079  1.0000
  O   O5        1.0  0.8005  0.8105500000000001  0.79331  1.0000
  O   O6        1.0  0.9989  0.8518  0.7415100000000002  1.0000
  O   O7        1.0  0.1883  0.6956000000000001  0.010900000000000002  1.0000
  O   O8        1.0  0.0714  0.6837  0.9117000000000001  1.0000
  O   O9        1.0  0.7147  0.3156  0.998  1.0000
  O   O10       1.0  0.5597000000000001  0.3078  0.9111  1.0000
  O   O11       1.0  0.4765  0.2671  0.16000000000000003  1.0000
  O   O12       1.0  0.35  0.1757  0.19210000000000005  1.0000
  O   O13       1.0  0.8005  0.18945  0.20669  1.0000
  O   O14       1.0  0.9989  0.1482  0.25849  1.0000
  O   O15       1.0  0.1883  0.3044  0.9891  1.0000
  O   O16       1.0  0.0714  0.3163  0.0883  1.0000
  O   O17       1.0  0.7147  0.998  0.6844  1.0000
  O   O18       1.0  0.5597000000000001  0.9111  0.6922  1.0000
  O   O19       1.0  0.4765  0.16000000000000003  0.7329  1.0000
  O   O20       1.0  0.35  0.19210000000000005  0.8243  1.0000
  O   O21       1.0  0.8005  0.20669  0.8105500000000001  1.0000
  O   O22       1.0  0.9989  0.25849  0.8518  1.0000
  O   O23       1.0  0.1883  0.9891  0.6956000000000001  1.0000
  O   O24       1.0  0.0714  0.0883  0.6837  1.0000
  O   O25       1.0  0.7147  0.0020000000000000005  0.3156  1.0000
  O   O26       1.0  0.5597000000000001  0.0889  0.3078  1.0000
  O   O27       1.0  0.4765  0.8400000000000001  0.2671  1.0000
  O   O28       1.0  0.35  0.8079  0.1757  1.0000
  O   O29       1.0  0.8005  0.79331  0.18945  1.0000
  O   O30       1.0  0.9989  0.7415100000000002  0.1482  1.0000
  O   O31       1.0  0.1883  0.010900000000000002  0.3044  1.0000
  O   O32       1.0  0.0714  0.9117000000000001  0.3163  1.0000
  O   O33       1.0  0.2147  0.1844  0.498  1.0000
  O   O34       1.0  0.05970000000000001  0.1922  0.4111000000000001  1.0000
  O   O35       1.0  0.9765000000000001  0.23290000000000002  0.66  1.0000
  O   O36       1.0  0.85  0.3243  0.6921  1.0000
  O   O37       1.0  0.3005  0.31055000000000005  0.70669  1.0000
  O   O38       1.0  0.4989  0.3518  0.75849  1.0000
  O   O39       1.0  0.6883  0.1956  0.48910000000000003  1.0000
  O   O40       1.0  0.5714  0.18370000000000003  0.5883  1.0000
  O   O41       1.0  0.2147  0.8156000000000001  0.502  1.0000
  O   O42       1.0  0.05970000000000001  0.8078000000000001  0.5889  1.0000
  O   O43       1.0  0.9765000000000001  0.7671  0.34  1.0000
  O   O44       1.0  0.85  0.6757000000000001  0.3079  1.0000
  O   O45       1.0  0.3005  0.68945  0.29331  1.0000
  O   O46       1.0  0.4989  0.6482000000000001  0.24151  1.0000
  O   O47       1.0  0.6883  0.8044  0.5109  1.0000
  O   O48       1.0  0.5714  0.8163  0.4117  1.0000
  O   O49       1.0  0.2147  0.498  0.8156000000000001  1.0000
  O   O50       1.0  0.05970000000000001  0.4111000000000001  0.8078000000000001  1.0000
  O   O51       1.0  0.9765000000000001  0.66  0.7671  1.0000
  O   O52       1.0  0.85  0.6921  0.6757000000000001  1.0000
  O   O53       1.0  0.3005  0.70669  0.68945  1.0000
  O   O54       1.0  0.4989  0.75849  0.6482000000000001  1.0000
  O   O55       1.0  0.6883  0.48910000000000003  0.8044  1.0000
  O   O56       1.0  0.5714  0.5883  0.8163  1.0000
  O   O57       1.0  0.2147  0.502  0.1844  1.0000
  O   O58       1.0  0.05970000000000001  0.5889  0.1922  1.0000
  O   O59       1.0  0.9765000000000001  0.34  0.23290000000000002  1.0000
  O   O60       1.0  0.85  0.3079  0.3243  1.0000
  O   O61       1.0  0.3005  0.29331  0.31055000000000005  1.0000
  O   O62       1.0  0.4989  0.24151  0.3518  1.0000
  O   O63       1.0  0.6883  0.5109  0.1956  1.0000
  O   O64       1.0  0.5714  0.4117  0.18370000000000003  1.0000
