data_image0
_chemical_formula_structural       Fe2H24C24N48
_chemical_formula_sum              "Fe2 H24 C24 N48"
_cell_length_a       7.99364699
_cell_length_b       20.51059348
_cell_length_c       8.94941729
_cell_angle_alpha    90.00001339
_cell_angle_beta     90.71993735000001
_cell_angle_gamma    90.00000157

_space_group_name_H-M_alt    "P 1"
_space_group_IT_number       1

loop_
  _space_group_symop_operation_xyz
  'x, y, z'

loop_
  _atom_site_type_symbol
  _atom_site_label
  _atom_site_symmetry_multiplicity
  _atom_site_fract_x
  _atom_site_fract_y
  _atom_site_fract_z
  _atom_site_occupancy
  Fe  Fe1       1.0  0.0  1e-08  0.0  1.0000
  Fe  Fe2       1.0  0.4999999999999999  0.49999999  0.5  1.0000
  H   H1        1.0  0.05746633  0.85668727  0.8256226  1.0000
  H   H2        1.0  0.5358713899999997  0.82859128  0.86717803  1.0000
  H   H3        1.0  0.9805725799999998  0.65953601  0.6566398  1.0000
  H   H4        1.0  0.4605482999999999  0.63227852  0.71560519  1.0000
  H   H5        1.0  0.4293738599999999  0.9993982299999999  0.86976609  1.0000
  H   H6        1.0  0.17199648999999995  0.99555122  0.45017872999999997  1.0000
  H   H7        1.0  0.4425335999999999  0.35668724  0.67437738  1.0000
  H   H8        1.0  0.9641285599999998  0.32859129  0.6328219599999999  1.0000
  H   H9        1.0  0.5194273699999998  0.15953601  0.8433601999999999  1.0000
  H   H10       1.0  0.03945166  0.1322785  0.78439479  1.0000
  H   H11       1.0  0.07062605  0.49939823  0.63023382  1.0000
  H   H12       1.0  0.3280035699999999  0.49555119999999997  0.04982109  1.0000
  H   H13       1.0  0.9425336899999998  0.14331273  0.17437739  1.0000
  H   H14       1.0  0.4641285999999999  0.17140872  0.13282198  1.0000
  H   H15       1.0  0.019427429999999992  0.34046399  0.3433602  1.0000
  H   H16       1.0  0.53945169  0.36772148  0.28439482  1.0000
  H   H17       1.0  0.57062614  0.00060177  0.13023391999999998  1.0000
  H   H18       1.0  0.8280035199999998  0.00444878  0.54982127  1.0000
  H   H19       1.0  0.5574664099999997  0.64331276  0.3256226199999999  1.0000
  H   H20       1.0  0.03587143  0.67140871  0.36717803  1.0000
  H   H21       1.0  0.4805726499999999  0.84046398  0.15663981  1.0000
  H   H22       1.0  0.96054832  0.8677215000000001  0.21560522  1.0000
  H   H23       1.0  0.9293739499999998  0.50060177  0.36976618  1.0000
  H   H24       1.0  0.67199644  0.50444879  0.9501789200000001  1.0000
  C   C1        1.0  0.9273623399999997  0.86551932  0.8507076599999999  1.0000
  C   C2        1.0  0.65773747  0.8512408800000001  0.87265736  1.0000
  C   C3        1.0  0.8576043399999997  0.63766993  0.6533493799999999  1.0000
  C   C4        1.0  0.5890706499999998  0.6236728  0.6848603399999998  1.0000
  C   C5        1.0  0.32878414  0.9976391199999999  0.7874128  1.0000
  C   C6        1.0  0.19665961  0.9951674199999999  0.56957412  1.0000
  C   C7        1.0  0.57263769  0.36551931  0.6492921699999998  1.0000
  C   C8        1.0  0.8422624399999997  0.35124089  0.62734261  1.0000
  C   C9        1.0  0.6423956099999998  0.13766992  0.84665064  1.0000
  C   C10       1.0  0.91092933  0.12367277  0.81513958  1.0000
  C   C11       1.0  0.1712166899999999  0.4976391  0.7125870299999999  1.0000
  C   C12       1.0  0.30334289  0.49516737999999993  0.9304239999999999  1.0000
  C   C13       1.0  0.07263772  0.13448069  0.14929233999999997  1.0000
  C   C14       1.0  0.34226247999999987  0.14875912  0.12734264  1.0000
  C   C15       1.0  0.14239572  0.36233007  0.34665062  1.0000
  C   C16       1.0  0.41092928  0.37632718  0.31513967  1.0000
  C   C17       1.0  0.67121587  0.00236088  0.21258721  1.0000
  C   C18       1.0  0.80334039  0.00483258  0.43042587  1.0000
  C   C19       1.0  0.42736229999999986  0.63448069  0.35070784  1.0000
  C   C20       1.0  0.15773756999999994  0.6487591  0.3726573999999999  1.0000
  C   C21       1.0  0.3576043899999999  0.86233009  0.15334935  1.0000
  C   C22       1.0  0.08907067999999997  0.87632723  0.18486042  1.0000
  C   C23       1.0  0.8287833099999998  0.5023609  0.28741295  1.0000
  C   C24       1.0  0.6966571199999998  0.50483262  0.06957599  1.0000
  N   N1        1.0  0.8618608699999998  0.9191510899999998  0.90801455  1.0000
  N   N2        1.0  0.69236036  0.9105130499999999  0.92216086  1.0000
  N   N3        1.0  0.80296805  0.8209474600000001  0.8271775699999998  1.0000
  N   N4        1.0  0.8315450399999997  0.75981742  0.77100006  1.0000
  N   N5        1.0  0.6896454499999998  0.72760072  0.7697371  1.0000
  N   N6        1.0  0.7157732699999998  0.66720809  0.70907811  1.0000
  N   N7        1.0  0.6495157399999998  0.57153302  0.61710367  1.0000
  N   N8        1.0  0.8184109599999998  0.57995298  0.59723471  1.0000
  N   N9        1.0  0.16551981  0.99535783  0.81106137  1.0000
  N   N10       1.0  0.08262948999999999  0.99365606  0.6739529099999999  1.0000
  N   N11       1.0  0.3536932599999999  0.99780001  0.63579044  1.0000
  N   N12       1.0  0.50842498  0.00025803  0.5720163999999999  1.0000
  N   N13       1.0  0.6381388399999998  0.41915108  0.59198534  1.0000
  N   N14       1.0  0.80763955  0.41051296  0.57783914  1.0000
  N   N15       1.0  0.69703211  0.32094738  0.67282253  1.0000
  N   N16       1.0  0.6684553799999998  0.25981745  0.72899985  1.0000
  N   N17       1.0  0.8103544299999997  0.22760083999999997  0.7302628099999999  1.0000
  N   N18       1.0  0.78422684  0.16720794  0.79092212  1.0000
  N   N19       1.0  0.8504840699999998  0.07153302  0.88289618  1.0000
  N   N20       1.0  0.6815888999999998  0.07995294  0.90276526  1.0000
  N   N21       1.0  0.33447944  0.49535787  0.68893838  1.0000
  N   N22       1.0  0.4173675099999999  0.49365611  0.82604916  1.0000
  N   N23       1.0  0.14630603  0.49780004  0.8642092599999998  1.0000
  N   N24       1.0  0.99157771  0.50025801  0.9279896199999998  1.0000
  N   N25       1.0  0.13813912999999994  0.08084893  0.09198546  1.0000
  N   N26       1.0  0.3076396299999999  0.08948697  0.07783916  1.0000
  N   N27       1.0  0.19703194  0.17905254  0.17282243  1.0000
  N   N28       1.0  0.16845546999999994  0.24018257  0.22899984999999998  1.0000
  N   N29       1.0  0.3103540399999999  0.27239929  0.23026299999999997  1.0000
  N   N30       1.0  0.28422673999999987  0.3327919  0.29092189  1.0000
  N   N31       1.0  0.35048425  0.42846696  0.3828963099999999  1.0000
  N   N32       1.0  0.18158905999999994  0.42004699000000006  0.40276526  1.0000
  N   N33       1.0  0.8344801799999998  0.00464217  0.18893865  1.0000
  N   N34       1.0  0.9173704899999998  0.006343939999999999  0.32604709  1.0000
  N   N35       1.0  0.64630675  0.00219999  0.36420956  1.0000
  N   N36       1.0  0.49157501  0.9997419599999999  0.42798359  1.0000
  N   N37       1.0  0.36186121  0.58084891  0.40801466  1.0000
  N   N38       1.0  0.19236038  0.58948705  0.42216086  1.0000
  N   N39       1.0  0.30296786999999986  0.67905258  0.3271775  1.0000
  N   N40       1.0  0.33154433  0.74018263  0.27100014  1.0000
  N   N41       1.0  0.18964586  0.77239908  0.26973719999999995  1.0000
  N   N42       1.0  0.21577318999999995  0.83279209  0.20907786  1.0000
  N   N43       1.0  0.14951587999999993  0.92846699  0.11710382999999999  1.0000
  N   N44       1.0  0.31841116  0.92004706  0.09723474  1.0000
  N   N45       1.0  0.6655205599999998  0.50464214  0.31106161  1.0000
  N   N46       1.0  0.58263249  0.5063439  0.17395083  1.0000
  N   N47       1.0  0.8536939799999997  0.50219996  0.13579073  1.0000
  N   N48       1.0  0.00842228  0.499742  0.07201038  1.0000
