data_image0
_chemical_formula_structural       Mg16H16C40N16O40
_chemical_formula_sum              "Mg16 H16 C40 N16 O40"
_cell_length_a       8.3587
_cell_length_b       15.2253
_cell_length_c       15.2253
_cell_angle_alpha    90.0
_cell_angle_beta     90.0
_cell_angle_gamma    90.0

_space_group_name_H-M_alt    "P 1"
_space_group_IT_number       1

loop_
  _space_group_symop_operation_xyz
  'x, y, z'

loop_
  _atom_site_type_symbol
  _atom_site_label
  _atom_site_symmetry_multiplicity
  _atom_site_fract_x
  _atom_site_fract_y
  _atom_site_fract_z
  _atom_site_occupancy
  Mg  Mg1       1.0  0.37003  0.11057000000000003  0.9994500000000001  1.0000
  Mg  Mg2       1.0  0.87003  0.8894300000000003  0.0005500000000000002  1.0000
  Mg  Mg3       1.0  0.6200300000000002  0.5005500000000003  0.61057  1.0000
  Mg  Mg4       1.0  0.12003  0.4994500000000001  0.38943  1.0000
  Mg  Mg5       1.0  0.87997  0.38943  0.4994500000000001  1.0000
  Mg  Mg6       1.0  0.37997  0.61057  0.5005500000000003  1.0000
  Mg  Mg7       1.0  0.62997  0.9994500000000001  0.11057000000000003  1.0000
  Mg  Mg8       1.0  0.12997  0.0005500000000000002  0.8894300000000003  1.0000
  Mg  Mg9       1.0  0.0  0.09891000000000003  0.09891000000000003  1.0000
  Mg  Mg10      1.0  0.0  0.24748000000000006  0.24748000000000006  1.0000
  Mg  Mg11      1.0  0.5  0.9010900000000002  0.9010900000000002  1.0000
  Mg  Mg12      1.0  0.5  0.75252  0.75252  1.0000
  Mg  Mg13      1.0  0.25  0.4010900000000001  0.5989100000000003  1.0000
  Mg  Mg14      1.0  0.25  0.25252000000000013  0.7474800000000001  1.0000
  Mg  Mg15      1.0  0.7500000000000002  0.5989100000000003  0.4010900000000001  1.0000
  Mg  Mg16      1.0  0.7500000000000002  0.7474800000000001  0.25252000000000013  1.0000
  H   H1        1.0  0.9227  0.9630000000000002  0.13270000000000007  1.0000
  H   H2        1.0  0.5416  0.3695000000000001  0.1871  1.0000
  H   H3        1.0  0.4227  0.03700000000000001  0.8673000000000001  1.0000
  H   H4        1.0  0.0416  0.6305000000000002  0.8129000000000002  1.0000
  H   H5        1.0  0.1727  0.3673000000000001  0.46300000000000013  1.0000
  H   H6        1.0  0.7916000000000002  0.3129  0.8695  1.0000
  H   H7        1.0  0.6727000000000002  0.6327  0.5370000000000003  1.0000
  H   H8        1.0  0.2916  0.6871000000000003  0.1305  1.0000
  H   H9        1.0  0.3273  0.5370000000000003  0.6327  1.0000
  H   H10       1.0  0.7084  0.1305  0.6871000000000003  1.0000
  H   H11       1.0  0.8273  0.46300000000000013  0.3673000000000001  1.0000
  H   H12       1.0  0.20840000000000006  0.8695  0.3129  1.0000
  H   H13       1.0  0.0773  0.13270000000000007  0.9630000000000002  1.0000
  H   H14       1.0  0.4584  0.1871  0.3695000000000001  1.0000
  H   H15       1.0  0.5773  0.8673000000000001  0.03700000000000001  1.0000
  H   H16       1.0  0.9584  0.8129000000000002  0.6305000000000002  1.0000
  C   C1        1.0  0.27454  0.24422000000000005  0.13532000000000005  1.0000
  C   C2        1.0  0.45947  0.49625000000000014  0.33333  1.0000
  C   C3        1.0  0.38467  0.42523  0.2813100000000001  1.0000
  C   C4        1.0  0.30642  0.31677  0.19755000000000006  1.0000
  C   C5        1.0  0.43658  0.37168  0.21291000000000004  1.0000
  C   C6        1.0  0.77454  0.7557800000000002  0.8646800000000002  1.0000
  C   C7        1.0  0.95947  0.5037500000000003  0.66667  1.0000
  C   C8        1.0  0.88467  0.5747700000000002  0.71869  1.0000
  C   C9        1.0  0.80642  0.6832300000000002  0.8024500000000002  1.0000
  C   C10       1.0  0.93658  0.62832  0.7870900000000002  1.0000
  C   C11       1.0  0.52454  0.36468  0.7442200000000002  1.0000
  C   C12       1.0  0.70947  0.16667000000000007  0.9962500000000002  1.0000
  C   C13       1.0  0.63467  0.21869000000000005  0.9252300000000002  1.0000
  C   C14       1.0  0.55642  0.30245  0.8167700000000002  1.0000
  C   C15       1.0  0.68658  0.2870900000000001  0.8716800000000002  1.0000
  C   C16       1.0  0.02454  0.6353200000000002  0.2557800000000001  1.0000
  C   C17       1.0  0.20947  0.8333300000000002  0.0037500000000000007  1.0000
  C   C18       1.0  0.13467000000000007  0.7813100000000001  0.07477  1.0000
  C   C19       1.0  0.056420000000000005  0.6975500000000002  0.18323000000000006  1.0000
  C   C20       1.0  0.18658  0.7129100000000003  0.12832000000000005  1.0000
  C   C21       1.0  0.9754600000000001  0.2557800000000001  0.6353200000000002  1.0000
  C   C22       1.0  0.79053  0.0037500000000000007  0.8333300000000002  1.0000
  C   C23       1.0  0.86533  0.07477  0.7813100000000001  1.0000
  C   C24       1.0  0.94358  0.18323000000000006  0.6975500000000002  1.0000
  C   C25       1.0  0.81342  0.12832000000000005  0.7129100000000003  1.0000
  C   C26       1.0  0.47546  0.7442200000000002  0.36468  1.0000
  C   C27       1.0  0.2905300000000001  0.9962500000000002  0.16667000000000007  1.0000
  C   C28       1.0  0.36533  0.9252300000000002  0.21869000000000005  1.0000
  C   C29       1.0  0.4435800000000001  0.8167700000000002  0.30245  1.0000
  C   C30       1.0  0.31342000000000003  0.8716800000000002  0.2870900000000001  1.0000
  C   C31       1.0  0.72546  0.13532000000000005  0.24422000000000005  1.0000
  C   C32       1.0  0.54053  0.33333  0.49625000000000014  1.0000
  C   C33       1.0  0.6153300000000002  0.2813100000000001  0.42523  1.0000
  C   C34       1.0  0.69358  0.19755000000000006  0.31677  1.0000
  C   C35       1.0  0.56342  0.21291000000000004  0.37168  1.0000
  C   C36       1.0  0.22546  0.8646800000000002  0.7557800000000002  1.0000
  C   C37       1.0  0.04053  0.66667  0.5037500000000003  1.0000
  C   C38       1.0  0.11533  0.71869  0.5747700000000002  1.0000
  C   C39       1.0  0.19358  0.8024500000000002  0.6832300000000002  1.0000
  C   C40       1.0  0.06342000000000003  0.7870900000000002  0.62832  1.0000
  N   N1        1.0  0.23254  0.4039200000000001  0.3042600000000001  1.0000
  N   N2        1.0  0.18527  0.33763  0.25339  1.0000
  N   N3        1.0  0.73254  0.5960800000000003  0.6957400000000002  1.0000
  N   N4        1.0  0.68527  0.6623700000000002  0.7466100000000002  1.0000
  N   N5        1.0  0.48254  0.19574000000000005  0.9039200000000002  1.0000
  N   N6        1.0  0.43527  0.24661000000000005  0.8376300000000002  1.0000
  N   N7        1.0  0.9825400000000001  0.8042600000000002  0.09608000000000003  1.0000
  N   N8        1.0  0.9352700000000003  0.7533900000000002  0.16237000000000004  1.0000
  N   N9        1.0  0.01746  0.09608000000000003  0.8042600000000002  1.0000
  N   N10       1.0  0.06473000000000001  0.16237000000000004  0.7533900000000002  1.0000
  N   N11       1.0  0.5174600000000003  0.9039200000000002  0.19574000000000005  1.0000
  N   N12       1.0  0.56473  0.8376300000000002  0.24661000000000005  1.0000
  N   N13       1.0  0.76746  0.3042600000000001  0.4039200000000001  1.0000
  N   N14       1.0  0.81473  0.25339  0.33763  1.0000
  N   N15       1.0  0.26746  0.6957400000000002  0.5960800000000003  1.0000
  N   N16       1.0  0.31473  0.7466100000000002  0.6623700000000002  1.0000
  O   O1        1.0  0.37182  0.22542000000000006  0.07648000000000003  1.0000
  O   O2        1.0  0.87034  0.9866000000000003  0.09693  1.0000
  O   O3        1.0  0.14083  0.20480000000000007  0.14647000000000004  1.0000
  O   O4        1.0  0.37243  0.5257600000000002  0.3960100000000001  1.0000
  O   O5        1.0  0.59776  0.52217  0.3170900000000001  1.0000
  O   O6        1.0  0.87182  0.7745800000000003  0.9235200000000002  1.0000
  O   O7        1.0  0.37034  0.013400000000000004  0.90307  1.0000
  O   O8        1.0  0.64083  0.7952  0.8535300000000002  1.0000
  O   O9        1.0  0.87243  0.4742400000000001  0.60399  1.0000
  O   O10       1.0  0.09776000000000001  0.4778300000000001  0.6829100000000002  1.0000
  O   O11       1.0  0.62182  0.42352  0.72542  1.0000
  O   O12       1.0  0.12034000000000002  0.4030700000000001  0.4866000000000001  1.0000
  O   O13       1.0  0.39083  0.3535300000000001  0.7048000000000002  1.0000
  O   O14       1.0  0.62243  0.10399000000000003  0.02576  1.0000
  O   O15       1.0  0.84776  0.18291000000000004  0.022170000000000006  1.0000
  O   O16       1.0  0.12182  0.57648  0.27458000000000005  1.0000
  O   O17       1.0  0.62034  0.5969300000000002  0.5134000000000002  1.0000
  O   O18       1.0  0.8908300000000002  0.64647  0.29520000000000013  1.0000
  O   O19       1.0  0.12243  0.8960100000000002  0.9742400000000002  1.0000
  O   O20       1.0  0.34776  0.81709  0.97783  1.0000
  O   O21       1.0  0.87818  0.27458000000000005  0.57648  1.0000
  O   O22       1.0  0.3796600000000001  0.5134000000000002  0.5969300000000002  1.0000
  O   O23       1.0  0.10917  0.29520000000000013  0.64647  1.0000
  O   O24       1.0  0.87757  0.9742400000000002  0.8960100000000002  1.0000
  O   O25       1.0  0.65224  0.97783  0.81709  1.0000
  O   O26       1.0  0.3781800000000001  0.72542  0.42352  1.0000
  O   O27       1.0  0.87966  0.4866000000000001  0.4030700000000001  1.0000
  O   O28       1.0  0.60917  0.7048000000000002  0.3535300000000001  1.0000
  O   O29       1.0  0.3775700000000001  0.02576  0.10399000000000003  1.0000
  O   O30       1.0  0.15224  0.022170000000000006  0.18291000000000004  1.0000
  O   O31       1.0  0.62818  0.07648000000000003  0.22542000000000006  1.0000
  O   O32       1.0  0.12966  0.09693  0.9866000000000003  1.0000
  O   O33       1.0  0.85917  0.14647000000000004  0.20480000000000007  1.0000
  O   O34       1.0  0.62757  0.3960100000000001  0.5257600000000002  1.0000
  O   O35       1.0  0.40224  0.3170900000000001  0.52217  1.0000
  O   O36       1.0  0.12818  0.9235200000000002  0.7745800000000003  1.0000
  O   O37       1.0  0.62966  0.90307  0.013400000000000004  1.0000
  O   O38       1.0  0.35917  0.8535300000000002  0.7952  1.0000
  O   O39       1.0  0.12757  0.60399  0.4742400000000001  1.0000
  O   O40       1.0  0.90224  0.6829100000000002  0.4778300000000001  1.0000
