data_image0
_chemical_formula_structural       Cu4H24C28O16
_chemical_formula_sum              "Cu4 H24 C28 O16"
_cell_length_a       8.5325418
_cell_length_b       8.5325027
_cell_length_c       14.51473606
_cell_angle_alpha    90.00000326
_cell_angle_beta     90.00000214999999
_cell_angle_gamma    89.99621311

_symmetry_space_group_name_H-M    'P 1'
_symmetry_Int_Tables_number       1

loop_
  _symmetry_equiv_pos_as_xyz
  'x,y,z'

loop_
  _atom_site_type_symbol
  _atom_site_label
  _atom_site_symmetry_multiplicity
  _atom_site_fract_x
  _atom_site_fract_y
  _atom_site_fract_z
  _atom_site_occupancy
  Cu  Cu1       1.0  0.49998489  0.8549416200000002  0.99999994  1.0000
  Cu  Cu2       1.0  0.50001534  0.14505795000000002  6e-08  1.0000
  Cu  Cu3       1.0  0.14505646  0.50001491  0.50000007  1.0000
  Cu  Cu4       1.0  0.8549404100000001  0.49998492000000005  0.49999994  1.0000
  H   H1        1.0  0.74724467  0.8499215  0.7066380999999998  1.0000
  H   H2        1.0  0.25275541  0.15007844  0.7066380999999998  1.0000
  H   H3        1.0  0.15009229  0.7472367900000001  0.20664036999999993  1.0000
  H   H4        1.0  0.84990776  0.25276307  0.20664036  1.0000
  H   H5        1.0  0.25276161  0.84990738  0.29335976  1.0000
  H   H6        1.0  0.74723853  0.15009245  0.29335972  1.0000
  H   H7        1.0  0.84992176  0.74724297  0.7933617899999998  1.0000
  H   H8        1.0  0.15007823  0.25275692  0.79336177  1.0000
  H   H9        1.0  0.25275542  0.15007844  0.29336191  1.0000
  H   H10       1.0  0.74724468  0.8499215  0.29336189  1.0000
  H   H11       1.0  0.84990776  0.25276308  0.79335964  1.0000
  H   H12       1.0  0.15009229  0.7472368  0.79335963  1.0000
  H   H13       1.0  0.74723852  0.15009245  0.70664028  1.0000
  H   H14       1.0  0.2527616  0.84990738  0.7066402399999998  1.0000
  H   H15       1.0  0.15007823  0.25275691  0.20663823  1.0000
  H   H16       1.0  0.84992176  0.74724296  0.2066382  1.0000
  H   H17       1.0  0.99996664  0.1046941  0.9167718399999998  1.0000
  H   H18       1.0  3.346e-05  0.89530583  0.91677182  1.0000
  H   H19       1.0  0.89530653  3.329e-05  0.41677174  1.0000
  H   H20       1.0  0.10469358000000001  0.99996656  0.41677178  1.0000
  H   H21       1.0  0.9999666300000001  0.10469409  0.08322817  1.0000
  H   H22       1.0  3.345999999999999e-05  0.8953058200000003  0.08322817  1.0000
  H   H23       1.0  0.10469357000000001  0.99996656  0.5832282199999997  1.0000
  H   H24       1.0  0.89530652  3.328e-05  0.58322826  1.0000
  C   C1        1.0  0.7129740400000002  0.99997129  0.87815537  1.0000
  C   C2        1.0  0.85268792  0.9999946000000001  0.8108005  1.0000
  C   C3        1.0  0.2870261  2.932e-05  0.8781554399999998  1.0000
  C   C4        1.0  0.1473123  5.56e-06  0.81080056  1.0000
  C   C5        1.0  0.99997196  0.71297368  0.37815457  1.0000
  C   C6        1.0  0.9999949499999999  0.85268753  0.31080001  1.0000
  C   C7        1.0  2.813e-05  0.28702634  0.37815438  1.0000
  C   C8        1.0  5.540000000000001e-06  0.14731238  0.31079997999999986  1.0000
  C   C9        1.0  0.2870261  2.931e-05  0.12184456  1.0000
  C   C10       1.0  0.1473123  5.54e-06  0.18919943999999997  1.0000
  C   C11       1.0  0.71297403  0.9999712600000001  0.12184465  1.0000
  C   C12       1.0  0.85268792  0.99999458  0.18919948999999994  1.0000
  C   C13       1.0  0.9999719300000001  0.71297368  0.62184543  1.0000
  C   C14       1.0  0.9999949300000001  0.85268754  0.6891999899999998  1.0000
  C   C15       1.0  2.809e-05  0.28702634  0.62184562  1.0000
  C   C16       1.0  5.5299999999999996e-06  0.14731238  0.6892000199999998  1.0000
  C   C17       1.0  0.85260161  0.85260069  0.75000016  1.0000
  C   C18       1.0  0.14739857  0.14739917  0.7500002  1.0000
  C   C19       1.0  0.14740146  0.85259817  0.24999975999999993  1.0000
  C   C20       1.0  0.85259885  0.14740181  0.24999983  1.0000
  C   C21       1.0  0.14739856000000007  0.14739918  0.24999980999999993  1.0000
  C   C22       1.0  0.8526016  0.85260069  0.24999983  1.0000
  C   C23       1.0  0.85259883  0.14740181  0.75000017  1.0000
  C   C24       1.0  0.14740145  0.85259818  0.7500002399999999  1.0000
  C   C25       1.0  7.999999999999795e-08  0.99999999  0.8726048  1.0000
  C   C26       1.0  1.2000000000000327e-07  0.99999997  0.3726044699999999  1.0000
  C   C27       1.0  6.999999999999979e-08  0.99999999  0.1273952  1.0000
  C   C28       1.0  1.1000000000000511e-07  0.99999997  0.62739553  1.0000
  O   O1        1.0  0.66415368  0.8663226  0.90442871  1.0000
  O   O2        1.0  0.33584669  0.13367755  0.90442914  1.0000
  O   O3        1.0  0.13363218  0.6641386000000001  0.40442711  1.0000
  O   O4        1.0  0.86636749  0.33586061  0.40442634  1.0000
  O   O5        1.0  0.33586055  0.86636739  0.09557289  1.0000
  O   O6        1.0  0.6641393  0.1336328  0.09557270999999998  1.0000
  O   O7        1.0  0.8663238  0.66415368  0.5955715799999999  1.0000
  O   O8        1.0  0.13367578  0.33584727  0.59557136  1.0000
  O   O9        1.0  0.33584666  0.13367756  0.09557089  1.0000
  O   O10       1.0  0.66415365  0.8663226  0.09557128  1.0000
  O   O11       1.0  0.86636748  0.33586063  0.59557362  1.0000
  O   O12       1.0  0.13363217  0.66413861  0.59557291  1.0000
  O   O13       1.0  0.6641392900000003  0.1336328  0.90442733  1.0000
  O   O14       1.0  0.33586056  0.86636737  0.90442707  1.0000
  O   O15       1.0  0.13367581  0.33584729  0.4044286699999999  1.0000
  O   O16       1.0  0.8663238  0.6641537000000001  0.40442837999999987  1.0000
