data_image0
_chemical_formula_structural       Zr12H96C116O64
_chemical_formula_sum              "Zr12 H96 C116 O64"
_cell_length_a       14.82298
_cell_length_b       14.87201
_cell_length_c       27.800390000000004
_cell_angle_alpha    89.96568999999998
_cell_angle_beta     89.94252
_cell_angle_gamma    89.61606

_symmetry_space_group_name_H-M    'P 1'
_symmetry_Int_Tables_number       1

loop_
  _symmetry_equiv_pos_as_xyz
  'x,y,z'

loop_
  _atom_site_type_symbol
  _atom_site_label
  _atom_site_symmetry_multiplicity
  _atom_site_fract_x
  _atom_site_fract_y
  _atom_site_fract_z
  _atom_site_occupancy
  Zr  Zr1       1.0  0.9967900000000002  0.9977699999999998  0.0861  1.0000
  Zr  Zr2       1.0  0.49732  0.50032  0.5863399999999998  1.0000
  Zr  Zr3       1.0  0.00031000000000000054  0.0003600000000000003  0.9128499999999998  1.0000
  Zr  Zr4       1.0  0.50286  0.50105  0.4131899999999999  1.0000
  Zr  Zr5       1.0  0.14527  0.05366  0.00054  1.0000
  Zr  Zr6       1.0  0.05508  0.85243  0.9987099999999998  1.0000
  Zr  Zr7       1.0  0.64777  0.5534  0.50078  1.0000
  Zr  Zr8       1.0  0.34994  0.44853  0.4979399999999999  1.0000
  Zr  Zr9       1.0  0.44775  0.64861  0.4986499999999999  1.0000
  Zr  Zr10      1.0  0.5530700000000002  0.35219  0.49947999999999987  1.0000
  Zr  Zr11      1.0  0.85184  0.94358  0.99867  1.0000
  Zr  Zr12      1.0  0.94175  0.14557999999999996  0.99998  1.0000
  H   H1        1.0  0.19122  0.98043  0.20022  1.0000
  H   H2        1.0  0.80091  0.02865  0.19549  1.0000
  H   H3        1.0  0.03475  0.19423  0.19395999999999994  1.0000
  H   H4        1.0  0.9655  0.79813  0.19567  1.0000
  H   H5        1.0  0.69555  0.46633  0.6967  1.0000
  H   H6        1.0  0.30144  0.5329  0.69689  1.0000
  H   H7        1.0  0.52476  0.69574  0.6967999999999998  1.0000
  H   H8        1.0  0.45928000000000013  0.29986  0.69382  1.0000
  H   H9        1.0  0.8014200000000002  0.03423  0.80283  1.0000
  H   H10       1.0  0.19799  0.96608  0.80486  1.0000
  H   H11       1.0  0.96886  0.80537  0.8041299999999999  1.0000
  H   H12       1.0  0.03117  0.19846  0.79985  1.0000
  H   H13       1.0  0.30773  0.52639  0.30017  1.0000
  H   H14       1.0  0.70359  0.45599999999999996  0.3054799999999999  1.0000
  H   H15       1.0  0.47366  0.30691  0.3024499999999999  1.0000
  H   H16       1.0  0.52755  0.69882  0.3000099999999999  1.0000
  H   H17       1.0  0.3162  0.9501099999999998  0.25731999999999994  1.0000
  H   H18       1.0  0.67763  0.06093  0.25349999999999995  1.0000
  H   H19       1.0  0.0692  0.31821  0.25091  1.0000
  H   H20       1.0  0.9361600000000002  0.6733  0.25271999999999994  1.0000
  H   H21       1.0  0.8204200000000003  0.4377  0.75418  1.0000
  H   H22       1.0  0.17758  0.56159  0.75506  1.0000
  H   H23       1.0  0.5564800000000002  0.81884  0.7544  1.0000
  H   H24       1.0  0.42839  0.17506  0.7508299999999998  1.0000
  H   H25       1.0  0.6762900000000002  0.06597  0.7460199999999998  1.0000
  H   H26       1.0  0.32173  0.9353399999999997  0.7464699999999997  1.0000
  H   H27       1.0  0.9349500000000002  0.68192  0.74705  1.0000
  H   H28       1.0  0.06084  0.3249  0.7435899999999998  1.0000
  H   H29       1.0  0.18278  0.55573  0.24288999999999994  1.0000
  H   H30       1.0  0.8283300000000002  0.42494  0.24789  1.0000
  H   H31       1.0  0.43969  0.18341  0.24523999999999996  1.0000
  H   H32       1.0  0.5565600000000002  0.8238  0.24301999999999996  1.0000
  H   H33       1.0  0.4945  0.10529  0.16821  1.0000
  H   H34       1.0  0.4974600000000001  0.90006  0.16874999999999996  1.0000
  H   H35       1.0  0.89468  0.49465  0.17041  1.0000
  H   H36       1.0  0.10952  0.5003  0.16924  1.0000
  H   H37       1.0  0.99186  0.61172  0.6714099999999997  1.0000
  H   H38       1.0  0.99881  0.40446  0.6675399999999998  1.0000
  H   H39       1.0  0.39825  0.00016999999999999999  0.66755  1.0000
  H   H40       1.0  0.6107500000000002  0.004460000000000001  0.6716299999999997  1.0000
  H   H41       1.0  0.50368  0.89184  0.8279199999999998  1.0000
  H   H42       1.0  0.49707  0.10721  0.82773  1.0000
  H   H43       1.0  0.10406000000000001  0.50342  0.8295599999999997  1.0000
  H   H44       1.0  0.8936600000000002  0.4981  0.8302399999999998  1.0000
  H   H45       1.0  0.007450000000000001  0.39187  0.32924  1.0000
  H   H46       1.0  0.9988  0.60604  0.32629  1.0000
  H   H47       1.0  0.6044  0.00325  0.3292299999999999  1.0000
  H   H48       1.0  0.39575  0.00044  0.33128  1.0000
  H   H49       1.0  0.3702700000000001  0.13108  0.11029999999999997  1.0000
  H   H50       1.0  0.62017  0.8721399999999999  0.10986  1.0000
  H   H51       1.0  0.8640400000000001  0.37152  0.11270999999999998  1.0000
  H   H52       1.0  0.13544000000000006  0.6245599999999998  0.11157999999999997  1.0000
  H   H53       1.0  0.8681600000000003  0.63531  0.6127999999999998  1.0000
  H   H54       1.0  0.12148000000000003  0.38158  0.60807  1.0000
  H   H55       1.0  0.37155  0.8776  0.60894  1.0000
  H   H56       1.0  0.6376  0.12812  0.6135399999999998  1.0000
  H   H57       1.0  0.62811  0.8640099999999997  0.88557  1.0000
  H   H58       1.0  0.37446  0.13425  0.8868499999999998  1.0000
  H   H59       1.0  0.13344000000000003  0.6262  0.8876399999999998  1.0000
  H   H60       1.0  0.8671700000000002  0.37271  0.8870599999999998  1.0000
  H   H61       1.0  0.1322  0.36646  0.3873399999999999  1.0000
  H   H62       1.0  0.8752800000000002  0.63324  0.3847799999999999  1.0000
  H   H63       1.0  0.63521  0.12629  0.3868899999999999  1.0000
  H   H64       1.0  0.37014  0.87577  0.38873999999999986  1.0000
  H   H65       1.0  0.27255  0.91023  0.00358  1.0000
  H   H66       1.0  0.29820000000000013  0.97798  0.9629399999999999  1.0000
  H   H67       1.0  0.7116800000000002  0.05316  0.029959999999999994  1.0000
  H   H68       1.0  0.7247700000000001  0.07628  0.9760499999999998  1.0000
  H   H69       1.0  0.08565  0.27219  0.0010599999999999997  1.0000
  H   H70       1.0  0.01669  0.29578  0.96057  1.0000
  H   H71       1.0  0.98089  0.7001399999999998  0.03703999999999999  1.0000
  H   H72       1.0  0.90948  0.7274  0.9983299999999998  1.0000
  H   H73       1.0  0.77404  0.40798  0.5024499999999998  1.0000
  H   H74       1.0  0.7996  0.47837999999999997  0.46288999999999997  1.0000
  H   H75       1.0  0.22673000000000004  0.59659  0.4983799999999999  1.0000
  H   H76       1.0  0.20033  0.52865  0.4579999999999999  1.0000
  H   H77       1.0  0.59048  0.77634  0.49664999999999987  1.0000
  H   H78       1.0  0.51549  0.80085  0.45915999999999996  1.0000
  H   H79       1.0  0.41684000000000004  0.2137  0.4918299999999999  1.0000
  H   H80       1.0  0.5  0.19681  0.4577499999999999  1.0000
  H   H81       1.0  0.24204  0.19434  0.032619999999999996  1.0000
  H   H82       1.0  0.25169  0.20269  0.97563  1.0000
  H   H83       1.0  0.7389600000000002  0.79968  0.021629999999999996  1.0000
  H   H84       1.0  0.75194  0.80792  0.9647899999999998  1.0000
  H   H85       1.0  0.8096900000000002  0.2641  0.0259  1.0000
  H   H86       1.0  0.8131000000000003  0.26212  0.96853  1.0000
  H   H87       1.0  0.19473000000000004  0.74701  0.03073  1.0000
  H   H88       1.0  0.19841000000000006  0.74386  0.9733699999999997  1.0000
  H   H89       1.0  0.76139  0.69048  0.52667  1.0000
  H   H90       1.0  0.7603  0.68691  0.4693699999999999  1.0000
  H   H91       1.0  0.36032  0.30278  0.53997  1.0000
  H   H92       1.0  0.2599  0.27532  0.53061  1.0000
  H   H93       1.0  0.30465  0.73175  0.53661  1.0000
  H   H94       1.0  0.2843  0.75744  0.48204  1.0000
  H   H95       1.0  0.6929600000000002  0.26806  0.5386599999999999  1.0000
  H   H96       1.0  0.71734  0.24406  0.48427999999999993  1.0000
  C   C1        1.0  0.49768  0.0034  0.24959999999999996  1.0000
  C   C2        1.0  0.0035100000000000005  0.49574  0.2487  1.0000
  C   C3        1.0  0.9978700000000001  0.50312  0.7499399999999999  1.0000
  C   C4        1.0  0.4993  0.9995099999999999  0.749  1.0000
  C   C5        1.0  0.27235  0.05741  0.15155999999999997  1.0000
  C   C6        1.0  0.71884  0.94806  0.14913999999999997  1.0000
  C   C7        1.0  0.94678  0.27448999999999996  0.15005  1.0000
  C   C8        1.0  0.052500000000000005  0.71964  0.15024  1.0000
  C   C9        1.0  0.7735500000000002  0.55271  0.6512199999999998  1.0000
  C   C10       1.0  0.21991000000000005  0.45476  0.6490499999999999  1.0000
  C   C11       1.0  0.44582  0.77848  0.64939  1.0000
  C   C12       1.0  0.55085  0.22229  0.6503999999999998  1.0000
  C   C13       1.0  0.7234000000000002  0.94645  0.8474599999999999  1.0000
  C   C14       1.0  0.27807000000000004  0.05211  0.8494  1.0000
  C   C15       1.0  0.05358  0.72404  0.84932  1.0000
  C   C16       1.0  0.9474700000000003  0.27715  0.8470599999999998  1.0000
  C   C17       1.0  0.22782000000000002  0.44511  0.34742  1.0000
  C   C18       1.0  0.78106  0.54705  0.34840999999999994  1.0000
  C   C19       1.0  0.55624  0.22468  0.34831  1.0000
  C   C20       1.0  0.44738  0.77903  0.34802  1.0000
  C   C21       1.0  0.25787  0.0083  0.19384999999999994  1.0000
  C   C22       1.0  0.73432  0.99997  0.19028999999999993  1.0000
  C   C23       1.0  0.003610000000000001  0.26017  0.18952999999999995  1.0000
  C   C24       1.0  0.99765  0.73279  0.19067  1.0000
  C   C25       1.0  0.76055  0.49867  0.6918399999999998  1.0000
  C   C26       1.0  0.23499  0.50427  0.6910699999999997  1.0000
  C   C27       1.0  0.49666  0.76261  0.6910099999999998  1.0000
  C   C28       1.0  0.49304  0.23508  0.6896999999999998  1.0000
  C   C29       1.0  0.7362500000000002  0.0022200000000000006  0.8075099999999997  1.0000
  C   C30       1.0  0.26367  0.9973  0.8092299999999999  1.0000
  C   C31       1.0  0.99898  0.73909  0.809  1.0000
  C   C32       1.0  0.00049  0.26422  0.8058699999999998  1.0000
  C   C33       1.0  0.24179  0.49652  0.30591  1.0000
  C   C34       1.0  0.7683  0.48941  0.30927  1.0000
  C   C35       1.0  0.50281  0.24024  0.3075799999999999  1.0000
  C   C36       1.0  0.49824  0.7650899999999999  0.30620999999999987  1.0000
  C   C37       1.0  0.32865  0.99175  0.22592999999999994  1.0000
  C   C38       1.0  0.66463  0.01762  0.22286999999999996  1.0000
  C   C39       1.0  0.0225  0.33009  0.22146999999999997  1.0000
  C   C40       1.0  0.9818600000000002  0.66225  0.22271999999999995  1.0000
  C   C41       1.0  0.8311  0.48324  0.72418  1.0000
  C   C42       1.0  0.16504  0.51969  0.72383  1.0000
  C   C43       1.0  0.51392  0.8321599999999999  0.72339  1.0000
  C   C44       1.0  0.4762500000000001  0.16469  0.7217299999999998  1.0000
  C   C45       1.0  0.66561  0.01938  0.7755399999999998  1.0000
  C   C46       1.0  0.3334000000000001  0.98051  0.7764999999999997  1.0000
  C   C47       1.0  0.98054  0.66934  0.77689  1.0000
  C   C48       1.0  0.01678  0.33564  0.7743299999999997  1.0000
  C   C49       1.0  0.17116000000000003  0.51241  0.27371  1.0000
  C   C50       1.0  0.8386300000000001  0.47258  0.27693999999999996  1.0000
  C   C51       1.0  0.48414  0.1704  0.27554  1.0000
  C   C52       1.0  0.5139  0.83573  0.27417999999999987  1.0000
  C   C53       1.0  0.41528  0.02519  0.21715999999999994  1.0000
  C   C54       1.0  0.57825  0.9825  0.21575  1.0000
  C   C55       1.0  0.9836900000000002  0.41534  0.21521999999999994  1.0000
  C   C56       1.0  0.02177  0.5776  0.21577999999999994  1.0000
  C   C57       1.0  0.9154800000000001  0.52314  0.71738  1.0000
  C   C58       1.0  0.07895  0.4843099999999999  0.71606  1.0000
  C   C59       1.0  0.47924000000000005  0.91879  0.7155599999999998  1.0000
  C   C60       1.0  0.51835  0.08085  0.7159599999999999  1.0000
  C   C61       1.0  0.5811000000000002  0.97962  0.7819799999999998  1.0000
  C   C62       1.0  0.41842  0.01928  0.7826399999999998  1.0000
  C   C63       1.0  0.01794  0.5835  0.7835399999999998  1.0000
  C   C64       1.0  0.97921  0.42093  0.7825499999999997  1.0000
  C   C65       1.0  0.08555000000000003  0.47592  0.28162  1.0000
  C   C66       1.0  0.92234  0.51444  0.28226  1.0000
  C   C67       1.0  0.51959  0.0839  0.28282999999999997  1.0000
  C   C68       1.0  0.47799  0.92171  0.28256  1.0000
  C   C69       1.0  0.4279300000000001  0.07843  0.17578999999999995  1.0000
  C   C70       1.0  0.56411  0.9277999999999998  0.17511  1.0000
  C   C71       1.0  0.92502  0.42865  0.17598  1.0000
  C   C72       1.0  0.07871  0.5658  0.17563  1.0000
  C   C73       1.0  0.92669  0.58046  0.67748  1.0000
  C   C74       1.0  0.06531  0.43202  0.67449  1.0000
  C   C75       1.0  0.4255600000000001  0.93333  0.6744499999999998  1.0000
  C   C76       1.0  0.57818  0.06943  0.67699  1.0000
  C   C77       1.0  0.5693300000000002  0.92203  0.82173  1.0000
  C   C78       1.0  0.4314400000000001  0.07651  0.8223699999999998  1.0000
  C   C79       1.0  0.07489  0.56976  0.82348  1.0000
  C   C80       1.0  0.92336  0.43235  0.82315  1.0000
  C   C81       1.0  0.07334000000000004  0.42099  0.3223999999999999  1.0000
  C   C82       1.0  0.93389  0.57371  0.32124999999999987  1.0000
  C   C83       1.0  0.57608  0.06987  0.32290999999999986  1.0000
  C   C84       1.0  0.4241600000000001  0.9342499999999999  0.32385  1.0000
  C   C85       1.0  0.3582  0.09341  0.14319  1.0000
  C   C86       1.0  0.6328  0.91176  0.14196999999999999  1.0000
  C   C87       1.0  0.90741  0.35973  0.14360999999999993  1.0000
  C   C88       1.0  0.09327  0.63528  0.1431  1.0000
  C   C89       1.0  0.8574000000000003  0.5940599999999999  0.64454  1.0000
  C   C90       1.0  0.13405  0.41862  0.6410699999999998  1.0000
  C   C91       1.0  0.41001  0.86475  0.6415099999999998  1.0000
  C   C92       1.0  0.5935700000000002  0.13857  0.6443699999999998  1.0000
  C   C93       1.0  0.63897  0.90624  0.8542099999999998  1.0000
  C   C94       1.0  0.36284  0.09195999999999999  0.8556  1.0000
  C   C95       1.0  0.09179  0.63846  0.8561299999999997  1.0000
  C   C96       1.0  0.9083700000000001  0.36207  0.8551499999999997  1.0000
  C   C97       1.0  0.14293000000000003  0.40649999999999986  0.3551199999999999  1.0000
  C   C98       1.0  0.86481  0.58913  0.35415  1.0000
  C   C99       1.0  0.59356  0.13873  0.35537999999999986  1.0000
  C   C100      1.0  0.40972  0.86449  0.35633  1.0000
  C   C101      1.0  0.19919000000000006  0.06352  0.11456  1.0000
  C   C102      1.0  0.7924000000000002  0.93775  0.11257999999999997  1.0000
  C   C103      1.0  0.93506  0.20118  0.11378999999999997  1.0000
  C   C104      1.0  0.060420000000000015  0.79305  0.11381999999999999  1.0000
  C   C105      1.0  0.7008700000000002  0.5594  0.6141699999999998  1.0000
  C   C106      1.0  0.29338  0.44629  0.6124099999999999  1.0000
  C   C107      1.0  0.43596  0.70522  0.6130499999999998  1.0000
  C   C108      1.0  0.56017  0.29549  0.61397  1.0000
  C   C109      1.0  0.797  0.93748  0.88387  1.0000
  C   C110      1.0  0.20512  0.06182  0.88623  1.0000
  C   C111      1.0  0.06412  0.797  0.88582  1.0000
  C   C112      1.0  0.93929  0.2035  0.8834199999999998  1.0000
  C   C113      1.0  0.30062  0.43884  0.38447  1.0000
  C   C114      1.0  0.7077700000000002  0.55733  0.38491  1.0000
  C   C115      1.0  0.56622  0.29716  0.38518  1.0000
  C   C116      1.0  0.44064  0.70527  0.38449999999999995  1.0000
  O   O1        1.0  0.12073000000000002  0.03973  0.12769999999999998  1.0000
  O   O2        1.0  0.87179  0.95531  0.12699  1.0000
  O   O3        1.0  0.95485  0.12175  0.12752  1.0000
  O   O4        1.0  0.04  0.87183  0.12737  1.0000
  O   O5        1.0  0.6217300000000002  0.53803  0.6276  1.0000
  O   O6        1.0  0.37329  0.46242  0.6270899999999998  1.0000
  O   O7        1.0  0.4573700000000001  0.62645  0.6268099999999999  1.0000
  O   O8        1.0  0.53755  0.37401  0.6273599999999998  1.0000
  O   O9        1.0  0.87574  0.95974  0.8704799999999998  1.0000
  O   O10       1.0  0.12553  0.04426  0.8726  1.0000
  O   O11       1.0  0.044280000000000014  0.87636  0.8721199999999998  1.0000
  O   O12       1.0  0.9596500000000002  0.12447  0.8701199999999998  1.0000
  O   O13       1.0  0.3800400000000001  0.45781  0.3706399999999999  1.0000
  O   O14       1.0  0.62793  0.54178  0.37103999999999987  1.0000
  O   O15       1.0  0.5469100000000001  0.37662  0.37207  1.0000
  O   O16       1.0  0.4615300000000001  0.6266199999999997  0.37063  1.0000
  O   O17       1.0  0.7906400000000001  0.47124  0.49757999999999997  1.0000
  O   O18       1.0  0.20956  0.53364  0.4926799999999999  1.0000
  O   O19       1.0  0.52636  0.79115  0.49354999999999993  1.0000
  O   O20       1.0  0.48266  0.20477  0.4915499999999999  1.0000
  O   O21       1.0  0.20896  0.20462  0.0023899999999999993  1.0000
  O   O22       1.0  0.20458  0.78281  0.00156  1.0000
  O   O23       1.0  0.7234500000000003  0.6978899999999999  0.4981  1.0000
  O   O24       1.0  0.3172  0.2834199999999999  0.5141599999999998  1.0000
  O   O25       1.0  0.28967  0.70731  0.50442  1.0000
  O   O26       1.0  0.7102600000000002  0.29342  0.50698  1.0000
  O   O27       1.0  0.22223000000000007  0.08885  0.07192999999999998  1.0000
  O   O28       1.0  0.76896  0.9152199999999998  0.0696  1.0000
  O   O29       1.0  0.90914  0.22478999999999993  0.07148  1.0000
  O   O30       1.0  0.08402  0.76894  0.07079999999999999  1.0000
  O   O31       1.0  0.7246500000000002  0.58285  0.57151  1.0000
  O   O32       1.0  0.27039  0.4252999999999999  0.5694199999999998  1.0000
  O   O33       1.0  0.40938000000000013  0.7280699999999999  0.57043  1.0000
  O   O34       1.0  0.58693  0.27219999999999994  0.5714499999999998  1.0000
  O   O35       1.0  0.7737  0.91137  0.92635  1.0000
  O   O36       1.0  0.23001  0.08412  0.9292099999999999  1.0000
  O   O37       1.0  0.08928  0.77346  0.92835  1.0000
  O   O38       1.0  0.9154900000000002  0.2273  0.9263699999999998  1.0000
  O   O39       1.0  0.27542  0.41847  0.4275599999999999  1.0000
  O   O40       1.0  0.73294  0.57807  0.42806  1.0000
  O   O41       1.0  0.5900000000000002  0.27185  0.42792  1.0000
  O   O42       1.0  0.41762  0.72916  0.42760999999999993  1.0000
  O   O43       1.0  0.1104  0.94732  0.04419  1.0000
  O   O44       1.0  0.04559  0.10742999999999998  0.044349999999999994  1.0000
  O   O45       1.0  0.39123000000000013  0.55082  0.54211  1.0000
  O   O46       1.0  0.60537  0.44927  0.54414  1.0000
  O   O47       1.0  0.4450600000000001  0.3857  0.54414  1.0000
  O   O48       1.0  0.55077  0.6126899999999997  0.5439699999999998  1.0000
  O   O49       1.0  0.04874000000000001  0.11023  0.95569  1.0000
  O   O50       1.0  0.61101  0.44901  0.45573999999999987  1.0000
  O   O51       1.0  0.3918300000000001  0.55249  0.45372999999999997  1.0000
  O   O52       1.0  0.5541500000000003  0.61171  0.45462999999999987  1.0000
  O   O53       1.0  0.44989  0.39139  0.4551199999999999  1.0000
  O   O54       1.0  0.7828700000000002  0.79551  0.9954999999999998  1.0000
  O   O55       1.0  0.9485500000000002  0.88867  0.04347  1.0000
  O   O56       1.0  0.8000500000000003  0.22655  0.9974199999999998  1.0000
  O   O57       1.0  0.8848300000000001  0.04872  0.043779999999999986  1.0000
  O   O58       1.0  0.28871  0.9730699999999998  0.9976699999999997  1.0000
  O   O59       1.0  0.9731200000000002  0.71094  0.0025599999999999993  1.0000
  O   O60       1.0  0.11088000000000003  0.95026  0.9551899999999998  1.0000
  O   O61       1.0  0.88765  0.04974  0.9544199999999998  1.0000
  O   O62       1.0  0.95043  0.8891800000000001  0.9543299999999998  1.0000
  O   O63       1.0  0.7108500000000002  0.02676  0.9978499999999999  1.0000
  O   O64       1.0  0.02235  0.28867  0.99546  1.0000
