data_image0
_chemical_formula_structural       Cu12H24C72N96
_chemical_formula_sum              "Cu12 H24 C72 N96"
_cell_length_a       18.44154393
_cell_length_b       18.44125858
_cell_length_c       18.441003499999997
_cell_angle_alpha    89.99999946
_cell_angle_beta     90.00000283
_cell_angle_gamma    89.99987428999998

_symmetry_space_group_name_H-M    'P 1'
_symmetry_Int_Tables_number       1

loop_
  _symmetry_equiv_pos_as_xyz
  'x,y,z'

loop_
  _atom_site_type_symbol
  _atom_site_label
  _atom_site_symmetry_multiplicity
  _atom_site_fract_x
  _atom_site_fract_y
  _atom_site_fract_z
  _atom_site_occupancy
  Cu  Cu1       1.0  0.5000013  0.13364654  0.9999994300000001  1.0000
  Cu  Cu2       1.0  0.50000127  0.86635301  0.9999994700000001  1.0000
  Cu  Cu3       1.0  0.9999959999999999  0.50000001  0.13364439  1.0000
  Cu  Cu4       1.0  0.9999959899999998  0.50000001  0.86635602  1.0000
  Cu  Cu5       1.0  0.13365468999999996  0.99999986  0.5000004  1.0000
  Cu  Cu6       1.0  0.8663530399999999  0.9999995100000001  0.50000044  1.0000
  Cu  Cu7       1.0  0.13364922999999998  0.50000002  0.99999729  1.0000
  Cu  Cu8       1.0  0.86635327  0.49999998999999995  0.9999972  1.0000
  Cu  Cu9       1.0  0.50000129  6.199999999999999e-07  0.8663533  1.0000
  Cu  Cu10      1.0  0.50000128  6.1e-07  0.13364661  1.0000
  Cu  Cu11      1.0  0.99999635  0.13364469  0.50000044  1.0000
  Cu  Cu12      1.0  0.99999597  0.86635545  0.50000043  1.0000
  H   H1        1.0  0.26468215  0.26468178  0.09926045  1.0000
  H   H2        1.0  0.73531802  0.73531797  0.09926057  1.0000
  H   H3        1.0  0.73531805  0.26468219  0.9007394300000001  1.0000
  H   H4        1.0  0.26468213  0.7353180899999999  0.9007395499999999  1.0000
  H   H5        1.0  0.09926017  0.26468199  0.26468198  1.0000
  H   H6        1.0  0.09926007  0.73531783  0.7353181000000001  1.0000
  H   H7        1.0  0.9007393099999998  0.7353178599999999  0.26468203000000007  1.0000
  H   H8        1.0  0.90073939  0.2646823  0.73531804  1.0000
  H   H9        1.0  0.26468221  0.0992605  0.26468173000000006  1.0000
  H   H10       1.0  0.7353179099999998  0.09926049  0.73531796  1.0000
  H   H11       1.0  0.26468227  0.90073961  0.7353182500000001  1.0000
  H   H12       1.0  0.73531793  0.9007393899999999  0.26468198  1.0000
  H   H13       1.0  0.26468212  0.26468192  0.9007395499999999  1.0000
  H   H14       1.0  0.73531804  0.73531782  0.9007394300000001  1.0000
  H   H15       1.0  0.26468216  0.73531823  0.09926044  1.0000
  H   H16       1.0  0.7353180299999998  0.26468204  0.09926057  1.0000
  H   H17       1.0  0.26468225999999995  0.09926039  0.7353182500000001  1.0000
  H   H18       1.0  0.73531796  0.09926061  0.26468202  1.0000
  H   H19       1.0  0.73531788  0.9007394999999999  0.735318  1.0000
  H   H20       1.0  0.26468224  0.9007394999999999  0.26468173000000006  1.0000
  H   H21       1.0  0.09926007  0.26468217  0.73531812  1.0000
  H   H22       1.0  0.09926016  0.735318  0.264682  1.0000
  H   H23       1.0  0.9007393099999998  0.26468212  0.26468206  1.0000
  H   H24       1.0  0.90073939  0.73531768  0.73531806  1.0000
  C   C1        1.0  0.24077312999999997  0.24077384999999998  0.14768416  1.0000
  C   C2        1.0  0.75922615  0.75922619  0.14768341  1.0000
  C   C3        1.0  0.75922607  0.24077340999999997  0.85231634  1.0000
  C   C4        1.0  0.24077324999999997  0.7592266699999999  0.85231546  1.0000
  C   C5        1.0  0.14768103  0.24077446999999996  0.24077429999999997  1.0000
  C   C6        1.0  0.14768105  0.75922572  0.75922558  1.0000
  C   C7        1.0  0.8523160399999999  0.75922649  0.24077349  1.0000
  C   C8        1.0  0.85231595  0.24077326999999998  0.7592263600000001  1.0000
  C   C9        1.0  0.24077311  0.1476841  0.24077391000000004  1.0000
  C   C10       1.0  0.75922606  0.14768295  0.75922585  1.0000
  C   C11       1.0  0.24077327999999998  0.85231615  0.75922597  1.0000
  C   C12       1.0  0.75922606  0.85231674  0.24077382000000003  1.0000
  C   C13       1.0  0.24077323  0.24077338  0.85231552  1.0000
  C   C14       1.0  0.75922606  0.7592266499999999  0.85231626  1.0000
  C   C15       1.0  0.24077316999999998  0.75922619  0.14768419  1.0000
  C   C16       1.0  0.7592261599999999  0.24077388999999996  0.14768334000000002  1.0000
  C   C17       1.0  0.24077322  0.14768379  0.75922586  1.0000
  C   C18       1.0  0.75922619  0.14768329  0.24077392  1.0000
  C   C19       1.0  0.75922595  0.85231707  0.75922594  1.0000
  C   C20       1.0  0.24077318  0.8523158599999999  0.2407738  1.0000
  C   C21       1.0  0.14768103999999999  0.24077427999999998  0.75922555  1.0000
  C   C22       1.0  0.14768103999999999  0.75922553  0.24077427  1.0000
  C   C23       1.0  0.8523159699999998  0.24077345  0.24077349  1.0000
  C   C24       1.0  0.8523160199999997  0.7592266699999999  0.7592263600000001  1.0000
  C   C25       1.0  0.27168743999999995  0.17888343999999998  0.17888347  1.0000
  C   C26       1.0  0.33645212999999996  0.14684664  0.14684671  1.0000
  C   C27       1.0  0.72831351  0.82111628  0.17888370000000003  1.0000
  C   C28       1.0  0.6635482299999999  0.8531531  0.14684651  1.0000
  C   C29       1.0  0.72831354  0.17888368  0.8211162800000003  1.0000
  C   C30       1.0  0.6635496699999999  0.14684750999999996  0.85315245  1.0000
  C   C31       1.0  0.27168731  0.8211164299999999  0.8211165  1.0000
  C   C32       1.0  0.33645266999999995  0.85315343  0.8531538800000003  1.0000
  C   C33       1.0  0.17888507999999997  0.27168586  0.17888253  1.0000
  C   C34       1.0  0.14685223  0.33644967  0.14684542000000003  1.0000
  C   C35       1.0  0.17888516  0.72831382  0.82111784  1.0000
  C   C36       1.0  0.14685372  0.66355016  0.8531560000000001  1.0000
  C   C37       1.0  0.82111665  0.7283133999999999  0.17888391  1.0000
  C   C38       1.0  0.85315342  0.66354862  0.14684727000000003  1.0000
  C   C39       1.0  0.82111659  0.27168693  0.82111643  1.0000
  C   C40       1.0  0.85315198  0.33645152  0.85315414  1.0000
  C   C41       1.0  0.17888480999999998  0.17888285  0.27168591  1.0000
  C   C42       1.0  0.14685178  0.14684655  0.33644897  1.0000
  C   C43       1.0  0.82111637  0.17888401  0.72831377  1.0000
  C   C44       1.0  0.85315285  0.1468478  0.66354958  1.0000
  C   C45       1.0  0.178885  0.82111716  0.72831423  1.0000
  C   C46       1.0  0.1468521  0.8531534  0.66355138  1.0000
  C   C47       1.0  0.82111656  0.82111605  0.27168643  1.0000
  C   C48       1.0  0.8531524799999998  0.85315202  0.33645002  1.0000
  C   C49       1.0  0.17888515  0.27168617  0.82111783  1.0000
  C   C50       1.0  0.1468537  0.3364499  0.8531560300000001  1.0000
  C   C51       1.0  0.8211165999999998  0.72831305  0.82111643  1.0000
  C   C52       1.0  0.85315201  0.66354844  0.85315415  1.0000
  C   C53       1.0  0.17888507999999997  0.72831413  0.17888251  1.0000
  C   C54       1.0  0.14685225  0.6635503699999998  0.14684544  1.0000
  C   C55       1.0  0.82111664  0.27168659  0.17888391  1.0000
  C   C56       1.0  0.85315341  0.3364513599999999  0.14684727000000003  1.0000
  C   C57       1.0  0.27168737  0.17888348  0.82111649  1.0000
  C   C58       1.0  0.33645174  0.14684688  0.85315309  1.0000
  C   C59       1.0  0.72831346  0.17888365  0.17888370000000003  1.0000
  C   C60       1.0  0.66354925  0.14684726  0.14684733  1.0000
  C   C61       1.0  0.72831361  0.82111623  0.82111626  1.0000
  C   C62       1.0  0.66354867  0.85315284  0.85315326  1.0000
  C   C63       1.0  0.2716874  0.82111648  0.17888345  1.0000
  C   C64       1.0  0.33645307  0.85315367  0.14684592  1.0000
  C   C65       1.0  0.178885  0.17888287  0.7283142700000002  1.0000
  C   C66       1.0  0.14685199999999998  0.14684675  0.66355146  1.0000
  C   C67       1.0  0.17888480999999998  0.82111717  0.27168594  1.0000
  C   C68       1.0  0.1468519  0.85315356  0.33644901  1.0000
  C   C69       1.0  0.82111654  0.178884  0.27168643  1.0000
  C   C70       1.0  0.85315305  0.1468476  0.33645085  1.0000
  C   C71       1.0  0.82111639  0.82111603  0.72831376  1.0000
  C   C72       1.0  0.85315228  0.85315182  0.6635504  1.0000
  N   N1        1.0  0.3701718299999999  0.17308066  0.08714625  1.0000
  N   N2        1.0  0.4252683  0.12882722  0.07728929  1.0000
  N   N3        1.0  0.62982759  0.82692037  0.08714682  1.0000
  N   N4        1.0  0.57473215  0.8711653699999999  0.0772826  1.0000
  N   N5        1.0  0.62982731  0.17308075  0.9128548400000001  1.0000
  N   N6        1.0  0.57473087  0.12882718  0.9227114800000001  1.0000
  N   N7        1.0  0.37017155  0.82691989  0.9128530000000001  1.0000
  N   N8        1.0  0.42526745  0.87116574  0.92271699  1.0000
  N   N9        1.0  0.08714757  0.37017581  0.17307452  1.0000
  N   N10       1.0  0.07727078  0.4252795  0.12883819  1.0000
  N   N11       1.0  0.08714754  0.6298244899999998  0.8269253300000001  1.0000
  N   N12       1.0  0.07726715  0.57471752  0.8711607600000001  1.0000
  N   N13       1.0  0.9128537199999999  0.62982899  0.17308091  1.0000
  N   N14       1.0  0.9227179  0.57473142  0.12883363  1.0000
  N   N15       1.0  0.9128538199999999  0.37017054999999993  0.8269186600000002  1.0000
  N   N16       1.0  0.9227210799999999  0.42527133  0.8711657000000002  1.0000
  N   N17       1.0  0.17307415  0.0871418  0.37018398  1.0000
  N   N18       1.0  0.12883946  0.07730076  0.42523875  1.0000
  N   N19       1.0  0.82692068  0.08714682  0.62982752  1.0000
  N   N20       1.0  0.8711654299999999  0.07728049  0.57473015  1.0000
  N   N21       1.0  0.17307425999999995  0.91285836  0.62981594  1.0000
  N   N22       1.0  0.1288401  0.92270003  0.57476121  1.0000
  N   N23       1.0  0.82692022  0.91285429  0.37017329000000004  1.0000
  N   N24       1.0  0.8711727899999999  0.9227113299999999  0.4252693400000001  1.0000
  N   N25       1.0  0.17308067999999993  0.3701825  0.91286299  1.0000
  N   N26       1.0  0.12884217  0.42524317  0.9227064900000002  1.0000
  N   N27       1.0  0.82691743  0.62983016  0.91285374  1.0000
  N   N28       1.0  0.87116598  0.57473105  0.9227181400000001  1.0000
  N   N29       1.0  0.17307709  0.6298149099999999  0.08713835  1.0000
  N   N30       1.0  0.12884265  0.57475611  0.0772931  1.0000
  N   N31       1.0  0.82692115  0.37017251  0.0871477  1.0000
  N   N32       1.0  0.8711653099999999  0.42526915  0.07728166  1.0000
  N   N33       1.0  0.37017233  0.08714575  0.8269192800000001  1.0000
  N   N34       1.0  0.4252682599999999  0.07728937  0.87117284  1.0000
  N   N35       1.0  0.62982704  0.08714531  0.17308058  1.0000
  N   N36       1.0  0.57473153  0.07728909  0.12882735  1.0000
  N   N37       1.0  0.62982755  0.9128532699999999  0.82692051  1.0000
  N   N38       1.0  0.5747310599999998  0.92271874  0.8711654600000001  1.0000
  N   N39       1.0  0.3701713  0.91285246  0.17307976  1.0000
  N   N40       1.0  0.42526805  0.92271779  0.12883427  1.0000
  N   N41       1.0  0.08714764  0.1730754  0.62982505  1.0000
  N   N42       1.0  0.07727553  0.12883744  0.5747247  1.0000
  N   N43       1.0  0.08714821999999998  0.8269246199999999  0.37017433  1.0000
  N   N44       1.0  0.07727472999999999  0.87116217  0.42527534  1.0000
  N   N45       1.0  0.9128540299999999  0.17308105999999998  0.37017122  1.0000
  N   N46       1.0  0.92271808  0.12883375  0.42526862  1.0000
  N   N47       1.0  0.9128554799999999  0.82691865  0.62982766  1.0000
  N   N48       1.0  0.9227110799999999  0.8711735000000002  0.57473086  1.0000
  N   N49       1.0  0.62982761  0.82692007  0.9128536300000001  1.0000
  N   N50       1.0  0.57473194  0.87116554  0.9227175900000001  1.0000
  N   N51       1.0  0.37017181  0.17308095  0.91285419  1.0000
  N   N52       1.0  0.42526853  0.12882699999999997  0.9227108700000001  1.0000
  N   N53       1.0  0.37017157  0.82692016  0.08714742  1.0000
  N   N54       1.0  0.42526729  0.87116557  0.07728315  1.0000
  N   N55       1.0  0.62982728  0.17308046  0.08714560000000002  1.0000
  N   N56       1.0  0.57473115  0.12882741  0.07728872  1.0000
  N   N57       1.0  0.9128538199999999  0.62982941  0.8269187  1.0000
  N   N58       1.0  0.92272107  0.57472868  0.87116569  1.0000
  N   N59       1.0  0.9128537199999999  0.37017102  0.17308091  1.0000
  N   N60       1.0  0.9227179  0.42526858  0.12883363  1.0000
  N   N61       1.0  0.08714755  0.37017549  0.8269253200000002  1.0000
  N   N62       1.0  0.07726707  0.42528252  0.8711607500000002  1.0000
  N   N63       1.0  0.08714755  0.62982419  0.17307452  1.0000
  N   N64       1.0  0.07727076  0.57472048  0.12883819  1.0000
  N   N65       1.0  0.82692019  0.9128545699999999  0.62982646  1.0000
  N   N66       1.0  0.8711727  0.9227116499999999  0.57473036  1.0000
  N   N67       1.0  0.17307428  0.9128581100000001  0.37018381  1.0000
  N   N68       1.0  0.12884003999999996  0.9226997699999999  0.42523854  1.0000
  N   N69       1.0  0.8269207  0.08714711  0.37017221  1.0000
  N   N70       1.0  0.87116551  0.07728077  0.42526958000000004  1.0000
  N   N71       1.0  0.17307416  0.08714152  0.62981576  1.0000
  N   N72       1.0  0.12883952  0.07730048  0.57476101  1.0000
  N   N73       1.0  0.82692118  0.62982749  0.08714773  1.0000
  N   N74       1.0  0.8711652999999999  0.5747308999999999  0.0772817  1.0000
  N   N75       1.0  0.17307709  0.37018506  0.08713836000000001  1.0000
  N   N76       1.0  0.12884265  0.42524389  0.07729311  1.0000
  N   N77       1.0  0.82691738  0.37016984  0.91285379  1.0000
  N   N78       1.0  0.8711659499999999  0.42526897  0.92271821  1.0000
  N   N79       1.0  0.17308067  0.62981747  0.91286301  1.0000
  N   N80       1.0  0.12884218  0.57475681  0.92270652  1.0000
  N   N81       1.0  0.62982782  0.9128530699999999  0.17307955  1.0000
  N   N82       1.0  0.5747314  0.92271836  0.12883447  1.0000
  N   N83       1.0  0.37017158999999994  0.91285265  0.8269203300000002  1.0000
  N   N84       1.0  0.42526837  0.9227181699999999  0.87116565  1.0000
  N   N85       1.0  0.37017208  0.08714594  0.17308079000000004  1.0000
  N   N86       1.0  0.42526788999999987  0.07728968999999998  0.12882717  1.0000
  N   N87       1.0  0.6298267799999998  0.08714512  0.82691948  1.0000
  N   N88       1.0  0.57473115  0.07728876  0.87117266  1.0000
  N   N89       1.0  0.9128551699999999  0.8269186599999999  0.37017208000000007  1.0000
  N   N90       1.0  0.92271084  0.87117357  0.4252689  1.0000
  N   N91       1.0  0.91285433  0.17308105999999998  0.62982854  1.0000
  N   N92       1.0  0.9227182999999999  0.12883383  0.57473117  1.0000
  N   N93       1.0  0.08714794999999999  0.82692468  0.62982536  1.0000
  N   N94       1.0  0.07727451  0.87116209  0.57472446  1.0000
  N   N95       1.0  0.08714791  0.17307543  0.37017468  1.0000
  N   N96       1.0  0.07727573  0.12883736  0.42527511  1.0000
