data_image0
_chemical_formula_structural       Ca8H16C32O40
_chemical_formula_sum              "Ca8 H16 C32 O40"
_cell_length_a       13.73422
_cell_length_b       13.73909
_cell_length_c       7.80091
_cell_angle_alpha    89.41592
_cell_angle_beta     90.10494
_cell_angle_gamma    89.82363

_space_group_name_H-M_alt    "P 1"
_space_group_IT_number       1

loop_
  _space_group_symop_operation_xyz
  'x, y, z'

loop_
  _atom_site_type_symbol
  _atom_site_label
  _atom_site_symmetry_multiplicity
  _atom_site_fract_x
  _atom_site_fract_y
  _atom_site_fract_z
  _atom_site_occupancy
  Ca  Ca1       1.0  0.3064  0.25307  0.12985  1.0000
  Ca  Ca2       1.0  0.24787  0.6916400000000003  0.88187  1.0000
  Ca  Ca3       1.0  0.18751  0.24996000000000004  0.62927  1.0000
  Ca  Ca4       1.0  0.24399000000000007  0.8113  0.38433  1.0000
  Ca  Ca5       1.0  0.6869100000000002  0.75165  0.12847  1.0000
  Ca  Ca6       1.0  0.8046300000000002  0.7453  0.62886  1.0000
  Ca  Ca7       1.0  0.7466700000000002  0.30864  0.87709  1.0000
  Ca  Ca8       1.0  0.74701  0.18978  0.37703  1.0000
  H   H1        1.0  0.4751300000000001  0.78235  0.22488  1.0000
  H   H2        1.0  0.4745500000000001  0.75427  0.02813  1.0000
  H   H3        1.0  0.7402600000000003  0.9775900000000002  0.48238  1.0000
  H   H4        1.0  0.71677  0.9797800000000002  0.28402  1.0000
  H   H5        1.0  0.5195  0.25912  0.23143  1.0000
  H   H6        1.0  0.5184400000000001  0.27292  0.03000999999999999  1.0000
  H   H7        1.0  0.014840000000000004  0.71023  0.72847  1.0000
  H   H8        1.0  0.016430000000000004  0.7286900000000002  0.52902  1.0000
  H   H9        1.0  0.21631000000000006  0.02201  0.47871  1.0000
  H   H10       1.0  0.23849000000000006  0.023970000000000005  0.27985  1.0000
  H   H11       1.0  0.7321900000000002  0.52092  0.77648  1.0000
  H   H12       1.0  0.70964  0.51899  0.9757  1.0000
  H   H13       1.0  0.97437  0.25369  0.72528  1.0000
  H   H14       1.0  0.9764900000000002  0.22271000000000002  0.52985  1.0000
  H   H15       1.0  0.21891  0.4803700000000001  0.78289  1.0000
  H   H16       1.0  0.24222000000000005  0.4790000000000001  0.9822199999999998  1.0000
  C   C1        1.0  0.25812000000000007  0.023730000000000015  0.9740199999999998  1.0000
  C   C2        1.0  0.25688  0.9164  0.97634  1.0000
  C   C3        1.0  0.23898  0.0224  0.78649  1.0000
  C   C4        1.0  0.24109  0.91545  0.79149  1.0000
  C   C5        1.0  0.01888  0.73687  0.03509  1.0000
  C   C6        1.0  0.9117100000000002  0.74082  0.036479999999999985  1.0000
  C   C7        1.0  0.01931  0.7521400000000003  0.22347  1.0000
  C   C8        1.0  0.9121  0.75309  0.22174  1.0000
  C   C9        1.0  0.74351  0.9782000000000001  0.97457  1.0000
  C   C10       1.0  0.7472700000000002  0.08509000000000003  0.97029  1.0000
  C   C11       1.0  0.7627100000000002  0.97658  0.7875199999999998  1.0000
  C   C12       1.0  0.7623000000000002  0.08402  0.78506  1.0000
  C   C13       1.0  0.97583  0.26522  0.03387  1.0000
  C   C14       1.0  0.08306000000000002  0.2657  0.03606  1.0000
  C   C15       1.0  0.9759900000000002  0.23921000000000003  0.21931  1.0000
  C   C16       1.0  0.08305000000000003  0.24478  0.21993  1.0000
  C   C17       1.0  0.25564  0.47992  0.28921  1.0000
  C   C18       1.0  0.2597400000000001  0.58704  0.28914  1.0000
  C   C19       1.0  0.23576000000000005  0.48026  0.4759  1.0000
  C   C20       1.0  0.24263  0.58725  0.47382  1.0000
  C   C21       1.0  0.4753  0.74494  0.72003  1.0000
  C   C22       1.0  0.58244  0.74384  0.7197  1.0000
  C   C23       1.0  0.4757000000000001  0.7687100000000002  0.53409  1.0000
  C   C24       1.0  0.58292  0.7641400000000003  0.53557  1.0000
  C   C25       1.0  0.72764  0.51993  0.28262  1.0000
  C   C26       1.0  0.7378200000000001  0.41311  0.28462  1.0000
  C   C27       1.0  0.7469100000000001  0.52049  0.46969  1.0000
  C   C28       1.0  0.7539100000000002  0.41354000000000013  0.46958  1.0000
  C   C29       1.0  0.51978  0.25386  0.72389  1.0000
  C   C30       1.0  0.41260000000000013  0.25129  0.72238  1.0000
  C   C31       1.0  0.51985  0.24178  0.53513  1.0000
  C   C32       1.0  0.41262  0.24125000000000002  0.53655  1.0000
  O   O1        1.0  0.26869000000000004  0.08729  0.08871  1.0000
  O   O2        1.0  0.26349000000000006  0.84663  0.08263  1.0000
  O   O3        1.0  0.22288000000000005  0.08416000000000001  0.66846  1.0000
  O   O4        1.0  0.23141  0.84488  0.69003  1.0000
  O   O5        1.0  0.26435  0.41654  0.17409  1.0000
  O   O6        1.0  0.15303  0.27704  0.93262  1.0000
  O   O7        1.0  0.34199  0.25629  0.82563  1.0000
  O   O8        1.0  0.34203  0.23583  0.43295  1.0000
  O   O9        1.0  0.15298000000000006  0.23568000000000006  0.32467  1.0000
  O   O10       1.0  0.08148  0.7233  0.9192  1.0000
  O   O11       1.0  0.84097  0.73552  0.93315  1.0000
  O   O12       1.0  0.08256  0.75922  0.34066  1.0000
  O   O13       1.0  0.84175  0.75928  0.32543  1.0000
  O   O14       1.0  0.41197  0.7310900000000002  0.8350199999999999  1.0000
  O   O15       1.0  0.27132  0.65685  0.18447  1.0000
  O   O16       1.0  0.23622  0.65777  0.5763  1.0000
  O   O17       1.0  0.7267600000000002  0.91638  0.09176  1.0000
  O   O18       1.0  0.73975  0.15547000000000002  0.07286  1.0000
  O   O19       1.0  0.77345  0.91245  0.67395  1.0000
  O   O20       1.0  0.7689400000000002  0.15364000000000005  0.67863  1.0000
  O   O21       1.0  0.7085500000000002  0.58279  0.16752  1.0000
  O   O22       1.0  0.6521300000000002  0.73172  0.82425  1.0000
  O   O23       1.0  0.6532900000000003  0.77314  0.43239  1.0000
  O   O24       1.0  0.9131300000000001  0.28092  0.91778  1.0000
  O   O25       1.0  0.9137300000000003  0.21821  0.33303  1.0000
  O   O26       1.0  0.58306  0.26425  0.84014  1.0000
  O   O27       1.0  0.7352100000000003  0.34253  0.182  1.0000
  O   O28       1.0  0.7676900000000001  0.34372  0.57389  1.0000
  O   O29       1.0  0.21773  0.41719  0.59092  1.0000
  O   O30       1.0  0.4128300000000001  0.78702  0.41938  1.0000
  O   O31       1.0  0.7543900000000002  0.58398  0.5848  1.0000
  O   O32       1.0  0.5832600000000001  0.23583  0.41828  1.0000
  O   O33       1.0  0.22729000000000002  0.52289  0.88388  1.0000
  O   O34       1.0  0.5179100000000001  0.77263  0.12408  1.0000
  O   O35       1.0  0.4758500000000001  0.27274  0.13254  1.0000
  O   O36       1.0  0.71787  0.47671000000000013  0.8744  1.0000
  O   O37       1.0  0.9728300000000002  0.71005  0.6249  1.0000
  O   O38       1.0  0.71863  0.02106  0.38766  1.0000
  O   O39       1.0  0.01813  0.23184  0.63242  1.0000
  O   O40       1.0  0.21803000000000006  0.9805500000000003  0.3752  1.0000
