data_image0
_chemical_formula_structural       Nd4Cu14H56C84I12N14O28
_chemical_formula_sum              "Nd4 Cu14 H56 C84 I12 N14 O28"
_cell_length_a       7.0275
_cell_length_b       18.139
_cell_length_c       24.704
_cell_angle_alpha    90.0
_cell_angle_beta     90.0
_cell_angle_gamma    99.86000000000001

_space_group_name_H-M_alt    "P 1"
_space_group_IT_number       1

loop_
  _space_group_symop_operation_xyz
  'x, y, z'

loop_
  _atom_site_type_symbol
  _atom_site_label
  _atom_site_symmetry_multiplicity
  _atom_site_fract_x
  _atom_site_fract_y
  _atom_site_fract_z
  _atom_site_occupancy
  Nd  Nd1       1.0  0.27833  0.484  0.59913  1.0000
  Nd  Nd2       1.0  0.7216699999999998  0.516  0.09913  1.0000
  Nd  Nd3       1.0  0.7216699999999998  0.516  0.40086999999999995  1.0000
  Nd  Nd4       1.0  0.27833  0.484  0.9008699999999998  1.0000
  Cu  Cu1       1.0  0.12082999999999991  0.9559599999999999  0.50757  1.0000
  Cu  Cu2       1.0  0.6729099999999998  0.93955  0.58061  1.0000
  Cu  Cu3       1.0  0.74959  0.05335  0.68422  1.0000
  Cu  Cu4       1.0  0.8791699999999998  0.04404  0.0075699999999999995  1.0000
  Cu  Cu5       1.0  0.32709  0.06044999999999999  0.08061  1.0000
  Cu  Cu6       1.0  0.25041  0.94665  0.18422  1.0000
  Cu  Cu7       1.0  0.8791699999999998  0.04404  0.49243  1.0000
  Cu  Cu8       1.0  0.32709  0.06044999999999999  0.41939  1.0000
  Cu  Cu9       1.0  0.25041  0.94665  0.31578  1.0000
  Cu  Cu10      1.0  0.12082999999999991  0.9559599999999999  0.99243  1.0000
  Cu  Cu11      1.0  0.6729099999999998  0.93955  0.91939  1.0000
  Cu  Cu12      1.0  0.74959  0.05335  0.81578  1.0000
  Cu  Cu13      1.0  0.7283799999999999  0.9343400000000001  0.7499999999999999  1.0000
  Cu  Cu14      1.0  0.27161999999999986  0.06566  0.25  1.0000
  H   H1        1.0  0.08479999999999999  0.8582  0.6047  1.0000
  H   H2        1.0  0.10109999999999997  0.7362  0.6284  1.0000
  H   H3        1.0  0.20219999999999994  0.6951  0.4722  1.0000
  H   H4        1.0  0.1778999999999999  0.817  0.4522999999999999  1.0000
  H   H5        1.0  0.6052999999999997  0.7925  0.6374  1.0000
  H   H6        1.0  0.5944999999999998  0.6676  0.6211  1.0000
  H   H7        1.0  0.6944999999999998  0.718  0.4642  1.0000
  H   H8        1.0  0.6928  0.8413  0.4846  1.0000
  H   H9        1.0  0.3928  0.1052  0.6533  1.0000
  H   H10       1.0  0.2733999999999999  0.2136  0.6384  1.0000
  H   H11       1.0  0.8062999999999998  0.3296  0.6618  1.0000
  H   H12       1.0  0.9058999999999998  0.2181  0.6796  1.0000
  H   H13       1.0  0.9152  0.1418  0.1047  1.0000
  H   H14       1.0  0.8988999999999998  0.2638  0.1284  1.0000
  H   H15       1.0  0.7977999999999997  0.3049  0.9721999999999998  1.0000
  H   H16       1.0  0.8220999999999998  0.183  0.9523  1.0000
  H   H17       1.0  0.39469999999999994  0.2075  0.1374  1.0000
  H   H18       1.0  0.4054999999999999  0.3324  0.1211  1.0000
  H   H19       1.0  0.3055  0.282  0.9642  1.0000
  H   H20       1.0  0.3072  0.1587  0.9846  1.0000
  H   H21       1.0  0.6072  0.8948  0.1533  1.0000
  H   H22       1.0  0.7265999999999998  0.7864  0.1384  1.0000
  H   H23       1.0  0.19370000000000004  0.6704  0.1618  1.0000
  H   H24       1.0  0.09410000000000003  0.7819  0.17959999999999998  1.0000
  H   H25       1.0  0.9152  0.1418  0.3953  1.0000
  H   H26       1.0  0.8988999999999998  0.2638  0.3716  1.0000
  H   H27       1.0  0.7977999999999997  0.3049  0.5278  1.0000
  H   H28       1.0  0.8220999999999998  0.183  0.5477  1.0000
  H   H29       1.0  0.39469999999999994  0.2075  0.3626  1.0000
  H   H30       1.0  0.4054999999999999  0.3324  0.3789  1.0000
  H   H31       1.0  0.3055  0.282  0.5358  1.0000
  H   H32       1.0  0.3072  0.1587  0.5154  1.0000
  H   H33       1.0  0.6072  0.8948  0.3467  1.0000
  H   H34       1.0  0.7265999999999998  0.7864  0.3616  1.0000
  H   H35       1.0  0.19370000000000004  0.6704  0.3382  1.0000
  H   H36       1.0  0.09410000000000003  0.7819  0.3204  1.0000
  H   H37       1.0  0.08479999999999999  0.8582  0.8953  1.0000
  H   H38       1.0  0.10109999999999997  0.7362  0.8715999999999999  1.0000
  H   H39       1.0  0.20219999999999994  0.6951  0.0278  1.0000
  H   H40       1.0  0.1778999999999999  0.817  0.0477  1.0000
  H   H41       1.0  0.6052999999999997  0.7925  0.8626  1.0000
  H   H42       1.0  0.5944999999999998  0.6676  0.8789  1.0000
  H   H43       1.0  0.6944999999999998  0.718  0.0358  1.0000
  H   H44       1.0  0.6928  0.8413  0.0154  1.0000
  H   H45       1.0  0.3928  0.1052  0.8467  1.0000
  H   H46       1.0  0.2733999999999999  0.2136  0.8616  1.0000
  H   H47       1.0  0.8062999999999998  0.3296  0.8382  1.0000
  H   H48       1.0  0.9058999999999998  0.2181  0.8204  1.0000
  H   H49       1.0  0.1168  0.8942  0.7499999999999999  1.0000
  H   H50       1.0  0.2701999999999999  0.7917  0.7499999999999999  1.0000
  H   H51       1.0  0.7503  0.66  0.7499999999999999  1.0000
  H   H52       1.0  0.6142  0.7657  0.7499999999999999  1.0000
  H   H53       1.0  0.8831999999999998  0.1058  0.25  1.0000
  H   H54       1.0  0.7297999999999998  0.2083  0.25  1.0000
  H   H55       1.0  0.2496999999999999  0.34  0.25  1.0000
  H   H56       1.0  0.38579999999999987  0.23430000000000004  0.25  1.0000
  C   C1        1.0  0.10659999999999993  0.8246  0.57786  1.0000
  C   C2        1.0  0.11760000000000001  0.7516  0.59257  1.0000
  C   C3        1.0  0.15370000000000006  0.7022  0.55264  1.0000
  C   C4        1.0  0.17699999999999988  0.7273  0.49954  1.0000
  C   C5        1.0  0.16239999999999993  0.8003  0.4879  1.0000
  C   C6        1.0  0.17109999999999995  0.6233  0.5677  1.0000
  C   C7        1.0  0.622  0.7769  0.60213  1.0000
  C   C8        1.0  0.6167999999999998  0.7019  0.59285  1.0000
  C   C9        1.0  0.6454  0.6783  0.54031  1.0000
  C   C10       1.0  0.6748  0.7319  0.49974999999999997  1.0000
  C   C11       1.0  0.6748  0.8061  0.51234  1.0000
  C   C12       1.0  0.6429  0.5967  0.52766  1.0000
  C   C13       1.0  0.4762999999999999  0.1508  0.6556  1.0000
  C   C14       1.0  0.40369999999999995  0.2159  0.64634  1.0000
  C   C15       1.0  0.5247999999999998  0.2845  0.64888  1.0000
  C   C16       1.0  0.7186  0.285  0.6606  1.0000
  C   C17       1.0  0.7771999999999996  0.2172  0.6704  1.0000
  C   C18       1.0  0.44759999999999994  0.3556  0.63809  1.0000
  C   C19       1.0  0.8934  0.1754  0.07786  1.0000
  C   C20       1.0  0.8824  0.2484  0.09257  1.0000
  C   C21       1.0  0.8462999999999998  0.2978  0.05264  1.0000
  C   C22       1.0  0.8229999999999997  0.2727  0.9995399999999998  1.0000
  C   C23       1.0  0.8375999999999998  0.1997  0.9878999999999999  1.0000
  C   C24       1.0  0.8289  0.3767  0.0677  1.0000
  C   C25       1.0  0.3779999999999999  0.2231  0.10213  1.0000
  C   C26       1.0  0.3831999999999999  0.2981  0.09284999999999999  1.0000
  C   C27       1.0  0.3546  0.3217  0.04031  1.0000
  C   C28       1.0  0.32519999999999993  0.2681  0.99975  1.0000
  C   C29       1.0  0.32519999999999993  0.1939  0.01234  1.0000
  C   C30       1.0  0.3570999999999999  0.4033  0.02766  1.0000
  C   C31       1.0  0.5236999999999998  0.8492  0.1556  1.0000
  C   C32       1.0  0.5962999999999998  0.7841  0.14634  1.0000
  C   C33       1.0  0.4751999999999999  0.7155  0.14888  1.0000
  C   C34       1.0  0.2813999999999999  0.715  0.1606  1.0000
  C   C35       1.0  0.22279999999999997  0.7828  0.1704  1.0000
  C   C36       1.0  0.5523999999999999  0.6444  0.13809  1.0000
  C   C37       1.0  0.8934  0.1754  0.42214  1.0000
  C   C38       1.0  0.8824  0.2484  0.40742999999999996  1.0000
  C   C39       1.0  0.8462999999999998  0.2978  0.44736  1.0000
  C   C40       1.0  0.8229999999999997  0.2727  0.50046  1.0000
  C   C41       1.0  0.8375999999999998  0.1997  0.5121  1.0000
  C   C42       1.0  0.8289  0.3767  0.4323  1.0000
  C   C43       1.0  0.3779999999999999  0.2231  0.39787  1.0000
  C   C44       1.0  0.3831999999999999  0.2981  0.40715  1.0000
  C   C45       1.0  0.3546  0.3217  0.45969  1.0000
  C   C46       1.0  0.32519999999999993  0.2681  0.50025  1.0000
  C   C47       1.0  0.32519999999999993  0.1939  0.48766  1.0000
  C   C48       1.0  0.3570999999999999  0.4033  0.47234  1.0000
  C   C49       1.0  0.5236999999999998  0.8492  0.34439999999999993  1.0000
  C   C50       1.0  0.5962999999999998  0.7841  0.3536599999999999  1.0000
  C   C51       1.0  0.4751999999999999  0.7155  0.35112  1.0000
  C   C52       1.0  0.2813999999999999  0.715  0.3394  1.0000
  C   C53       1.0  0.22279999999999997  0.7828  0.32959999999999995  1.0000
  C   C54       1.0  0.5523999999999999  0.6444  0.36191  1.0000
  C   C55       1.0  0.10659999999999993  0.8246  0.92214  1.0000
  C   C56       1.0  0.11760000000000001  0.7516  0.9074299999999997  1.0000
  C   C57       1.0  0.15370000000000006  0.7022  0.94736  1.0000
  C   C58       1.0  0.17699999999999988  0.7273  0.00045999999999999996  1.0000
  C   C59       1.0  0.16239999999999993  0.8003  0.012099999999999998  1.0000
  C   C60       1.0  0.17109999999999995  0.6233  0.9323  1.0000
  C   C61       1.0  0.622  0.7769  0.89787  1.0000
  C   C62       1.0  0.6167999999999998  0.7019  0.90715  1.0000
  C   C63       1.0  0.6454  0.6783  0.95969  1.0000
  C   C64       1.0  0.6748  0.7319  0.00025  1.0000
  C   C65       1.0  0.6748  0.8061  0.98766  1.0000
  C   C66       1.0  0.6429  0.5967  0.97234  1.0000
  C   C67       1.0  0.4762999999999999  0.1508  0.8444  1.0000
  C   C68       1.0  0.40369999999999995  0.2159  0.85366  1.0000
  C   C69       1.0  0.5247999999999998  0.2845  0.8511199999999998  1.0000
  C   C70       1.0  0.7186  0.285  0.8394  1.0000
  C   C71       1.0  0.7771999999999996  0.2172  0.8296  1.0000
  C   C72       1.0  0.44759999999999994  0.3556  0.86191  1.0000
  C   C73       1.0  0.042199999999999994  0.8466  0.7499999999999999  1.0000
  C   C74       1.0  0.13599999999999995  0.7848  0.7499999999999999  1.0000
  C   C75       1.0  0.02900000000000004  0.713  0.7499999999999999  1.0000
  C   C76       1.0  0.8287  0.7068  0.7499999999999999  1.0000
  C   C77       1.0  0.7481999999999998  0.7711  0.7499999999999999  1.0000
  C   C78       1.0  0.1304  0.6453  0.7499999999999999  1.0000
  C   C79       1.0  0.9577999999999998  0.1534  0.25  1.0000
  C   C80       1.0  0.8639999999999999  0.2152  0.25  1.0000
  C   C81       1.0  0.9709999999999998  0.287  0.25  1.0000
  C   C82       1.0  0.17129999999999998  0.2932  0.25  1.0000
  C   C83       1.0  0.2518  0.2289  0.25  1.0000
  C   C84       1.0  0.8695999999999999  0.3547  0.25  1.0000
  I   I1        1.0  0.01026  0.02946  0.58993  1.0000
  I   I2        1.0  0.4762899999999999  0.9426800000000001  0.6702  1.0000
  I   I3        1.0  0.9897399999999997  0.97054  0.08993  1.0000
  I   I4        1.0  0.52371  0.05732  0.1702  1.0000
  I   I5        1.0  0.9897399999999997  0.97054  0.41007  1.0000
  I   I6        1.0  0.52371  0.05732  0.3298  1.0000
  I   I7        1.0  0.01026  0.02946  0.9100699999999999  1.0000
  I   I8        1.0  0.4762899999999999  0.9426800000000001  0.8298  1.0000
  I   I9        1.0  0.4999999999999999  0.0  0.5  1.0000
  I   I10       1.0  0.4999999999999999  0.0  0.0  1.0000
  I   I11       1.0  0.030919999999999993  0.05825  0.7499999999999999  1.0000
  I   I12       1.0  0.96908  0.9417499999999999  0.25  1.0000
  N   N1        1.0  0.1261  0.84864  0.52681  1.0000
  N   N2        1.0  0.6499999999999998  0.82927  0.56288  1.0000
  N   N3        1.0  0.6622999999999999  0.1507  0.6676999999999998  1.0000
  N   N4        1.0  0.8738999999999999  0.15136  0.02681  1.0000
  N   N5        1.0  0.35  0.17073  0.06288  1.0000
  N   N6        1.0  0.3376999999999999  0.8493  0.1677  1.0000
  N   N7        1.0  0.8738999999999999  0.15136  0.47318999999999994  1.0000
  N   N8        1.0  0.35  0.17073  0.43712  1.0000
  N   N9        1.0  0.3376999999999999  0.8493  0.33229999999999993  1.0000
  N   N10       1.0  0.1261  0.84864  0.97319  1.0000
  N   N11       1.0  0.6499999999999998  0.82927  0.93712  1.0000
  N   N12       1.0  0.6622999999999999  0.1507  0.8323  1.0000
  N   N13       1.0  0.8503  0.8406  0.7499999999999999  1.0000
  N   N14       1.0  0.14969999999999994  0.1594  0.25  1.0000
  O   O1        1.0  0.19949999999999996  0.57836  0.53035  1.0000
  O   O2        1.0  0.1665  0.60512  0.61676  1.0000
  O   O3        1.0  0.5785  0.54937  0.56285  1.0000
  O   O4        1.0  0.7103  0.58309  0.48226  1.0000
  O   O5        1.0  0.5629999999999997  0.41606  0.63099  1.0000
  O   O6        1.0  0.2689  0.35246  0.63596  1.0000
  O   O7        1.0  0.8004999999999998  0.42164  0.030349999999999995  1.0000
  O   O8        1.0  0.8334999999999997  0.39488  0.11676  1.0000
  O   O9        1.0  0.4214999999999998  0.4506299999999999  0.06285  1.0000
  O   O10       1.0  0.28969999999999996  0.41691  0.98226  1.0000
  O   O11       1.0  0.4369999999999999  0.58394  0.13099  1.0000
  O   O12       1.0  0.7310999999999998  0.64754  0.13596  1.0000
  O   O13       1.0  0.8004999999999998  0.42164  0.46964999999999996  1.0000
  O   O14       1.0  0.8334999999999997  0.39488  0.38323999999999997  1.0000
  O   O15       1.0  0.4214999999999998  0.4506299999999999  0.43715  1.0000
  O   O16       1.0  0.28969999999999996  0.41691  0.51774  1.0000
  O   O17       1.0  0.4369999999999999  0.58394  0.36901  1.0000
  O   O18       1.0  0.7310999999999998  0.64754  0.36404  1.0000
  O   O19       1.0  0.19949999999999996  0.57836  0.96965  1.0000
  O   O20       1.0  0.1665  0.60512  0.88324  1.0000
  O   O21       1.0  0.5785  0.54937  0.9371499999999999  1.0000
  O   O22       1.0  0.7103  0.58309  0.01774  1.0000
  O   O23       1.0  0.5629999999999997  0.41606  0.86901  1.0000
  O   O24       1.0  0.2689  0.35246  0.8640399999999999  1.0000
  O   O25       1.0  0.3103999999999999  0.6562  0.7499999999999999  1.0000
  O   O26       1.0  0.02259999999999999  0.5817  0.7499999999999999  1.0000
  O   O27       1.0  0.6896  0.3438  0.25  1.0000
  O   O28       1.0  0.9773999999999999  0.4183  0.25  1.0000
