data_image0
_chemical_formula_structural       Zn4H8C12N12O8
_chemical_formula_sum              "Zn4 H8 C12 N12 O8"
_cell_length_a       9.0401
_cell_length_b       10.001289999999997
_cell_length_c       9.37408
_cell_angle_alpha    89.97706
_cell_angle_beta     118.34290000000001
_cell_angle_gamma    90.04046999999998

_space_group_name_H-M_alt    "P 1"
_space_group_IT_number       1

loop_
  _space_group_symop_operation_xyz
  'x, y, z'

loop_
  _atom_site_type_symbol
  _atom_site_label
  _atom_site_symmetry_multiplicity
  _atom_site_fract_x
  _atom_site_fract_y
  _atom_site_fract_z
  _atom_site_occupancy
  Zn  Zn1       1.0  0.65155  0.49629  0.62476  1.0000
  Zn  Zn2       1.0  0.00013000000000000004  0.99635  0.00026  1.0000
  Zn  Zn3       1.0  0.65146  0.8841  0.12469000000000001  1.0000
  Zn  Zn4       1.0  0.00022000000000003378  0.38419000000000003  0.50033  1.0000
  H   H1        1.0  0.09776999999999998  0.13512  0.73977  1.0000
  H   H2        1.0  0.9364799999999999  0.7410900000000001  0.77262  1.0000
  H   H3        1.0  0.71485  0.24093  0.85252  1.0000
  H   H4        1.0  0.5530999999999999  0.63517  0.88497  1.0000
  H   H5        1.0  0.09879000000000002  0.24452000000000002  0.24079000000000006  1.0000
  H   H6        1.0  0.93543  0.63899  0.27128  1.0000
  H   H7        1.0  0.71602  0.1388  0.35403  1.0000
  H   H8        1.0  0.55278  0.7446  0.38457  1.0000
  C   C1        1.0  0.35533000000000003  0.41004000000000007  0.6479300000000001  1.0000
  C   C2        1.0  0.9939000000000001  0.18628  0.74294  1.0000
  C   C3        1.0  0.79961  0.2387  0.80094  1.0000
  C   C4        1.0  0.8516299999999999  0.7387700000000001  0.8241  1.0000
  C   C5        1.0  0.65714  0.6862800000000001  0.88189  1.0000
  C   C6        1.0  0.29618000000000005  0.91007  0.9770000000000001  1.0000
  C   C7        1.0  0.35523  0.9729500000000002  0.1471  1.0000
  C   C8        1.0  0.9947200000000002  0.19356  0.24387999999999999  1.0000
  C   C9        1.0  0.80059  0.14112  0.30222000000000004  1.0000
  C   C10       1.0  0.85074  0.64121  0.32293  1.0000
  C   C11       1.0  0.65667  0.6935700000000001  0.3813000000000001  1.0000
  C   C12       1.0  0.29639  0.47291000000000005  0.47778  1.0000
  N   N1        1.0  0.9206  0.29536  0.6567  1.0000
  N   N2        1.0  0.79465  0.32894  0.6936  1.0000
  N   N3        1.0  0.7287599999999999  0.64741  0.79004  1.0000
  N   N4        1.0  0.92231  0.14733  0.83483  1.0000
  N   N5        1.0  0.8567  0.82894  0.93148  1.0000
  N   N6        1.0  0.73062  0.7953  0.96825  1.0000
  N   N7        1.0  0.9208099999999999  0.08476  0.15726  1.0000
  N   N8        1.0  0.79497  0.0512  0.19439  1.0000
  N   N9        1.0  0.72787  0.73245  0.28904  1.0000
  N   N10       1.0  0.9236399999999999  0.23234000000000002  0.33621  1.0000
  N   N11       1.0  0.8561599999999999  0.55113  0.43059  1.0000
  N   N12       1.0  0.73038  0.58466  0.46774  1.0000
  O   O1        1.0  0.24179999999999996  0.36640000000000006  0.67989  1.0000
  O   O2        1.0  0.51138  0.40697  0.74313  1.0000
  O   O3        1.0  0.14012  0.90695  0.88176  1.0000
  O   O4        1.0  0.4097099999999999  0.86654  0.94512  1.0000
  O   O5        1.0  0.24203  0.01932  0.17784  1.0000
  O   O6        1.0  0.51107  0.97333  0.24335  1.0000
  O   O7        1.0  0.14053  0.47339  0.38155  1.0000
  O   O8        1.0  0.40968  0.5191200000000001  0.447  1.0000
