data_image0
_chemical_formula_structural       Ca6Si4H68C112O32
_chemical_formula_sum              "Ca6 Si4 H68 C112 O32"
_cell_length_a       13.6691
_cell_length_b       14.569
_cell_length_c       23.6874
_cell_angle_alpha    90.0
_cell_angle_beta     90.0
_cell_angle_gamma    114.939

_symmetry_space_group_name_H-M    'P 1'
_symmetry_Int_Tables_number       1

loop_
  _symmetry_equiv_pos_as_xyz
  'x,y,z'

loop_
  _atom_site_type_symbol
  _atom_site_label
  _atom_site_symmetry_multiplicity
  _atom_site_fract_x
  _atom_site_fract_y
  _atom_site_fract_z
  _atom_site_occupancy
  Ca  Ca1       1.0  0.01577  0.0013200000000000004  0.65686  1.0000
  Ca  Ca2       1.0  0.98423  0.49868000000000007  0.15686  1.0000
  Ca  Ca3       1.0  0.98423  0.9986800000000002  0.34314  1.0000
  Ca  Ca4       1.0  0.01577  0.50132  0.84314  1.0000
  Ca  Ca5       1.0  0.0  0.0  0.5  1.0000
  Ca  Ca6       1.0  0.0  0.5  0.0  1.0000
  Si  Si1       1.0  0.7068399999999999  0.37959  0.50911  1.0000
  Si  Si2       1.0  0.29315999999999987  0.12041000000000002  0.00911  1.0000
  Si  Si3       1.0  0.29315999999999987  0.62041  0.49089  1.0000
  Si  Si4       1.0  0.7068399999999999  0.8795900000000001  0.99089  1.0000
  H   H1        1.0  0.874  0.41740000000000005  0.5997  1.0000
  H   H2        1.0  0.9675999999999999  0.32760000000000006  0.6346  1.0000
  H   H3        1.0  0.8190999999999998  0.1063  0.5197  1.0000
  H   H4        1.0  0.7261  0.196  0.4851  1.0000
  H   H5        1.0  0.5891  0.2075  0.5836  1.0000
  H   H6        1.0  0.4098999999999999  0.11400000000000002  0.6103  1.0000
  H   H7        1.0  0.3193  0.2871  0.5077  1.0000
  H   H8        1.0  0.49940000000000007  0.3885000000000001  0.4876  1.0000
  H   H9        1.0  0.8878999999999999  0.5713  0.4802000000000001  1.0000
  H   H10       1.0  0.9597999999999998  0.7367  0.5131  1.0000
  H   H11       1.0  0.7182  0.6604  0.6269  1.0000
  H   H12       1.0  0.6458999999999999  0.4943  0.5934  1.0000
  H   H13       1.0  0.5642  0.3199  0.4058000000000001  1.0000
  H   H14       1.0  0.5953  0.3269  0.3084  1.0000
  H   H15       1.0  0.9166999999999997  0.437  0.3372  1.0000
  H   H16       1.0  0.8853  0.4261  0.4339000000000001  1.0000
  H   H17       1.0  0.7289999999999999  0.37700000000000006  0.18240000000000003  1.0000
  H   H18       1.0  0.126  0.0826  0.09970000000000002  1.0000
  H   H19       1.0  0.032400000000000005  0.1724  0.1346  1.0000
  H   H20       1.0  0.1809  0.3937  0.0197  1.0000
  H   H21       1.0  0.2739  0.304  0.9851000000000001  1.0000
  H   H22       1.0  0.4109  0.2925  0.08360000000000001  1.0000
  H   H23       1.0  0.5901  0.386  0.1103  1.0000
  H   H24       1.0  0.6807  0.2129  0.0077  1.0000
  H   H25       1.0  0.5006  0.1115  0.9876  1.0000
  H   H26       1.0  0.11210000000000002  0.9287  0.9802  1.0000
  H   H27       1.0  0.04020000000000006  0.7633000000000002  0.013100000000000002  1.0000
  H   H28       1.0  0.2818000000000001  0.8396000000000002  0.1269  1.0000
  H   H29       1.0  0.3541  0.0057  0.09340000000000002  1.0000
  H   H30       1.0  0.4357999999999998  0.1801  0.9058000000000003  1.0000
  H   H31       1.0  0.4047  0.1731  0.8084000000000002  1.0000
  H   H32       1.0  0.0833  0.063  0.8372000000000002  1.0000
  H   H33       1.0  0.11469999999999995  0.0739  0.9339000000000001  1.0000
  H   H34       1.0  0.271  0.123  0.6824000000000001  1.0000
  H   H35       1.0  0.12599999999999995  0.5826  0.4003000000000001  1.0000
  H   H36       1.0  0.0324000000000001  0.6724000000000002  0.36540000000000006  1.0000
  H   H37       1.0  0.1808999999999999  0.8937  0.4803  1.0000
  H   H38       1.0  0.2739  0.804  0.5149  1.0000
  H   H39       1.0  0.4109  0.7925  0.4164  1.0000
  H   H40       1.0  0.5901  0.8860000000000001  0.3897000000000001  1.0000
  H   H41       1.0  0.6807  0.7129  0.4923  1.0000
  H   H42       1.0  0.5006  0.6115  0.5124  1.0000
  H   H43       1.0  0.11210000000000003  0.4287  0.5198  1.0000
  H   H44       1.0  0.0402  0.2633  0.4869  1.0000
  H   H45       1.0  0.2818  0.33960000000000007  0.3731000000000001  1.0000
  H   H46       1.0  0.3541  0.5057  0.4066000000000001  1.0000
  H   H47       1.0  0.4357999999999999  0.6801  0.5942  1.0000
  H   H48       1.0  0.4047  0.6731  0.6916000000000001  1.0000
  H   H49       1.0  0.08330000000000001  0.563  0.6628000000000001  1.0000
  H   H50       1.0  0.11469999999999997  0.5739  0.5661  1.0000
  H   H51       1.0  0.271  0.623  0.8176000000000002  1.0000
  H   H52       1.0  0.874  0.9174  0.9003  1.0000
  H   H53       1.0  0.9675999999999999  0.8276  0.8654  1.0000
  H   H54       1.0  0.8190999999999998  0.6063000000000001  0.9803000000000001  1.0000
  H   H55       1.0  0.7261000000000001  0.6960000000000001  0.0149  1.0000
  H   H56       1.0  0.5891  0.7075000000000001  0.9164  1.0000
  H   H57       1.0  0.40989999999999993  0.614  0.8897  1.0000
  H   H58       1.0  0.3193  0.7871000000000001  0.9923000000000001  1.0000
  H   H59       1.0  0.4994  0.8885  0.0124  1.0000
  H   H60       1.0  0.8878999999999999  0.0713  0.0198  1.0000
  H   H61       1.0  0.9597999999999999  0.2367  0.9869  1.0000
  H   H62       1.0  0.7182  0.16040000000000004  0.8731  1.0000
  H   H63       1.0  0.6458999999999999  0.9943  0.9066  1.0000
  H   H64       1.0  0.5642  0.8199000000000001  0.09420000000000002  1.0000
  H   H65       1.0  0.5953  0.8269000000000002  0.19160000000000005  1.0000
  H   H66       1.0  0.9166999999999997  0.937  0.1628  1.0000
  H   H67       1.0  0.8853  0.9261  0.0661  1.0000
  H   H68       1.0  0.729  0.8770000000000002  0.3176  1.0000
  C   C1        1.0  0.78938  0.3163200000000001  0.5389  1.0000
  C   C2        1.0  0.8622  0.35405  0.58338  1.0000
  C   C3        1.0  0.9179999999999998  0.30055  0.60433  1.0000
  C   C4        1.0  0.9012499999999999  0.20763000000000006  0.58109  1.0000
  C   C5        1.0  0.8299999999999997  0.1693  0.53626  1.0000
  C   C6        1.0  0.7748799999999998  0.22299  0.51569  1.0000
  C   C7        1.0  0.95848  0.14699  0.6033600000000001  1.0000
  C   C8        1.0  0.56374  0.30735  0.53164  1.0000
  C   C9        1.0  0.53458  0.22471  0.5686400000000001  1.0000
  C   C10       1.0  0.42750999999999983  0.16756  0.5838  1.0000
  C   C11       1.0  0.34662  0.18880000000000002  0.56021  1.0000
  C   C12       1.0  0.3742  0.27147  0.52376  1.0000
  C   C13       1.0  0.4814799999999999  0.33065  0.51101  1.0000
  C   C14       1.0  0.23049  0.12182000000000001  0.57081  1.0000
  C   C15       1.0  0.75982  0.51416  0.53358  1.0000
  C   C16       1.0  0.8529899999999999  0.58866  0.51026  1.0000
  C   C17       1.0  0.89603  0.68752  0.52981  1.0000
  C   C18       1.0  0.8467699999999999  0.71492  0.5734  1.0000
  C   C19       1.0  0.75311  0.64238  0.59706  1.0000
  C   C20       1.0  0.71026  0.54314  0.5770700000000001  1.0000
  C   C21       1.0  0.8954999999999999  0.82153  0.59516  1.0000
  C   C22       1.0  0.7212999999999999  0.37556  0.43041000000000007  1.0000
  C   C23       1.0  0.63611  0.3443  0.39211000000000007  1.0000
  C   C24       1.0  0.65431  0.3481500000000001  0.33399  1.0000
  C   C25       1.0  0.7589899999999999  0.38317  0.31374  1.0000
  C   C26       1.0  0.84501  0.41295  0.35112000000000004  1.0000
  C   C27       1.0  0.82617  0.40764  0.40858  1.0000
  C   C28       1.0  0.78519  0.3919000000000001  0.25247  1.0000
  C   C29       1.0  0.21062  0.18368  0.0389  1.0000
  C   C30       1.0  0.1378  0.14595  0.08338  1.0000
  C   C31       1.0  0.08199999999999998  0.19945  0.10433000000000002  1.0000
  C   C32       1.0  0.09875  0.29237  0.08109  1.0000
  C   C33       1.0  0.16999999999999998  0.3307  0.03626000000000001  1.0000
  C   C34       1.0  0.22511999999999996  0.27701  0.01569  1.0000
  C   C35       1.0  0.04151999999999997  0.35301  0.10336000000000001  1.0000
  C   C36       1.0  0.43626  0.19265  0.03164000000000001  1.0000
  C   C37       1.0  0.46542  0.27529  0.06864  1.0000
  C   C38       1.0  0.57249  0.33244  0.0838  1.0000
  C   C39       1.0  0.6533799999999997  0.3112  0.06021  1.0000
  C   C40       1.0  0.6257999999999998  0.22853  0.02376  1.0000
  C   C41       1.0  0.5185200000000001  0.16935  0.01101  1.0000
  C   C42       1.0  0.76951  0.37818000000000007  0.07081  1.0000
  C   C43       1.0  0.24017999999999995  0.98584  0.03358  1.0000
  C   C44       1.0  0.1470099999999999  0.91134  0.01026  1.0000
  C   C45       1.0  0.10397000000000005  0.81248  0.02981  1.0000
  C   C46       1.0  0.15323000000000006  0.78508  0.0734  1.0000
  C   C47       1.0  0.24689000000000008  0.8576200000000002  0.09706  1.0000
  C   C48       1.0  0.2897399999999999  0.95686  0.07707  1.0000
  C   C49       1.0  0.10450000000000007  0.6784700000000001  0.09516  1.0000
  C   C50       1.0  0.2787  0.12444  0.93041  1.0000
  C   C51       1.0  0.36389  0.1557  0.89211  1.0000
  C   C52       1.0  0.3456899999999999  0.15185  0.8339900000000002  1.0000
  C   C53       1.0  0.24100999999999995  0.11683  0.81374  1.0000
  C   C54       1.0  0.15499  0.08705  0.85112  1.0000
  C   C55       1.0  0.17383  0.09236  0.9085800000000003  1.0000
  C   C56       1.0  0.21481  0.1081  0.75247  1.0000
  C   C57       1.0  0.21062000000000008  0.6836800000000002  0.4611000000000001  1.0000
  C   C58       1.0  0.13779999999999995  0.64595  0.41662000000000005  1.0000
  C   C59       1.0  0.08200000000000006  0.69945  0.39567  1.0000
  C   C60       1.0  0.09875000000000012  0.7923700000000002  0.41891000000000006  1.0000
  C   C61       1.0  0.16999999999999993  0.8307  0.46374000000000004  1.0000
  C   C62       1.0  0.22512  0.77701  0.48431000000000013  1.0000
  C   C63       1.0  0.041520000000000015  0.85301  0.39664  1.0000
  C   C64       1.0  0.43626  0.69265  0.46836  1.0000
  C   C65       1.0  0.46542  0.7752900000000003  0.43136  1.0000
  C   C66       1.0  0.57249  0.8324400000000001  0.4162000000000001  1.0000
  C   C67       1.0  0.6533799999999998  0.8112000000000003  0.43979  1.0000
  C   C68       1.0  0.6257999999999998  0.7285300000000001  0.47624000000000005  1.0000
  C   C69       1.0  0.5185200000000001  0.6693500000000001  0.48899  1.0000
  C   C70       1.0  0.76951  0.87818  0.42919  1.0000
  C   C71       1.0  0.24017999999999995  0.48584  0.46642000000000006  1.0000
  C   C72       1.0  0.14701  0.41134  0.48974000000000006  1.0000
  C   C73       1.0  0.10397  0.31248  0.47019  1.0000
  C   C74       1.0  0.15322999999999995  0.28508  0.4266  1.0000
  C   C75       1.0  0.24689  0.35762  0.40294  1.0000
  C   C76       1.0  0.28974  0.45686  0.42293000000000003  1.0000
  C   C77       1.0  0.1045  0.17847  0.40484000000000003  1.0000
  C   C78       1.0  0.2787  0.6244400000000001  0.56959  1.0000
  C   C79       1.0  0.36389  0.6557  0.60789  1.0000
  C   C80       1.0  0.3456899999999999  0.65185  0.66601  1.0000
  C   C81       1.0  0.24100999999999995  0.61683  0.68626  1.0000
  C   C82       1.0  0.15499  0.58705  0.64888  1.0000
  C   C83       1.0  0.17383000000000004  0.59236  0.59142  1.0000
  C   C84       1.0  0.21481  0.6081  0.74753  1.0000
  C   C85       1.0  0.78938  0.81632  0.9611000000000001  1.0000
  C   C86       1.0  0.8622  0.85405  0.9166200000000002  1.0000
  C   C87       1.0  0.9179999999999998  0.80055  0.8956700000000001  1.0000
  C   C88       1.0  0.9012499999999999  0.70763  0.91891  1.0000
  C   C89       1.0  0.8299999999999997  0.6693  0.96374  1.0000
  C   C90       1.0  0.7748799999999999  0.7229900000000002  0.98431  1.0000
  C   C91       1.0  0.95848  0.64699  0.8966400000000001  1.0000
  C   C92       1.0  0.56374  0.80735  0.96836  1.0000
  C   C93       1.0  0.53458  0.72471  0.93136  1.0000
  C   C94       1.0  0.4275099999999999  0.66756  0.9162000000000002  1.0000
  C   C95       1.0  0.34662  0.6888  0.93979  1.0000
  C   C96       1.0  0.3742  0.77147  0.9762400000000002  1.0000
  C   C97       1.0  0.48148  0.83065  0.98899  1.0000
  C   C98       1.0  0.23049  0.62182  0.92919  1.0000
  C   C99       1.0  0.75982  0.01416  0.96642  1.0000
  C   C100      1.0  0.8529899999999999  0.08866  0.98974  1.0000
  C   C101      1.0  0.89603  0.18752  0.97019  1.0000
  C   C102      1.0  0.8467699999999999  0.21492000000000003  0.9266  1.0000
  C   C103      1.0  0.75311  0.14238  0.90294  1.0000
  C   C104      1.0  0.71026  0.04314  0.92293  1.0000
  C   C105      1.0  0.8954999999999999  0.32153  0.9048400000000001  1.0000
  C   C106      1.0  0.7212999999999999  0.87556  0.06959  1.0000
  C   C107      1.0  0.63611  0.8443  0.10789  1.0000
  C   C108      1.0  0.65431  0.84815  0.16601  1.0000
  C   C109      1.0  0.75899  0.8831700000000001  0.18626  1.0000
  C   C110      1.0  0.8450100000000001  0.9129500000000003  0.14888  1.0000
  C   C111      1.0  0.82617  0.9076400000000002  0.09142  1.0000
  C   C112      1.0  0.78519  0.8919000000000002  0.24753  1.0000
  O   O1        1.0  0.013160000000000007  0.17290000000000003  0.64744  1.0000
  O   O2        1.0  0.9467899999999998  0.06745  0.57669  1.0000
  O   O3        1.0  0.16899999999999998  0.10199  0.5291500000000001  1.0000
  O   O4        1.0  0.19985  0.08789  0.6201700000000001  1.0000
  O   O5        1.0  0.85183  0.84496  0.63586  1.0000
  O   O6        1.0  0.9821299999999998  0.88459  0.57228  1.0000
  O   O7        1.0  0.8774099999999998  0.4174300000000001  0.23617000000000002  1.0000
  O   O8        1.0  0.7033499999999998  0.3714100000000001  0.21792  1.0000
  O   O9        1.0  0.9868399999999999  0.3271000000000001  0.14744  1.0000
  O   O10       1.0  0.05321000000000001  0.43255  0.07669  1.0000
  O   O11       1.0  0.8309999999999998  0.39801000000000003  0.02915  1.0000
  O   O12       1.0  0.80015  0.41211  0.12017  1.0000
  O   O13       1.0  0.14817000000000002  0.6550400000000001  0.13586000000000004  1.0000
  O   O14       1.0  0.017870000000000014  0.61541  0.07228  1.0000
  O   O15       1.0  0.12259  0.08257  0.73617  1.0000
  O   O16       1.0  0.29665  0.12859  0.71792  1.0000
  O   O17       1.0  0.9868399999999998  0.8271  0.35256  1.0000
  O   O18       1.0  0.053209999999999875  0.93255  0.4233100000000001  1.0000
  O   O19       1.0  0.831  0.8980100000000002  0.47085  1.0000
  O   O20       1.0  0.80015  0.91211  0.37983  1.0000
  O   O21       1.0  0.14817  0.15504000000000004  0.36414  1.0000
  O   O22       1.0  0.01787  0.11541000000000001  0.42772000000000004  1.0000
  O   O23       1.0  0.12258999999999998  0.58257  0.7638300000000001  1.0000
  O   O24       1.0  0.2966500000000001  0.6285900000000002  0.78208  1.0000
  O   O25       1.0  0.013159999999999982  0.6729  0.85256  1.0000
  O   O26       1.0  0.9467899999999998  0.56745  0.92331  1.0000
  O   O27       1.0  0.16899999999999996  0.60199  0.9708500000000001  1.0000
  O   O28       1.0  0.19985  0.58789  0.8798300000000001  1.0000
  O   O29       1.0  0.8518299999999995  0.34496  0.86414  1.0000
  O   O30       1.0  0.9821299999999997  0.38459  0.92772  1.0000
  O   O31       1.0  0.8774099999999998  0.91743  0.26383  1.0000
  O   O32       1.0  0.7033499999999998  0.87141  0.28208000000000005  1.0000
