data_image0
_chemical_formula_structural       Al16H144C240O96
_chemical_formula_sum              "Al16 H144 C240 O96"
_cell_length_a       17.32735
_cell_length_b       17.38459
_cell_length_c       23.91653
_cell_angle_alpha    90.12471
_cell_angle_beta     90.11638
_cell_angle_gamma    90.16811

_symmetry_space_group_name_H-M    'P 1'
_symmetry_Int_Tables_number       1

loop_
  _symmetry_equiv_pos_as_xyz
  'x,y,z'

loop_
  _atom_site_type_symbol
  _atom_site_label
  _atom_site_symmetry_multiplicity
  _atom_site_fract_x
  _atom_site_fract_y
  _atom_site_fract_z
  _atom_site_occupancy
  Al  Al1       1.0  0.81966  0.82457  0.4979900000000001  1.0000
  Al  Al2       1.0  0.17527  0.17794  0.5023  1.0000
  Al  Al3       1.0  0.17966000000000001  0.8202200000000001  0.50255  1.0000
  Al  Al4       1.0  0.82061  0.17966  0.49712  1.0000
  Al  Al5       1.0  0.32158  0.32475  0.00131  1.0000
  Al  Al6       1.0  0.67717  0.67596  0.99863  1.0000
  Al  Al7       1.0  0.67867  0.31981  0.00147  1.0000
  Al  Al8       1.0  0.31748  0.67993  0.9991800000000001  1.0000
  Al  Al9       1.0  0.74257  0.00243  0.49574  1.0000
  Al  Al10      1.0  0.25106  0.99984  0.50412  1.0000
  Al  Al11      1.0  0.9984000000000001  0.7495800000000002  0.49968000000000007  1.0000
  Al  Al12      1.0  0.99881  0.25637  0.49718000000000007  1.0000
  Al  Al13      1.0  0.24352  0.50137  0.9982000000000002  1.0000
  Al  Al14      1.0  0.7547200000000002  0.49847  0.00015  1.0000
  Al  Al15      1.0  0.49913  0.24606000000000003  0.9999  1.0000
  Al  Al16      1.0  0.49842  0.7506800000000001  0.9975500000000003  1.0000
  H   H1        1.0  0.81801  0.8032700000000002  0.77349  1.0000
  H   H2        1.0  0.17973  0.20085  0.78029  1.0000
  H   H3        1.0  0.20235  0.81679  0.77706  1.0000
  H   H4        1.0  0.8056000000000002  0.16916  0.7736900000000001  1.0000
  H   H5        1.0  0.18884  0.7980800000000002  0.22499  1.0000
  H   H6        1.0  0.81481  0.20328  0.21867000000000003  1.0000
  H   H7        1.0  0.79581  0.8176000000000002  0.22224  1.0000
  H   H8        1.0  0.21098000000000006  0.18931  0.22208  1.0000
  H   H9        1.0  0.31828  0.30294  0.27629  1.0000
  H   H10       1.0  0.6828400000000002  0.7060600000000002  0.27627  1.0000
  H   H11       1.0  0.69933  0.31434  0.27946  1.0000
  H   H12       1.0  0.29814  0.67803  0.27482  1.0000
  H   H13       1.0  0.70127  0.28999  0.72305  1.0000
  H   H14       1.0  0.3086600000000001  0.70779  0.7230400000000001  1.0000
  H   H15       1.0  0.29332  0.31058  0.7232500000000002  1.0000
  H   H16       1.0  0.70799  0.6917  0.72296  1.0000
  H   H17       1.0  0.82762  0.8047600000000003  0.66827  1.0000
  H   H18       1.0  0.16591  0.19976  0.67512  1.0000
  H   H19       1.0  0.20143  0.82523  0.67159  1.0000
  H   H20       1.0  0.80321  0.16485  0.6682300000000001  1.0000
  H   H21       1.0  0.17816  0.79698  0.33021000000000006  1.0000
  H   H22       1.0  0.82597  0.20409  0.32388  1.0000
  H   H23       1.0  0.7978100000000001  0.8297100000000002  0.32751  1.0000
  H   H24       1.0  0.20813000000000006  0.17597  0.32699  1.0000
  H   H25       1.0  0.32973000000000013  0.30594  0.17133  1.0000
  H   H26       1.0  0.67287  0.7033  0.17093  1.0000
  H   H27       1.0  0.69833  0.3275100000000001  0.17434000000000002  1.0000
  H   H28       1.0  0.29976  0.6699500000000002  0.16939  1.0000
  H   H29       1.0  0.69013  0.28786  0.82825  1.0000
  H   H30       1.0  0.31652  0.70722  0.8285200000000001  1.0000
  H   H31       1.0  0.29149  0.32044  0.82855  1.0000
  H   H32       1.0  0.7046900000000003  0.67714  0.82804  1.0000
  H   H33       1.0  0.70932  0.02125  0.66451  1.0000
  H   H34       1.0  0.30103  0.99371  0.66689  1.0000
  H   H35       1.0  0.9790300000000001  0.7161300000000003  0.6678800000000001  1.0000
  H   H36       1.0  0.01133  0.29887000000000014  0.66336  1.0000
  H   H37       1.0  0.30239  0.01058  0.33825  1.0000
  H   H38       1.0  0.70298  0.98998  0.33085  1.0000
  H   H39       1.0  0.00631  0.69723  0.33329  1.0000
  H   H40       1.0  0.9885  0.28906  0.33104  1.0000
  H   H41       1.0  0.20759  0.52017  0.16763000000000006  1.0000
  H   H42       1.0  0.78963  0.48616  0.16806000000000001  1.0000
  H   H43       1.0  0.48326000000000013  0.20507  0.167  1.0000
  H   H44       1.0  0.51487  0.79258  0.16674  1.0000
  H   H45       1.0  0.79132  0.51311  0.83621  1.0000
  H   H46       1.0  0.2078  0.48525000000000007  0.8312500000000002  1.0000
  H   H47       1.0  0.51219  0.20972000000000005  0.8358800000000001  1.0000
  H   H48       1.0  0.48902000000000007  0.79742  0.8330100000000001  1.0000
  H   H49       1.0  0.70009  0.02023  0.76916  1.0000
  H   H50       1.0  0.31472  0.9941200000000001  0.77123  1.0000
  H   H51       1.0  0.9803  0.70618  0.7723000000000001  1.0000
  H   H52       1.0  0.01374  0.30415  0.76813  1.0000
  H   H53       1.0  0.31479  0.011010000000000004  0.23393  1.0000
  H   H54       1.0  0.6909600000000002  0.9890400000000001  0.22648  1.0000
  H   H55       1.0  0.00389  0.68415  0.22900000000000004  1.0000
  H   H56       1.0  0.9906000000000001  0.3020000000000001  0.22697000000000003  1.0000
  H   H57       1.0  0.19588000000000005  0.51757  0.27187  1.0000
  H   H58       1.0  0.8004  0.48878000000000005  0.27237  1.0000
  H   H59       1.0  0.48382000000000003  0.19182000000000002  0.27133  1.0000
  H   H60       1.0  0.51315  0.8017500000000001  0.27136  1.0000
  H   H61       1.0  0.80363  0.51513  0.73214  1.0000
  H   H62       1.0  0.19865  0.48599  0.72676  1.0000
  H   H63       1.0  0.51371  0.19840000000000002  0.73155  1.0000
  H   H64       1.0  0.49235  0.81303  0.7289400000000001  1.0000
  H   H65       1.0  0.5225500000000001  0.92957  0.45497000000000004  1.0000
  H   H66       1.0  0.4674  0.06349  0.45511  1.0000
  H   H67       1.0  0.06472  0.5267100000000001  0.45652000000000004  1.0000
  H   H68       1.0  0.9304400000000002  0.47428000000000003  0.45372000000000007  1.0000
  H   H69       1.0  0.46967000000000003  0.93793  0.54702  1.0000
  H   H70       1.0  0.526  0.07013  0.54257  1.0000
  H   H71       1.0  0.9320100000000001  0.53377  0.5425400000000001  1.0000
  H   H72       1.0  0.06305000000000002  0.47102  0.54725  1.0000
  H   H73       1.0  0.023980000000000005  0.42847  0.9524600000000002  1.0000
  H   H74       1.0  0.9735600000000001  0.56812  0.95328  1.0000
  H   H75       1.0  0.55845  0.03599  0.9410100000000001  1.0000
  H   H76       1.0  0.43868000000000007  0.9657100000000001  0.95111  1.0000
  H   H77       1.0  0.9727400000000002  0.43325000000000014  0.04507000000000001  1.0000
  H   H78       1.0  0.025300000000000007  0.5661400000000002  0.04306000000000001  1.0000
  H   H79       1.0  0.42641  0.028100000000000007  0.03885  1.0000
  H   H80       1.0  0.5689300000000003  0.9720900000000001  0.03652  1.0000
  H   H81       1.0  0.40641  0.87918  0.40402  1.0000
  H   H82       1.0  0.5846800000000002  0.10950000000000001  0.40393000000000007  1.0000
  H   H83       1.0  0.11265000000000003  0.41153000000000006  0.40417  1.0000
  H   H84       1.0  0.88189  0.59215  0.4051  1.0000
  H   H85       1.0  0.58953  0.89445  0.5964000000000002  1.0000
  H   H86       1.0  0.41026  0.1165  0.59505  1.0000
  H   H87       1.0  0.88956  0.41563000000000005  0.5937400000000002  1.0000
  H   H88       1.0  0.11075  0.58744  0.59842  1.0000
  H   H89       1.0  0.9106500000000001  0.3762100000000001  0.8996400000000002  1.0000
  H   H90       1.0  0.08878  0.6192500000000002  0.90255  1.0000
  H   H91       1.0  0.6056  0.9221900000000001  0.88649  1.0000
  H   H92       1.0  0.39503  0.08468  0.9008900000000002  1.0000
  H   H93       1.0  0.09215  0.38795000000000013  0.09394  1.0000
  H   H94       1.0  0.9070000000000003  0.61079  0.09349  1.0000
  H   H95       1.0  0.3814400000000001  0.9110900000000002  0.09043000000000001  1.0000
  H   H96       1.0  0.61506  0.08946  0.08765000000000002  1.0000
  H   H97       1.0  0.53925  0.68324  0.34996  1.0000
  H   H98       1.0  0.4584200000000001  0.31037  0.35119000000000006  1.0000
  H   H99       1.0  0.3115400000000001  0.54248  0.35153  1.0000
  H   H100      1.0  0.6824900000000002  0.46397  0.34936  1.0000
  H   H101      1.0  0.46823000000000004  0.69117  0.65138  1.0000
  H   H102      1.0  0.543  0.3107600000000001  0.6542800000000001  1.0000
  H   H103      1.0  0.6915700000000002  0.53956  0.65504  1.0000
  H   H104      1.0  0.3158  0.46266  0.64558  1.0000
  H   H105      1.0  0.04744  0.18102  0.84959  1.0000
  H   H106      1.0  0.95656  0.81791  0.85345  1.0000
  H   H107      1.0  0.82323  0.03834  0.8615100000000002  1.0000
  H   H108      1.0  0.18563000000000004  0.96672  0.85303  1.0000
  H   H109      1.0  0.9685300000000001  0.1866  0.14953  1.0000
  H   H110      1.0  0.0346  0.80774  0.15403  1.0000
  H   H111      1.0  0.19755  0.04464000000000001  0.16302000000000003  1.0000
  H   H112      1.0  0.8078000000000001  0.9596600000000001  0.15152  1.0000
  H   H113      1.0  0.65051  0.7282000000000001  0.40865000000000007  1.0000
  H   H114      1.0  0.34641  0.26969  0.41012000000000004  1.0000
  H   H115      1.0  0.26904  0.6523500000000002  0.41133  1.0000
  H   H116      1.0  0.72579  0.35060000000000013  0.40566  1.0000
  H   H117      1.0  0.35327  0.72963  0.59432  1.0000
  H   H118      1.0  0.65379  0.27011  0.59425  1.0000
  H   H119      1.0  0.72874  0.6528500000000003  0.59666  1.0000
  H   H120      1.0  0.2719  0.35074000000000005  0.58789  1.0000
  H   H121      1.0  0.15587  0.22772  0.91011  1.0000
  H   H122      1.0  0.8460600000000003  0.7717600000000002  0.9113300000000001  1.0000
  H   H123      1.0  0.77834  0.14699  0.92149  1.0000
  H   H124      1.0  0.22465000000000002  0.8533400000000002  0.91094  1.0000
  H   H125      1.0  0.85318  0.22736000000000006  0.09383  1.0000
  H   H126      1.0  0.14836  0.7681500000000002  0.09639000000000002  1.0000
  H   H127      1.0  0.23576  0.15724  0.10401000000000002  1.0000
  H   H128      1.0  0.76688  0.84642  0.09390000000000001  1.0000
  H   H129      1.0  0.8536100000000002  0.9439300000000002  0.44941  1.0000
  H   H130      1.0  0.16285  0.06668000000000002  0.4439  1.0000
  H   H131      1.0  0.06988  0.83635  0.4415  1.0000
  H   H132      1.0  0.93218  0.16377  0.43931  1.0000
  H   H133      1.0  0.12535  0.9450600000000001  0.52203  1.0000
  H   H134      1.0  0.8426200000000001  0.0648  0.55014  1.0000
  H   H135      1.0  0.9346600000000002  0.8495300000000001  0.55077  1.0000
  H   H136      1.0  0.04611  0.13094  0.52024  1.0000
  H   H137      1.0  0.33778000000000014  0.43565  0.94262  1.0000
  H   H138      1.0  0.6294500000000002  0.54831  0.97392  1.0000
  H   H139      1.0  0.55261  0.36919  0.9750700000000001  1.0000
  H   H140      1.0  0.44125  0.6260600000000001  0.9752300000000002  1.0000
  H   H141      1.0  0.662  0.43177  0.05736000000000001  1.0000
  H   H142      1.0  0.33775  0.56743  0.05495  1.0000
  H   H143      1.0  0.43658  0.34347  0.05554  1.0000
  H   H144      1.0  0.56528  0.66027  0.055920000000000004  1.0000
  C   C1        1.0  0.39783  0.75124  0.34069  1.0000
  C   C2        1.0  0.59823  0.23899  0.34276  1.0000
  C   C3        1.0  0.24211000000000002  0.40175  0.34193  1.0000
  C   C4        1.0  0.75399  0.60445  0.34216  1.0000
  C   C5        1.0  0.6064500000000003  0.7655800000000003  0.65832  1.0000
  C   C6        1.0  0.39939  0.24295  0.65921  1.0000
  C   C7        1.0  0.76524  0.39876  0.65922  1.0000
  C   C8        1.0  0.24322000000000002  0.60215  0.65674  1.0000
  C   C9        1.0  0.9042  0.24528  0.8390700000000002  1.0000
  C   C10       1.0  0.0983  0.74931  0.84242  1.0000
  C   C11       1.0  0.7463300000000003  0.9047  0.83894  1.0000
  C   C12       1.0  0.26163  0.1028  0.8433300000000001  1.0000
  C   C13       1.0  0.10811  0.26152  0.15697000000000003  1.0000
  C   C14       1.0  0.89371  0.73865  0.15793  1.0000
  C   C15       1.0  0.26233  0.90024  0.16127  1.0000
  C   C16       1.0  0.73938  0.10171  0.15472000000000002  1.0000
  C   C17       1.0  0.75852  0.9113600000000002  0.77751  1.0000
  C   C18       1.0  0.24780000000000002  0.09768  0.78199  1.0000
  C   C19       1.0  0.09157000000000001  0.76135  0.7809300000000001  1.0000
  C   C20       1.0  0.90958  0.23665  0.7772100000000001  1.0000
  C   C21       1.0  0.25119000000000014  0.905  0.22307  1.0000
  C   C22       1.0  0.75287  0.09608  0.21623  1.0000
  C   C23       1.0  0.9000600000000002  0.75117  0.21942000000000006  1.0000
  C   C24       1.0  0.10098000000000001  0.24577000000000002  0.21808000000000002  1.0000
  C   C25       1.0  0.25629  0.4097200000000001  0.28056  1.0000
  C   C26       1.0  0.7415200000000001  0.59755  0.28064  1.0000
  C   C27       1.0  0.59166  0.25304  0.28154  1.0000
  C   C28       1.0  0.40552  0.73972  0.27923  1.0000
  C   C29       1.0  0.75238  0.4025800000000001  0.72095  1.0000
  C   C30       1.0  0.25362  0.59705  0.7185500000000002  1.0000
  C   C31       1.0  0.40367000000000003  0.25467  0.7209600000000002  1.0000
  C   C32       1.0  0.60033  0.7525200000000002  0.71968  1.0000
  C   C33       1.0  0.7954100000000002  0.8508700000000002  0.74904  1.0000
  C   C34       1.0  0.20556  0.15576000000000007  0.75489  1.0000
  C   C35       1.0  0.1538  0.7956400000000002  0.75249  1.0000
  C   C36       1.0  0.8504400000000002  0.19668000000000005  0.7489300000000002  1.0000
  C   C37       1.0  0.21262000000000006  0.84448  0.2503600000000001  1.0000
  C   C38       1.0  0.79144  0.15664  0.2438  1.0000
  C   C39       1.0  0.84181  0.7924300000000001  0.24719000000000005  1.0000
  C   C40       1.0  0.16217  0.20973  0.2465  1.0000
  C   C41       1.0  0.29503  0.3504400000000001  0.25202  1.0000
  C   C42       1.0  0.70497  0.65798  0.25197  1.0000
  C   C43       1.0  0.6521000000000002  0.2917800000000001  0.25419  1.0000
  C   C44       1.0  0.34547  0.70187  0.25050000000000006  1.0000
  C   C45       1.0  0.72001  0.3386000000000001  0.74843  1.0000
  C   C46       1.0  0.28738000000000014  0.6593800000000002  0.74735  1.0000
  C   C47       1.0  0.34108  0.28958  0.7485  1.0000
  C   C48       1.0  0.6603700000000001  0.71408  0.74767  1.0000
  C   C49       1.0  0.8008300000000003  0.8517400000000003  0.6911  1.0000
  C   C50       1.0  0.19821  0.15544  0.69696  1.0000
  C   C51       1.0  0.15336  0.8003000000000002  0.6945  1.0000
  C   C52       1.0  0.8491800000000002  0.19414  0.69089  1.0000
  C   C53       1.0  0.20651000000000005  0.84393  0.30832  1.0000
  C   C54       1.0  0.79771  0.15709  0.30177  1.0000
  C   C55       1.0  0.8428900000000003  0.79911  0.30512  1.0000
  C   C56       1.0  0.16056  0.20231  0.30442  1.0000
  C   C57       1.0  0.30152  0.3521100000000001  0.1941  1.0000
  C   C58       1.0  0.69925  0.65638  0.19399  1.0000
  C   C59       1.0  0.6514900000000002  0.29905  0.19636000000000003  1.0000
  C   C60       1.0  0.34641  0.69731  0.19255  1.0000
  C   C61       1.0  0.71385  0.33738000000000007  0.80646  1.0000
  C   C62       1.0  0.29178  0.65915  0.80542  1.0000
  C   C63       1.0  0.34006  0.29515  0.8065200000000001  1.0000
  C   C64       1.0  0.6586  0.7060100000000002  0.8054800000000001  1.0000
  C   C65       1.0  0.7691400000000003  0.91312  0.6606400000000001  1.0000
  C   C66       1.0  0.23346  0.09718  0.66533  1.0000
  C   C67       1.0  0.09024000000000001  0.77105  0.6641200000000002  1.0000
  C   C68       1.0  0.9071200000000003  0.23164000000000004  0.66016  1.0000
  C   C69       1.0  0.23854000000000003  0.9044600000000003  0.33986  1.0000
  C   C70       1.0  0.76543  0.09681000000000002  0.33307  1.0000
  C   C71       1.0  0.90263  0.7648100000000002  0.33601  1.0000
  C   C72       1.0  0.09764  0.23115000000000002  0.33491  1.0000
  C   C73       1.0  0.2691900000000001  0.41314  0.16355  1.0000
  C   C74       1.0  0.7300100000000003  0.5942  0.16381  1.0000
  C   C75       1.0  0.5903900000000001  0.26749  0.16505000000000003  1.0000
  C   C76       1.0  0.40776  0.7301900000000002  0.1625  1.0000
  C   C77       1.0  0.7399600000000002  0.40052  0.83814  1.0000
  C   C78       1.0  0.2627  0.59618  0.83561  1.0000
  C   C79       1.0  0.40195  0.26598  0.83795  1.0000
  C   C80       1.0  0.59655  0.73633  0.8360800000000003  1.0000
  C   C81       1.0  0.73364  0.97438  0.68884  1.0000
  C   C82       1.0  0.27473  0.03854  0.69219  1.0000
  C   C83       1.0  0.027280000000000002  0.7383  0.69225  1.0000
  C   C84       1.0  0.96708  0.27035  0.68805  1.0000
  C   C85       1.0  0.27713  0.9649  0.31294  1.0000
  C   C86       1.0  0.72782  0.03581  0.30574  1.0000
  C   C87       1.0  0.9610600000000001  0.72394  0.30852  1.0000
  C   C88       1.0  0.03621  0.2664200000000001  0.30665  1.0000
  C   C89       1.0  0.2322  0.47336  0.19185000000000002  1.0000
  C   C90       1.0  0.7656700000000002  0.5334  0.19223000000000004  1.0000
  C   C91       1.0  0.52955  0.22956000000000004  0.19218  1.0000
  C   C92       1.0  0.46838  0.76696  0.19093000000000002  1.0000
  C   C93       1.0  0.7715400000000002  0.46481000000000006  0.8109600000000001  1.0000
  C   C94       1.0  0.22996000000000003  0.5334  0.80711  1.0000
  C   C95       1.0  0.46486000000000005  0.23182000000000003  0.8107300000000001  1.0000
  C   C96       1.0  0.53634  0.77437  0.8083900000000002  1.0000
  C   C97       1.0  0.72862  0.97361  0.74702  1.0000
  C   C98       1.0  0.28171  0.03867  0.75021  1.0000
  C   C99       1.0  0.02804  0.73327  0.7503700000000001  1.0000
  C   C100      1.0  0.9682600000000001  0.27288  0.7463200000000001  1.0000
  C   C101      1.0  0.28352  0.96513  0.25489000000000006  1.0000
  C   C102      1.0  0.72157  0.03538  0.24768  1.0000
  C   C103      1.0  0.9597600000000001  0.71717  0.25050000000000006  1.0000
  C   C104      1.0  0.0376  0.27339  0.24868  1.0000
  C   C105      1.0  0.22593000000000005  0.47174000000000005  0.24996  1.0000
  C   C106      1.0  0.77133  0.535  0.2503  1.0000
  C   C107      1.0  0.53006  0.22251  0.25017  1.0000
  C   C108      1.0  0.46729000000000004  0.7717  0.24909  1.0000
  C   C109      1.0  0.7777200000000002  0.46587000000000006  0.7528900000000001  1.0000
  C   C110      1.0  0.22533000000000006  0.53385  0.7489600000000001  1.0000
  C   C111      1.0  0.46571000000000007  0.22616  0.75264  1.0000
  C   C112      1.0  0.5382300000000002  0.78246  0.75052  1.0000
  C   C113      1.0  0.77168  0.91203  0.59818  1.0000
  C   C114      1.0  0.22707  0.09665  0.60306  1.0000
  C   C115      1.0  0.09035000000000003  0.7741600000000001  0.60178  1.0000
  C   C116      1.0  0.9047400000000001  0.23051  0.59776  1.0000
  C   C117      1.0  0.23223000000000002  0.90492  0.4021000000000001  1.0000
  C   C118      1.0  0.76966  0.09699000000000003  0.39542  1.0000
  C   C119      1.0  0.9039400000000002  0.7710400000000002  0.39823000000000003  1.0000
  C   C120      1.0  0.09548000000000002  0.22674  0.39739  1.0000
  C   C121      1.0  0.27246  0.41265000000000013  0.10109000000000001  1.0000
  C   C122      1.0  0.7266  0.59316  0.10141000000000003  1.0000
  C   C123      1.0  0.59077  0.2724  0.10273  1.0000
  C   C124      1.0  0.40731  0.72726  0.10013000000000001  1.0000
  C   C125      1.0  0.73452  0.40069  0.90065  1.0000
  C   C126      1.0  0.26636  0.59553  0.89801  1.0000
  C   C127      1.0  0.40201  0.27031  0.90034  1.0000
  C   C128      1.0  0.5939400000000001  0.72883  0.89819  1.0000
  C   C129      1.0  0.5243100000000003  0.8748000000000002  0.43309  1.0000
  C   C130      1.0  0.46747  0.11854  0.43369  1.0000
  C   C131      1.0  0.11964  0.52837  0.43471  1.0000
  C   C132      1.0  0.87521  0.47390000000000004  0.43216  1.0000
  C   C133      1.0  0.47143  0.8829700000000003  0.56854  1.0000
  C   C134      1.0  0.52782  0.12382  0.56584  1.0000
  C   C135      1.0  0.8784800000000003  0.5332  0.56609  1.0000
  C   C136      1.0  0.11932  0.4711600000000001  0.5674  1.0000
  C   C137      1.0  0.02735000000000001  0.37315  0.93137  1.0000
  C   C138      1.0  0.97143  0.62363  0.93257  1.0000
  C   C139      1.0  0.61687  0.034390000000000004  0.92459  1.0000
  C   C140      1.0  0.38254  0.9681200000000001  0.93084  1.0000
  C   C141      1.0  0.9735200000000002  0.37841  0.06676  1.0000
  C   C142      1.0  0.02529  0.62004  0.06611  1.0000
  C   C143      1.0  0.3751100000000001  0.029990000000000003  0.06480000000000001  1.0000
  C   C144      1.0  0.6221  0.9711300000000002  0.060680000000000005  1.0000
  C   C145      1.0  0.46032  0.84725  0.40406000000000003  1.0000
  C   C146      1.0  0.53203  0.14354  0.40432  1.0000
  C   C147      1.0  0.14579  0.46484000000000003  0.40476  1.0000
  C   C148      1.0  0.8487300000000002  0.53888  0.40437000000000006  1.0000
  C   C149      1.0  0.53742  0.85931  0.59682  1.0000
  C   C150      1.0  0.46404000000000006  0.14903000000000005  0.59586  1.0000
  C   C151      1.0  0.85538  0.46803000000000006  0.59535  1.0000
  C   C152      1.0  0.14545  0.53538  0.5967500000000001  1.0000
  C   C153      1.0  0.9648  0.3446700000000001  0.9010700000000003  1.0000
  C   C154      1.0  0.035100000000000006  0.65156  0.90354  1.0000
  C   C155      1.0  0.64289  0.9717700000000001  0.89364  1.0000
  C   C156      1.0  0.3588  0.03343  0.9021400000000002  1.0000
  C   C157      1.0  0.03947  0.3536800000000001  0.09462000000000001  1.0000
  C   C158      1.0  0.96006  0.64446  0.09488000000000002  1.0000
  C   C159      1.0  0.35079  0.96542  0.09419  1.0000
  C   C160      1.0  0.64732  0.03591  0.08977000000000002  1.0000
  C   C161      1.0  0.46624  0.77871  0.3732  1.0000
  C   C162      1.0  0.52851  0.21266  0.37415  1.0000
  C   C163      1.0  0.21467000000000006  0.47020000000000006  0.37409  1.0000
  C   C164      1.0  0.7796300000000003  0.5349100000000001  0.37375  1.0000
  C   C165      1.0  0.53588  0.7903300000000002  0.62724  1.0000
  C   C166      1.0  0.46951  0.21641  0.6281900000000001  1.0000
  C   C167      1.0  0.78818  0.47015000000000007  0.62815  1.0000
  C   C168      1.0  0.21624  0.53227  0.6253700000000001  1.0000
  C   C169      1.0  0.9722400000000002  0.2755300000000001  0.8710900000000001  1.0000
  C   C170      1.0  0.029500000000000012  0.7212700000000001  0.8742600000000001  1.0000
  C   C171      1.0  0.71748  0.9732200000000001  0.8707900000000002  1.0000
  C   C172      1.0  0.28788  0.03242  0.8736600000000001  1.0000
  C   C173      1.0  0.037450000000000004  0.28492  0.1253  1.0000
  C   C174      1.0  0.96363  0.7122  0.12687  1.0000
  C   C175      1.0  0.28707  0.97065  0.13019  1.0000
  C   C176      1.0  0.7139  0.03166  0.12323000000000003  1.0000
  C   C177      1.0  0.53508  0.7363200000000002  0.37399  1.0000
  C   C178      1.0  0.4610100000000001  0.2572100000000001  0.37507  1.0000
  C   C179      1.0  0.25835  0.5383500000000001  0.37551  1.0000
  C   C180      1.0  0.73587  0.46674  0.3734000000000001  1.0000
  C   C181      1.0  0.4691600000000001  0.7442500000000001  0.62733  1.0000
  C   C182      1.0  0.53858  0.25899  0.62879  1.0000
  C   C183      1.0  0.74346  0.5375000000000002  0.6295100000000001  1.0000
  C   C184      1.0  0.26131  0.46532  0.62294  1.0000
  C   C185      1.0  0.04169  0.23424  0.8732700000000001  1.0000
  C   C186      1.0  0.96089  0.7639600000000002  0.8762500000000002  1.0000
  C   C187      1.0  0.7658  0.036960000000000014  0.87985  1.0000
  C   C188      1.0  0.24018  0.9671  0.87569  1.0000
  C   C189      1.0  0.96999  0.23982000000000003  0.12566  1.0000
  C   C190      1.0  0.03202  0.7558100000000002  0.12857  1.0000
  C   C191      1.0  0.24662  0.04037000000000002  0.13482000000000002  1.0000
  C   C192      1.0  0.7562800000000001  0.96292  0.12552  1.0000
  C   C193      1.0  0.59733  0.76121  0.40641  1.0000
  C   C194      1.0  0.3983200000000001  0.23472  0.40774  1.0000
  C   C195      1.0  0.23481  0.5999100000000003  0.40872  1.0000
  C   C196      1.0  0.75986  0.4033  0.4045  1.0000
  C   C197      1.0  0.40492  0.76542  0.59577  1.0000
  C   C198      1.0  0.6007  0.23647  0.59554  1.0000
  C   C199      1.0  0.764  0.60111  0.59709  1.0000
  C   C200      1.0  0.23715  0.40266  0.59077  1.0000
  C   C201      1.0  0.10238  0.26008  0.9069300000000001  1.0000
  C   C202      1.0  0.8989100000000002  0.73837  0.9084  1.0000
  C   C203      1.0  0.74108  0.09777000000000001  0.91341  1.0000
  C   C204      1.0  0.26169  0.90377  0.9077200000000001  1.0000
  C   C205      1.0  0.9054700000000002  0.26228  0.09483  1.0000
  C   C206      1.0  0.09563  0.7339000000000002  0.09674000000000002  1.0000
  C   C207      1.0  0.2678  0.1035  0.10227  1.0000
  C   C208      1.0  0.7337100000000002  0.8995200000000002  0.09353000000000002  1.0000
  C   C209      1.0  0.5924900000000001  0.83155  0.43493  1.0000
  C   C210      1.0  0.40122  0.1647  0.43663000000000013  1.0000
  C   C211      1.0  0.16462  0.59552  0.43769  1.0000
  C   C212      1.0  0.83056  0.40644  0.43309  1.0000
  C   C213      1.0  0.40566000000000013  0.8356700000000002  0.5670900000000001  1.0000
  C   C214      1.0  0.5956  0.1682  0.5643600000000001  1.0000
  C   C215      1.0  0.83238  0.5995  0.5658  1.0000
  C   C216      1.0  0.16559000000000004  0.4052100000000001  0.56335  1.0000
  C   C217      1.0  0.09574  0.33034  0.9354100000000002  1.0000
  C   C218      1.0  0.90362  0.6673600000000001  0.9359400000000002  1.0000
  C   C219      1.0  0.6662500000000002  0.09684  0.9355300000000001  1.0000
  C   C220      1.0  0.33355  0.90392  0.9347100000000003  1.0000
  C   C221      1.0  0.90667  0.33254  0.06609  1.0000
  C   C222      1.0  0.09241000000000003  0.6654  0.0657  1.0000
  C   C223      1.0  0.33296  0.09871000000000003  0.06777  1.0000
  C   C224      1.0  0.6656400000000002  0.9032100000000002  0.0618  1.0000
  C   C225      1.0  0.6609500000000003  0.86208  0.4654600000000001  1.0000
  C   C226      1.0  0.33307  0.13792  0.46919  1.0000
  C   C227      1.0  0.1377  0.664  0.46971  1.0000
  C   C228      1.0  0.86033  0.33743000000000006  0.4629  1.0000
  C   C229      1.0  0.33545000000000014  0.8616  0.5367  1.0000
  C   C230      1.0  0.66268  0.14115  0.53086  1.0000
  C   C231      1.0  0.85816  0.66839  0.53354  1.0000
  C   C232      1.0  0.1375  0.33674  0.53181  1.0000
  C   C233      1.0  0.16261  0.361  0.96795  1.0000
  C   C234      1.0  0.83554  0.6378  0.9672200000000002  1.0000
  C   C235      1.0  0.63821  0.1635  0.9687700000000002  1.0000
  C   C236      1.0  0.3592300000000001  0.83476  0.96596  1.0000
  C   C237      1.0  0.8362  0.35982  0.03627  1.0000
  C   C238      1.0  0.161  0.63973  0.03325  1.0000
  C   C239      1.0  0.35973  0.16735000000000005  0.03587  1.0000
  C   C240      1.0  0.63798  0.83373  0.031050000000000005  1.0000
  O   O1        1.0  0.80328  0.8541  0.57505  1.0000
  O   O2        1.0  0.19585000000000005  0.15422  0.57947  1.0000
  O   O3        1.0  0.15198  0.7959100000000002  0.57795  1.0000
  O   O4        1.0  0.84778  0.19633000000000006  0.57454  1.0000
  O   O5        1.0  0.20569000000000007  0.8445700000000002  0.42531  1.0000
  O   O6        1.0  0.8005600000000003  0.15503  0.41941  1.0000
  O   O7        1.0  0.84462  0.79909  0.42188  1.0000
  O   O8        1.0  0.15253  0.19596  0.42243  1.0000
  O   O9        1.0  0.30513000000000007  0.3554000000000001  0.07796000000000002  1.0000
  O   O10       1.0  0.6970200000000002  0.6513800000000002  0.07733  1.0000
  O   O11       1.0  0.64919  0.30377000000000004  0.07986  1.0000
  O   O12       1.0  0.3469100000000001  0.7002300000000002  0.07689000000000001  1.0000
  O   O13       1.0  0.70712  0.34142  0.92482  1.0000
  O   O14       1.0  0.2894800000000001  0.65595  0.92274  1.0000
  O   O15       1.0  0.34378000000000003  0.30037  0.92454  1.0000
  O   O16       1.0  0.6525  0.7000800000000003  0.92242  1.0000
  O   O17       1.0  0.7421000000000002  0.9694900000000001  0.57281  1.0000
  O   O18       1.0  0.25364  0.03721  0.57837  1.0000
  O   O19       1.0  0.027450000000000006  0.75487  0.5772  1.0000
  O   O20       1.0  0.96035  0.26316  0.57225  1.0000
  O   O21       1.0  0.25389  0.9665400000000001  0.4269600000000001  1.0000
  O   O22       1.0  0.7420200000000002  0.03773  0.41977000000000003  1.0000
  O   O23       1.0  0.96545  0.74785  0.4226000000000001  1.0000
  O   O24       1.0  0.03535  0.25477  0.4206100000000001  1.0000
  O   O25       1.0  0.2423  0.46978  0.07548  1.0000
  O   O26       1.0  0.75394  0.53326  0.07739  1.0000
  O   O27       1.0  0.53176  0.24459  0.0775  1.0000
  O   O28       1.0  0.46792  0.75201  0.07533000000000001  1.0000
  O   O29       1.0  0.7578500000000002  0.46197  0.9250200000000002  1.0000
  O   O30       1.0  0.24584  0.53288  0.92188  1.0000
  O   O31       1.0  0.46157  0.24382000000000004  0.9247700000000001  1.0000
  O   O32       1.0  0.5323100000000001  0.7518000000000002  0.9220400000000001  1.0000
  O   O33       1.0  0.66059  0.9341600000000001  0.47614000000000006  1.0000
  O   O34       1.0  0.33245  0.06710000000000003  0.48311  1.0000
  O   O35       1.0  0.06631000000000001  0.66625  0.48319  1.0000
  O   O36       1.0  0.93283  0.33683000000000013  0.47275000000000006  1.0000
  O   O37       1.0  0.3321900000000001  0.9330100000000001  0.5246700000000001  1.0000
  O   O38       1.0  0.66165  0.07036  0.51631  1.0000
  O   O39       1.0  0.9292900000000001  0.66956  0.51939  1.0000
  O   O40       1.0  0.06677  0.33716  0.5166  1.0000
  O   O41       1.0  0.16216  0.43328  0.97804  1.0000
  O   O42       1.0  0.836  0.56667  0.9807300000000002  1.0000
  O   O43       1.0  0.5662900000000001  0.16449000000000005  0.9804  1.0000
  O   O44       1.0  0.4307900000000001  0.83164  0.97827  1.0000
  O   O45       1.0  0.83562  0.43071000000000004  0.02218  1.0000
  O   O46       1.0  0.16089000000000006  0.56984  0.01645  1.0000
  O   O47       1.0  0.42986  0.16619000000000006  0.01959  1.0000
  O   O48       1.0  0.56692  0.83292  0.01668  1.0000
  O   O49       1.0  0.71412  0.81472  0.47798  1.0000
  O   O50       1.0  0.2807  0.18673  0.48042000000000007  1.0000
  O   O51       1.0  0.18787000000000006  0.71543  0.48061  1.0000
  O   O52       1.0  0.81217  0.28493  0.4757100000000001  1.0000
  O   O53       1.0  0.2841400000000001  0.8114200000000001  0.52517  1.0000
  O   O54       1.0  0.7154000000000001  0.18973  0.51938  1.0000
  O   O55       1.0  0.8086900000000002  0.7202  0.52259  1.0000
  O   O56       1.0  0.18519000000000005  0.28274  0.52234  1.0000
  O   O57       1.0  0.21476  0.31393  0.98297  1.0000
  O   O58       1.0  0.7817600000000002  0.68524  0.9779800000000002  1.0000
  O   O59       1.0  0.68729  0.21459  0.98324  1.0000
  O   O60       1.0  0.30872  0.78417  0.97802  1.0000
  O   O61       1.0  0.7823400000000003  0.31119  0.02759  1.0000
  O   O62       1.0  0.21427000000000004  0.68896  0.024960000000000006  1.0000
  O   O63       1.0  0.31193  0.22162  0.027740000000000004  1.0000
  O   O64       1.0  0.68678  0.78052  0.02207  1.0000
  O   O65       1.0  0.8166900000000002  0.92869  0.4775500000000001  1.0000
  O   O66       1.0  0.1722  0.07106000000000003  0.48388000000000003  1.0000
  O   O67       1.0  0.07461000000000002  0.82272  0.48066  1.0000
  O   O68       1.0  0.92689  0.17853  0.47827000000000003  1.0000
  O   O69       1.0  0.17752  0.9251600000000001  0.5221000000000001  1.0000
  O   O70       1.0  0.82006  0.07418  0.51373  1.0000
  O   O71       1.0  0.9256500000000001  0.82671  0.5143  1.0000
  O   O72       1.0  0.07010000000000002  0.18135000000000007  0.51935  1.0000
  O   O73       1.0  0.3201400000000001  0.42878  0.98072  1.0000
  O   O74       1.0  0.67972  0.57104  0.9804500000000003  1.0000
  O   O75       1.0  0.57445  0.31854  0.98044  1.0000
  O   O76       1.0  0.42222  0.6780000000000002  0.97985  1.0000
  O   O77       1.0  0.67585  0.42634  0.01821  1.0000
  O   O78       1.0  0.31999  0.57455  0.01684  1.0000
  O   O79       1.0  0.42912  0.32563  0.01743  1.0000
  O   O80       1.0  0.57039  0.67231  0.01645  1.0000
  O   O81       1.0  0.33528000000000013  0.74126  0.36416000000000004  1.0000
  O   O82       1.0  0.6607200000000002  0.24615000000000004  0.36709  1.0000
  O   O83       1.0  0.25007  0.3393600000000001  0.36585  1.0000
  O   O84       1.0  0.74651  0.6667100000000001  0.36649  1.0000
  O   O85       1.0  0.66836  0.7583300000000002  0.63335  1.0000
  O   O86       1.0  0.33827000000000007  0.25204000000000004  0.63345  1.0000
  O   O87       1.0  0.7605900000000001  0.33701  0.63367  1.0000
  O   O88       1.0  0.25356  0.66308  0.6313300000000001  1.0000
  O   O89       1.0  0.8436100000000001  0.2304  0.86395  1.0000
  O   O90       1.0  0.16044000000000003  0.75889  0.86677  1.0000
  O   O91       1.0  0.7575800000000003  0.84365  0.86377  1.0000
  O   O92       1.0  0.2536700000000001  0.16372  0.86925  1.0000
  O   O93       1.0  0.17147  0.25938000000000005  0.13341  1.0000
  O   O94       1.0  0.83189  0.74802  0.13322  1.0000
  O   O95       1.0  0.25372  0.8386300000000002  0.13612  1.0000
  O   O96       1.0  0.74613  0.16392  0.13038  1.0000
