data_image0
_chemical_formula_structural       Co2H72C88N16
_chemical_formula_sum              "Co2 H72 C88 N16"
_cell_length_a       13.5179
_cell_length_b       14.6114
_cell_length_c       16.6126
_cell_angle_alpha    79.1522
_cell_angle_beta     65.9924
_cell_angle_gamma    62.4467

_space_group_name_H-M_alt    "P 1"
_space_group_IT_number       1

loop_
  _space_group_symop_operation_xyz
  'x, y, z'

loop_
  _atom_site_type_symbol
  _atom_site_label
  _atom_site_symmetry_multiplicity
  _atom_site_fract_x
  _atom_site_fract_y
  _atom_site_fract_z
  _atom_site_occupancy
  Co  Co1       1.0  0.8750000000000001  0.7499999999999998  0.75  1.0000
  Co  Co2       1.0  0.12500000000000008  0.24999999999999994  0.24999999999999994  1.0000
  H   H1        1.0  0.8298  0.2752  0.071  1.0000
  H   H2        1.0  0.01680000000000002  0.1404  0.9166  1.0000
  H   H3        1.0  0.4602  0.4006  0.3674  1.0000
  H   H4        1.0  0.3276000000000001  0.9005999999999997  0.6326  1.0000
  H   H5        1.0  0.44699999999999995  0.1304  0.6708  1.0000
  H   H6        1.0  0.1287  0.4684  0.16519999999999999  1.0000
  H   H7        1.0  0.1582  0.01  0.7418  1.0000
  H   H8        1.0  0.8498  0.2456  0.38779999999999987  1.0000
  H   H9        1.0  0.6  0.48999999999999994  0.7418  1.0000
  H   H10       1.0  0.2061  0.031599999999999996  0.16519999999999999  1.0000
  H   H11       1.0  0.6572000000000001  0.8595999999999998  0.4166  1.0000
  H   H12       1.0  0.8713000000000001  0.5316  0.8348  1.0000
  H   H13       1.0  0.6724000000000001  0.0994  0.3674  1.0000
  H   H14       1.0  0.6050000000000003  0.7247999999999998  0.5709999999999997  1.0000
  H   H15       1.0  0.3804999999999997  0.4188  0.0248  1.0000
  H   H16       1.0  0.1702000000000002  0.7247999999999998  0.9289999999999998  1.0000
  H   H17       1.0  0.5665999999999999  0.3596  0.9166  1.0000
  H   H18       1.0  0.5398  0.5994  0.6326  1.0000
  H   H19       1.0  0.7007  0.4188  0.4751999999999999  1.0000
  H   H20       1.0  0.26230000000000003  0.031599999999999996  0.3347999999999999  1.0000
  H   H21       1.0  0.9832  0.8595999999999998  0.0834  1.0000
  H   H22       1.0  0.6392  0.4006  0.1326  1.0000
  H   H23       1.0  0.6758999999999998  0.9187999999999998  0.5248  1.0000
  H   H24       1.0  0.5992  0.22479999999999994  0.071  1.0000
  H   H25       1.0  0.3318  0.01  0.7582  1.0000
  H   H26       1.0  0.9029000000000001  0.4684  0.3347999999999999  1.0000
  H   H27       1.0  0.1874000000000001  0.8929999999999998  0.11059999999999999  1.0000
  H   H28       1.0  0.5530000000000002  0.8695999999999999  0.3292  1.0000
  H   H29       1.0  0.26240000000000013  0.2544  0.38779999999999987  1.0000
  H   H30       1.0  0.4196000000000001  0.8929999999999998  0.3894  1.0000
  H   H31       1.0  0.4334000000000001  0.6403999999999997  0.0834  1.0000
  H   H32       1.0  0.39999999999999997  0.51  0.2582  1.0000
  H   H33       1.0  0.798  0.39299999999999996  0.8894  1.0000
  H   H34       1.0  0.29929999999999984  0.5811999999999999  0.5248  1.0000
  H   H35       1.0  0.6760000000000004  0.22479999999999994  0.4289999999999999  1.0000
  H   H36       1.0  0.32410000000000005  0.0812  0.4751999999999999  1.0000
  H   H37       1.0  0.07740000000000001  0.8695999999999999  0.17079999999999995  1.0000
  H   H38       1.0  0.3950000000000001  0.2752  0.4289999999999999  1.0000
  H   H39       1.0  0.8418  0.99  0.2582  1.0000
  H   H40       1.0  0.4099999999999999  0.48999999999999994  0.7582  1.0000
  H   H41       1.0  0.6682  0.99  0.2418  1.0000
  H   H42       1.0  0.4046  0.2456  0.1122  1.0000
  H   H43       1.0  0.6194999999999998  0.5811999999999999  0.9752  1.0000
  H   H44       1.0  0.3428  0.1404  0.5834  1.0000
  H   H45       1.0  0.5804  0.107  0.6106  1.0000
  H   H46       1.0  0.20199999999999999  0.607  0.11059999999999999  1.0000
  H   H47       1.0  0.01680000000000008  0.7456  0.8877999999999998  1.0000
  H   H48       1.0  0.5738  0.3596  0.5834  1.0000
  H   H49       1.0  0.2718000000000001  0.9005999999999997  0.8674  1.0000
  H   H50       1.0  0.59  0.51  0.2418  1.0000
  H   H51       1.0  0.7377000000000001  0.9683999999999999  0.6652  1.0000
  H   H52       1.0  0.5954  0.7544  0.8877999999999998  1.0000
  H   H53       1.0  0.9226000000000001  0.1304  0.8291999999999998  1.0000
  H   H54       1.0  0.8126  0.107  0.8894  1.0000
  H   H55       1.0  0.09710000000000009  0.5316  0.6652  1.0000
  H   H56       1.0  0.15019999999999997  0.7544  0.6121999999999999  1.0000
  H   H57       1.0  0.7482000000000002  0.3695999999999999  0.8291999999999998  1.0000
  H   H58       1.0  0.6909999999999998  0.607  0.3894  1.0000
  H   H59       1.0  0.42620000000000013  0.6403999999999997  0.4166  1.0000
  H   H60       1.0  0.9053  0.9187999999999998  0.9752  1.0000
  H   H61       1.0  0.30900000000000005  0.39299999999999996  0.6106  1.0000
  H   H62       1.0  0.3821999999999999  0.3695999999999999  0.6708  1.0000
  H   H63       1.0  0.3608  0.5994  0.8674  1.0000
  H   H64       1.0  0.3240000000000003  0.7751999999999998  0.5709999999999997  1.0000
  H   H65       1.0  0.6178  0.6304  0.3292  1.0000
  H   H66       1.0  0.2518  0.6304  0.17079999999999995  1.0000
  H   H67       1.0  0.7376000000000001  0.7456  0.6121999999999999  1.0000
  H   H68       1.0  0.4008000000000001  0.7751999999999998  0.9289999999999998  1.0000
  H   H69       1.0  0.7282  0.0994  0.1326  1.0000
  H   H70       1.0  0.7939000000000004  0.9683999999999999  0.8348  1.0000
  H   H71       1.0  0.0947  0.0812  0.0248  1.0000
  H   H72       1.0  0.9832  0.2544  0.1122  1.0000
  C   C1        1.0  0.9468500000000001  0.05441999999999999  0.2597999999999999  1.0000
  C   C2        1.0  0.3017900000000001  0.6061599999999999  0.8484599999999998  1.0000
  C   C3        1.0  0.8263900000000001  0.5516599999999999  0.7992399999999997  1.0000
  C   C4        1.0  0.5920500000000003  0.6061599999999999  0.6515399999999998  1.0000
  C   C5        1.0  0.04722000000000005  0.96418  0.06657999999999997  1.0000
  C   C6        1.0  0.3726  0.45968  0.2838799999999999  1.0000
  C   C7        1.0  0.66184  0.5766  0.36215999999999987  1.0000
  C   C8        1.0  0.8487300000000001  0.19507999999999995  0.3618599999999999  1.0000
  C   C9        1.0  0.9505600000000001  0.13014  0.29737999999999987  1.0000
  C   C10       1.0  0.38619999999999993  0.53582  0.06657999999999997  1.0000
  C   C11       1.0  0.25206000000000006  0.36986  0.29737999999999987  1.0000
  C   C12       1.0  0.12563  0.051659999999999984  0.20076  1.0000
  C   C13       1.0  0.49872999999999995  0.05441999999999999  0.2402  1.0000
  C   C14       1.0  0.17361  0.44833999999999996  0.20076  1.0000
  C   C15       1.0  0.4220200000000001  0.46418  0.5665799999999998  1.0000
  C   C16       1.0  0.76107  0.44557999999999987  0.2402  1.0000
  C   C17       1.0  0.7066500000000001  0.55442  0.7401999999999997  1.0000
  C   C18       1.0  0.5438100000000003  0.8049199999999997  0.8618599999999997  1.0000
  C   C19       1.0  0.1512700000000002  0.8049199999999997  0.6381399999999998  1.0000
  C   C20       1.0  0.476  0.9234  0.36215999999999987  1.0000
  C   C21       1.0  0.48860000000000015  0.96418  0.43342  1.0000
  C   C22       1.0  0.3838400000000001  0.95968  0.7838799999999998  1.0000
  C   C23       1.0  0.8994000000000001  0.0766  0.8621599999999998  1.0000
  C   C24       1.0  0.74359  0.10616  0.3484599999999999  1.0000
  C   C25       1.0  0.61616  0.04032  0.21612  1.0000
  C   C26       1.0  0.6192200000000001  0.4519199999999999  0.48502  1.0000
  C   C27       1.0  0.29335000000000006  0.44557999999999987  0.2597999999999999  1.0000
  C   C28       1.0  0.6319400000000002  0.68186  0.61386  1.0000
  C   C29       1.0  0.54327  0.4166  0.54994  1.0000
  C   C30       1.0  0.42766000000000004  0.8181399999999999  0.88614  1.0000
  C   C31       1.0  0.9901899999999999  0.9166  0.049939999999999984  1.0000
  C   C32       1.0  0.33816000000000024  0.4233999999999999  0.6378399999999997  1.0000
  C   C33       1.0  0.7458  0.18185999999999994  0.38614  1.0000
  C   C34       1.0  0.15648000000000012  0.95968  0.7161199999999998  1.0000
  C   C35       1.0  0.8780800000000001  0.36986  0.20261999999999994  1.0000
  C   C36       1.0  0.39576  0.04808  0.48502  1.0000
  C   C37       1.0  0.4288600000000001  0.4519199999999999  0.01498  1.0000
  C   C38       1.0  0.3497500000000002  0.89384  0.8484599999999998  1.0000
  C   C39       1.0  0.25641000000000014  0.89384  0.6515399999999998  1.0000
  C   C40       1.0  0.8780500000000001  0.44833999999999996  0.29924  1.0000
  C   C41       1.0  0.5114  0.03582  0.5665799999999998  1.0000
  C   C42       1.0  0.09433000000000015  0.6950799999999999  0.8618599999999997  1.0000
  C   C43       1.0  0.5711399999999998  0.54808  0.9850199999999998  1.0000
  C   C44       1.0  0.25420000000000004  0.8181399999999999  0.61386  1.0000
  C   C45       1.0  0.57234  0.18185999999999994  0.11386  1.0000
  C   C46       1.0  0.5807  0.86986  0.7973799999999998  1.0000
  C   C47       1.0  0.6772900000000002  0.9483399999999997  0.7007599999999998  1.0000
  C   C48       1.0  0.40795000000000003  0.39383999999999997  0.3484599999999999  1.0000
  C   C49       1.0  0.5932099999999997  0.9166  0.4500599999999999  1.0000
  C   C50       1.0  0.45986999999999995  0.5834  0.049939999999999984  1.0000
  C   C51       1.0  0.71059  0.6950799999999999  0.6381399999999998  1.0000
  C   C52       1.0  0.74794  0.63014  0.7026199999999998  1.0000
  C   C53       1.0  0.38077999999999995  0.54808  0.51498  1.0000
  C   C54       1.0  0.5012699999999999  0.9455799999999998  0.7597999999999998  1.0000
  C   C55       1.0  0.5401299999999999  0.4166  0.95006  1.0000
  C   C56       1.0  0.57798  0.53582  0.43342  1.0000
  C   C57       1.0  0.32271  0.051659999999999984  0.29924  1.0000
  C   C58       1.0  0.8743700000000005  0.9483399999999997  0.7992399999999997  1.0000
  C   C59       1.0  0.9438400000000001  0.9519199999999998  0.9850199999999998  1.0000
  C   C60       1.0  0.049440000000000206  0.86986  0.7026199999999998  1.0000
  C   C61       1.0  0.45673000000000014  0.5834  0.4500599999999999  1.0000
  C   C62       1.0  0.95278  0.03582  0.9334199999999998  1.0000
  C   C63       1.0  0.26155999999999996  0.5766  0.13784  1.0000
  C   C64       1.0  0.8138  0.31814  0.11386  1.0000
  C   C65       1.0  0.41929999999999995  0.13014  0.20261999999999994  1.0000
  C   C66       1.0  0.05616  0.04808  0.01498  1.0000
  C   C67       1.0  0.524  0.0766  0.6378399999999997  1.0000
  C   C68       1.0  0.28941000000000006  0.30492  0.3618599999999999  1.0000
  C   C69       1.0  0.9056699999999999  0.30492  0.13813999999999996  1.0000
  C   C70       1.0  0.3322800000000001  0.54032  0.7838799999999998  1.0000
  C   C71       1.0  0.053150000000000246  0.9455799999999998  0.7401999999999997  1.0000
  C   C72       1.0  0.1862  0.68186  0.88614  1.0000
  C   C73       1.0  0.23893000000000006  0.55442  0.7597999999999998  1.0000
  C   C74       1.0  0.84352  0.04032  0.2838799999999999  1.0000
  C   C75       1.0  0.6137999999999999  0.46418  0.9334199999999998  1.0000
  C   C76       1.0  0.6042399999999999  0.9519199999999998  0.51498  1.0000
  C   C77       1.0  0.6274  0.54032  0.7161199999999998  1.0000
  C   C78       1.0  0.6982100000000001  0.39383999999999997  0.15154  1.0000
  C   C79       1.0  0.7384400000000001  0.4233999999999999  0.8621599999999998  1.0000
  C   C80       1.0  0.12195000000000016  0.5516599999999999  0.7007599999999998  1.0000
  C   C81       1.0  0.45619000000000004  0.19507999999999995  0.13813999999999996  1.0000
  C   C82       1.0  0.10059999999999991  0.9234  0.13784  1.0000
  C   C83       1.0  0.40679  0.0834  0.54994  1.0000
  C   C84       1.0  0.65025  0.10616  0.15154  1.0000
  C   C85       1.0  0.66772  0.45968  0.21612  1.0000
  C   C86       1.0  0.009809999999999954  0.0834  0.95006  1.0000
  C   C87       1.0  0.3680599999999997  0.31814  0.38614  1.0000
  C   C88       1.0  0.12192000000000007  0.63014  0.7973799999999998  1.0000
  N   N1        1.0  0.9500599999999999  0.37289999999999995  0.24298  1.0000
  N   N2        1.0  0.93912  0.9954599999999999  0.80188  1.0000
  N   N3        1.0  0.8229600000000001  0.6270999999999998  0.74298  1.0000
  N   N4        1.0  0.43458  0.00454  0.30188  1.0000
  N   N5        1.0  0.7590000000000001  0.50454  0.80188  1.0000
  N   N6        1.0  0.9340600000000001  0.8728999999999998  0.74298  1.0000
  N   N7        1.0  0.060880000000000004  0.00454  0.19812  1.0000
  N   N8        1.0  0.24099999999999996  0.49546  0.19812  1.0000
  N   N9        1.0  0.23645999999999998  0.50454  0.69812  1.0000
  N   N10       1.0  0.17704000000000003  0.37289999999999995  0.25702  1.0000
  N   N11       1.0  0.6930399999999999  0.8728999999999998  0.75702  1.0000
  N   N12       1.0  0.06594  0.12709999999999996  0.25702  1.0000
  N   N13       1.0  0.7635400000000001  0.49546  0.30188  1.0000
  N   N14       1.0  0.049940000000000144  0.6270999999999998  0.75702  1.0000
  N   N15       1.0  0.5654200000000003  0.9954599999999999  0.69812  1.0000
  N   N16       1.0  0.30696  0.12709999999999996  0.24298  1.0000
