data_image0
_chemical_formula_structural       Cu10H30C30N60
_chemical_formula_sum              "Cu10 H30 C30 N60"
_cell_length_a       12.36606429
_cell_length_b       12.36613439
_cell_length_c       12.779840579999998
_cell_angle_alpha    89.99945792
_cell_angle_beta     90.00165219999998
_cell_angle_gamma    119.99959695999999

_symmetry_space_group_name_H-M    'P 1'
_symmetry_Int_Tables_number       1

loop_
  _symmetry_equiv_pos_as_xyz
  'x,y,z'

loop_
  _atom_site_type_symbol
  _atom_site_label
  _atom_site_symmetry_multiplicity
  _atom_site_fract_x
  _atom_site_fract_y
  _atom_site_fract_z
  _atom_site_occupancy
  Cu  Cu1       1.0  0.33333244  0.6666700800000002  0.0943163  1.0000
  Cu  Cu2       1.0  0.3333323  0.66666622  0.40566069  1.0000
  Cu  Cu3       1.0  1.4100000000150493e-06  0.50000026  0.4999951  1.0000
  Cu  Cu4       1.0  0.50000031  0.9999946300000001  1.74e-06  1.0000
  Cu  Cu5       1.0  0.6666652899999999  0.33333128  0.9056708900000002  1.0000
  Cu  Cu6       1.0  0.49999727999999993  0.50000402  0.9999997  1.0000
  Cu  Cu7       1.0  0.49999882999999995  0.50000113  0.49999767  1.0000
  Cu  Cu8       1.0  5.0700000000105605e-06  0.50000034  2.24e-06  1.0000
  Cu  Cu9       1.0  0.4999996999999999  0.99999854  0.49999583  1.0000
  Cu  Cu10      1.0  0.66666664  0.33333439  0.59432874  1.0000
  H   H1        1.0  0.11936026000000001  0.55968029  0.75000136  1.0000
  H   H2        1.0  0.44031978  0.55968171  0.75000167  1.0000
  H   H3        1.0  0.55968229  0.11936476  0.25000219  1.0000
  H   H4        1.0  0.2865639  0.25763883  0.36813757  1.0000
  H   H5        1.0  0.71343646  0.74236209  0.6318630200000002  1.0000
  H   H6        1.0  0.88063731  0.44031801  0.25000026  1.0000
  H   H7        1.0  0.28656249  0.25763669  0.13186228  1.0000
  H   H8        1.0  0.25763647  0.2865605  0.8681367100000003  1.0000
  H   H9        1.0  0.2576376099999999  0.97107593  0.63186271  1.0000
  H   H10       1.0  0.25763959  0.28656369  0.63186257  1.0000
  H   H11       1.0  0.25763833  0.97107495  0.8681383  1.0000
  H   H12       1.0  0.55967983  0.44031864  0.24999894  1.0000
  H   H13       1.0  0.97107528  0.7134351  0.3681385400000001  1.0000
  H   H14       1.0  0.74236094  0.02892447  0.13186246  1.0000
  H   H15       1.0  0.028923650000000023  0.74236174  0.86813717  1.0000
  H   H16       1.0  0.28656369  0.028924950000000005  0.13186231  1.0000
  H   H17       1.0  0.7134394499999999  0.97107541  0.86813608  1.0000
  H   H18       1.0  0.44032016999999996  0.88063934  0.7499993300000001  1.0000
  H   H19       1.0  0.7423593399999999  0.71343461  0.3681388500000001  1.0000
  H   H20       1.0  0.7134383199999997  0.9710743  0.6318626  1.0000
  H   H21       1.0  0.9710775699999998  0.25763977  0.13186324  1.0000
  H   H22       1.0  0.97107626  0.2576393  0.36813661000000003  1.0000
  H   H23       1.0  0.71344009  0.74236552  0.8681360000000002  1.0000
  H   H24       1.0  0.74236137  0.71343674  0.13186176  1.0000
  H   H25       1.0  0.28656253  0.028925250000000003  0.36813819  1.0000
  H   H26       1.0  0.74236138  0.02892365  0.36813757  1.0000
  H   H27       1.0  0.028922189999999997  0.28655966  0.86813555  1.0000
  H   H28       1.0  0.028923970000000004  0.28656285  0.63186286  1.0000
  H   H29       1.0  0.97107733  0.7134371300000001  0.13186293  1.0000
  H   H30       1.0  0.028924140000000043  0.74236157  0.63186347  1.0000
  C   C1        1.0  0.11776601999999992  0.77025322  0.90535833  1.0000
  C   C2        1.0  0.11776119999999995  0.34750908  0.90535589  1.0000
  C   C3        1.0  0.65249119  0.88223935  0.90535613  1.0000
  C   C4        1.0  0.7702418599999998  0.11776401  0.40536662  1.0000
  C   C5        1.0  0.22974720000000004  0.8822338400000002  0.90535888  1.0000
  C   C6        1.0  0.49083534  0.98167008  0.75000174  1.0000
  C   C7        1.0  0.4908349499999999  0.50916589  0.7500051600000002  1.0000
  C   C8        1.0  0.7702393299999998  0.11776375  0.09463307000000001  1.0000
  C   C9        1.0  0.65247697  0.77024147  0.59463346  1.0000
  C   C10       1.0  0.018328730000000012  0.50916445  0.75000206  1.0000
  C   C11       1.0  0.34752356  0.22975909  0.09463336  1.0000
  C   C12       1.0  0.77023955  0.65247549  0.09463282000000003  1.0000
  C   C13       1.0  0.34752433999999993  0.11776363  0.09463331  1.0000
  C   C14       1.0  0.11776461  0.34752148  0.59463436  1.0000
  C   C15       1.0  0.88223677  0.22976035  0.09463350000000001  1.0000
  C   C16       1.0  0.88223594  0.22975852  0.40536572000000004  1.0000
  C   C17       1.0  0.22975846999999996  0.34752197  0.59463376  1.0000
  C   C18       1.0  0.22975825000000008  0.8822358800000001  0.5946331  1.0000
  C   C19       1.0  0.88223464  0.65247671  0.40536642  1.0000
  C   C20       1.0  0.77024072  0.65247643  0.4053669100000001  1.0000
  C   C21       1.0  0.6524779499999999  0.8822340700000001  0.59463329  1.0000
  C   C22       1.0  0.11776412  0.77024116  0.59463379  1.0000
  C   C23       1.0  0.50916948  0.01833954  0.25000998  1.0000
  C   C24       1.0  0.50916655  0.49083236  0.25000834  1.0000
  C   C25       1.0  0.88223645  0.65247528  0.09463329  1.0000
  C   C26       1.0  0.9816628699999997  0.49083127000000004  0.25000926000000007  1.0000
  C   C27       1.0  0.34752322  0.22975868  0.40536628  1.0000
  C   C28       1.0  0.22974714  0.34750908  0.90535687  1.0000
  C   C29       1.0  0.3475223499999999  0.11776587000000001  0.40536668  1.0000
  C   C30       1.0  0.6524917499999999  0.7702535400000001  0.9053563800000002  1.0000
  N   N1        1.0  0.1710745  0.58553735  0.3015148000000001  1.0000
  N   N2        1.0  0.41445292  0.82890685  0.19849198  1.0000
  N   N3        1.0  0.13425777  0.44493042  0.53437794  1.0000
  N   N4        1.0  0.52651445  0.05302894  0.83598284  1.0000
  N   N5        1.0  0.58553593  0.17107363  0.8015188400000001  1.0000
  N   N6        1.0  0.4734993599999999  0.52650286  0.16401208  1.0000
  N   N7        1.0  0.25112507  0.5022445  0.49889971  1.0000
  N   N8        1.0  0.58553859  0.41446058  0.69847532  1.0000
  N   N9        1.0  0.13425177999999996  0.44492106000000003  0.96561719  1.0000
  N   N10       1.0  0.6893248499999998  0.13425416  0.4656232  1.0000
  N   N11       1.0  0.8657431399999997  0.55506869  0.46562251  1.0000
  N   N12       1.0  0.8657453799999999  0.31067591000000006  0.46562173  1.0000
  N   N13       1.0  0.58553826  0.17107854  0.6984799300000002  1.0000
  N   N14       1.0  0.31067349  0.44492132000000006  0.96561797  1.0000
  N   N15       1.0  0.6893237399999997  0.55506292  0.03437362  1.0000
  N   N16       1.0  0.55507901  0.68933235  0.9656182900000002  1.0000
  N   N17       1.0  0.8657339299999999  0.31066976  0.03437429  1.0000
  N   N18       1.0  0.86573475  0.55506205  0.03437436  1.0000
  N   N19       1.0  0.68932775  0.13426465  0.03437347  1.0000
  N   N20       1.0  0.13425736000000002  0.68932534  0.53437799  1.0000
  N   N21       1.0  0.9469676199999998  0.47348507  0.6640143500000001  1.0000
  N   N22       1.0  0.25112741  0.50225561  0.0011132  1.0000
  N   N23       1.0  0.7488825199999998  0.25111568  0.99890514  1.0000
  N   N24       1.0  0.52651459  0.05302952  0.66401446  1.0000
  N   N25       1.0  0.05300631000000001  0.52650196  0.33599506  1.0000
  N   N26       1.0  0.8289174099999999  0.41445936  0.69848052  1.0000
  N   N27       1.0  0.41446517999999993  0.8289296  0.30151536  1.0000
  N   N28       1.0  0.13423799999999997  0.68931892  0.96561668  1.0000
  N   N29       1.0  0.3106740000000001  0.8657433400000001  0.5343769  1.0000
  N   N30       1.0  0.25112286999999994  0.74887845  0.49890043  1.0000
  N   N31       1.0  0.44493679  0.13426273  0.03437436  1.0000
  N   N32       1.0  0.31068413  0.86576386  0.9656174500000001  1.0000
  N   N33       1.0  0.5550682  0.8657406500000001  0.53437632  1.0000
  N   N34       1.0  0.4449332399999999  0.31067649  0.46562358  1.0000
  N   N35       1.0  0.31067491  0.44493053  0.53437727  1.0000
  N   N36       1.0  0.94696965  0.4734836800000001  0.8359830700000002  1.0000
  N   N37       1.0  0.47349604  0.9469921  0.16401919  1.0000
  N   N38       1.0  0.7488794  0.49776068  0.99890246  1.0000
  N   N39       1.0  0.55507808  0.86574506  0.96561848  1.0000
  N   N40       1.0  0.4144611099999999  0.58553994  0.30152129  1.0000
  N   N41       1.0  0.50224752  0.25112664  0.50110306  1.0000
  N   N42       1.0  0.58553345  0.41446317  0.80152287  1.0000
  N   N43       1.0  0.49775214000000007  0.74887386  0.49889803  1.0000
  N   N44       1.0  0.68932326  0.55506837  0.46562353  1.0000
  N   N45       1.0  0.4144441499999999  0.58555904  0.19847829000000006  1.0000
  N   N46       1.0  0.8289234799999999  0.4144610100000001  0.80151694  1.0000
  N   N47       1.0  0.05301296  0.52650767  0.16402158  1.0000
  N   N48       1.0  0.4977542399999999  0.7488785699999999  0.00110948  1.0000
  N   N49       1.0  0.74887353  0.49775409  0.50110191  1.0000
  N   N50       1.0  0.52651686  0.47348537  0.66401535  1.0000
  N   N51       1.0  0.47349359  0.52650456  0.33598698  1.0000
  N   N52       1.0  0.55506659  0.68932431  0.53437669  1.0000
  N   N53       1.0  0.47349889  0.94699718  0.33599314  1.0000
  N   N54       1.0  0.1710915  0.58554783  0.19849718  1.0000
  N   N55       1.0  0.44493492999999995  0.31067433  0.03437459  1.0000
  N   N56       1.0  0.52651183  0.47348584  0.8359818  1.0000
  N   N57       1.0  0.7488766199999999  0.25112207  0.5011021  1.0000
  N   N58       1.0  0.44493152999999996  0.13425839  0.465624  1.0000
  N   N59       1.0  0.50223864  0.25111895  0.99890182  1.0000
  N   N60       1.0  0.25114205999999994  0.7488597099999998  0.00112619  1.0000
