data_image0
_chemical_formula_structural       Mn6H36C72O24
_chemical_formula_sum              "Mn6 H36 C72 O24"
_cell_length_a       11.8731
_cell_length_b       13.2334
_cell_length_c       18.4743
_cell_angle_alpha    90.0
_cell_angle_beta     90.0
_cell_angle_gamma    109.511

_space_group_name_H-M_alt    "P 1"
_space_group_IT_number       1

loop_
  _space_group_symop_operation_xyz
  'x, y, z'

loop_
  _atom_site_type_symbol
  _atom_site_label
  _atom_site_symmetry_multiplicity
  _atom_site_fract_x
  _atom_site_fract_y
  _atom_site_fract_z
  _atom_site_occupancy
  Mn  Mn1       1.0  0.15165  0.78744  0.97968  1.0000
  Mn  Mn2       1.0  0.3483499999999999  0.71256  0.47968000000000005  1.0000
  Mn  Mn3       1.0  0.8483499999999999  0.21255999999999997  0.02032  1.0000
  Mn  Mn4       1.0  0.65165  0.28744  0.52032  1.0000
  Mn  Mn5       1.0  0.0  0.5  0.0  1.0000
  Mn  Mn6       1.0  0.5  0.0  0.5  1.0000
  H   H1        1.0  0.0695  0.133  0.8559  1.0000
  H   H2        1.0  0.2474  0.44799999999999995  0.8583  1.0000
  H   H3        1.0  0.38019999999999987  0.42789999999999995  0.7749  1.0000
  H   H4        1.0  0.4456999999999999  0.3106  0.6918  1.0000
  H   H5        1.0  0.2768  0.9946  0.6945  1.0000
  H   H6        1.0  0.1467  0.0132  0.7796  1.0000
  H   H7        1.0  0.5938  0.5848  0.8755000000000001  1.0000
  H   H8        1.0  0.4504  0.6644  0.8700000000000001  1.0000
  H   H9        1.0  0.3053  0.523  0.05550000000000001  1.0000
  H   H10       1.0  0.43049999999999994  0.367  0.3559000000000001  1.0000
  H   H11       1.0  0.2526  0.05199999999999999  0.3583  1.0000
  H   H12       1.0  0.11979999999999999  0.0721  0.2749  1.0000
  H   H13       1.0  0.0543  0.1894  0.1918  1.0000
  H   H14       1.0  0.2232  0.5054  0.1945  1.0000
  H   H15       1.0  0.3532999999999999  0.48679999999999995  0.2796  1.0000
  H   H16       1.0  0.9062  0.9152  0.3755  1.0000
  H   H17       1.0  0.04960000000000002  0.8356  0.37  1.0000
  H   H18       1.0  0.1947  0.977  0.5555000000000001  1.0000
  H   H19       1.0  0.9305  0.8669999999999999  0.1441  1.0000
  H   H20       1.0  0.7525999999999999  0.552  0.1417  1.0000
  H   H21       1.0  0.6198000000000001  0.5721  0.2251  1.0000
  H   H22       1.0  0.5543  0.6894  0.3082  1.0000
  H   H23       1.0  0.7231999999999998  0.0054  0.3055  1.0000
  H   H24       1.0  0.8532999999999998  0.9868  0.22040000000000004  1.0000
  H   H25       1.0  0.4062  0.4152  0.1245  1.0000
  H   H26       1.0  0.5495999999999999  0.3356  0.13  1.0000
  H   H27       1.0  0.6947  0.477  0.9445  1.0000
  H   H28       1.0  0.5695  0.633  0.6441  1.0000
  H   H29       1.0  0.7474  0.9479999999999998  0.6417  1.0000
  H   H30       1.0  0.8802  0.9279  0.7251  1.0000
  H   H31       1.0  0.9457  0.8106  0.8082000000000003  1.0000
  H   H32       1.0  0.7768  0.49459999999999993  0.8055000000000002  1.0000
  H   H33       1.0  0.6467  0.5132  0.7204000000000002  1.0000
  H   H34       1.0  0.09379999999999998  0.0848  0.6245  1.0000
  H   H35       1.0  0.9504  0.1644  0.63  1.0000
  H   H36       1.0  0.8053  0.023  0.4445  1.0000
  C   C1        1.0  0.13209999999999997  0.1917  0.83927  1.0000
  C   C2        1.0  0.14419999999999997  0.2916  0.86438  1.0000
  C   C3        1.0  0.23859999999999995  0.3802  0.84025  1.0000
  C   C4        1.0  0.3178  0.3682  0.79056  1.0000
  C   C5        1.0  0.38459999999999994  0.2514  0.70933  1.0000
  C   C6        1.0  0.37279999999999996  0.1527  0.68313  1.0000
  C   C7        1.0  0.2832  0.0626  0.71104  1.0000
  C   C8        1.0  0.2057  0.0737  0.7618900000000001  1.0000
  C   C9        1.0  0.21349999999999994  0.176  0.78821  1.0000
  C   C10       1.0  0.3062  0.2664  0.76264  1.0000
  C   C11       1.0  0.05719999999999999  0.3086  0.91844  1.0000
  C   C12       1.0  0.4547  0.1424  0.62308  1.0000
  C   C13       1.0  0.5382  0.5739  0.91268  1.0000
  C   C14       1.0  0.45169999999999993  0.6201  0.9088999999999999  1.0000
  C   C15       1.0  0.3637  0.6017  0.9633600000000001  1.0000
  C   C16       1.0  0.3649  0.5369  0.02053  1.0000
  C   C17       1.0  0.4559  0.49049999999999994  0.02732  1.0000
  C   C18       1.0  0.2765  0.6616  0.96118  1.0000
  C   C19       1.0  0.3679  0.3083  0.33927  1.0000
  C   C20       1.0  0.35579999999999995  0.2084  0.36438  1.0000
  C   C21       1.0  0.2613999999999999  0.1198  0.3402500000000001  1.0000
  C   C22       1.0  0.1822  0.1318  0.29056000000000004  1.0000
  C   C23       1.0  0.1154  0.2486  0.20933000000000002  1.0000
  C   C24       1.0  0.1272  0.3473  0.18313  1.0000
  C   C25       1.0  0.2168  0.4374  0.21104  1.0000
  C   C26       1.0  0.2943  0.42629999999999996  0.26189  1.0000
  C   C27       1.0  0.2865  0.324  0.28821  1.0000
  C   C28       1.0  0.19379999999999997  0.23359999999999997  0.26264  1.0000
  C   C29       1.0  0.4428  0.1914  0.4184400000000001  1.0000
  C   C30       1.0  0.04530000000000001  0.3576  0.12308  1.0000
  C   C31       1.0  0.9617999999999999  0.9260999999999999  0.4126800000000001  1.0000
  C   C32       1.0  0.048300000000000023  0.8799  0.4089  1.0000
  C   C33       1.0  0.1363  0.8983  0.46336  1.0000
  C   C34       1.0  0.1351  0.9631  0.52053  1.0000
  C   C35       1.0  0.0441  0.0095  0.5273200000000001  1.0000
  C   C36       1.0  0.2235  0.8384  0.46118000000000003  1.0000
  C   C37       1.0  0.8679  0.8083  0.16073  1.0000
  C   C38       1.0  0.8557999999999998  0.7084  0.13562  1.0000
  C   C39       1.0  0.7614  0.6198  0.15975  1.0000
  C   C40       1.0  0.6822  0.6318  0.20944  1.0000
  C   C41       1.0  0.6154  0.7486  0.29067000000000004  1.0000
  C   C42       1.0  0.6272  0.8472999999999999  0.31687  1.0000
  C   C43       1.0  0.7167999999999999  0.9373999999999999  0.28896  1.0000
  C   C44       1.0  0.7943  0.9263  0.23811000000000002  1.0000
  C   C45       1.0  0.7865  0.824  0.21179  1.0000
  C   C46       1.0  0.6938  0.7336  0.23736000000000002  1.0000
  C   C47       1.0  0.9427999999999999  0.6914  0.08156000000000001  1.0000
  C   C48       1.0  0.5453  0.8576  0.37692  1.0000
  C   C49       1.0  0.4617999999999999  0.4261  0.08732  1.0000
  C   C50       1.0  0.5483  0.3799  0.09110000000000003  1.0000
  C   C51       1.0  0.6362999999999999  0.3983  0.03664  1.0000
  C   C52       1.0  0.6351  0.4631  0.97947  1.0000
  C   C53       1.0  0.5440999999999998  0.5095  0.97268  1.0000
  C   C54       1.0  0.7235  0.3384  0.03882000000000001  1.0000
  C   C55       1.0  0.6320999999999999  0.6917  0.66073  1.0000
  C   C56       1.0  0.6441999999999999  0.7915999999999999  0.6356200000000001  1.0000
  C   C57       1.0  0.7385999999999998  0.8802  0.6597500000000001  1.0000
  C   C58       1.0  0.8178  0.8681999999999999  0.7094400000000001  1.0000
  C   C59       1.0  0.8846  0.7514  0.79067  1.0000
  C   C60       1.0  0.8727999999999998  0.6527  0.81687  1.0000
  C   C61       1.0  0.7832  0.5626  0.7889600000000001  1.0000
  C   C62       1.0  0.7056999999999999  0.5737  0.73811  1.0000
  C   C63       1.0  0.7135  0.676  0.71179  1.0000
  C   C64       1.0  0.8062  0.7664  0.7373600000000002  1.0000
  C   C65       1.0  0.5572  0.8086  0.5815600000000001  1.0000
  C   C66       1.0  0.9547  0.6423999999999999  0.8769200000000001  1.0000
  C   C67       1.0  0.0382  0.0739  0.58732  1.0000
  C   C68       1.0  0.9516999999999998  0.1201  0.5911  1.0000
  C   C69       1.0  0.8636999999999999  0.1017  0.53664  1.0000
  C   C70       1.0  0.8649  0.0369  0.47947000000000006  1.0000
  C   C71       1.0  0.9559  0.9905  0.47268  1.0000
  C   C72       1.0  0.7764999999999997  0.1616  0.5388200000000001  1.0000
  O   O1        1.0  0.07016999999999995  0.40202999999999994  0.93552  1.0000
  O   O2        1.0  0.9778899999999998  0.22671  0.94122  1.0000
  O   O3        1.0  0.43749  0.05191  0.59772  1.0000
  O   O4        1.0  0.53265  0.22675  0.60455  1.0000
  O   O5        1.0  0.18233  0.62877  0.9990300000000001  1.0000
  O   O6        1.0  0.30281  0.74639  0.92602  1.0000
  O   O7        1.0  0.42983  0.09797  0.43552  1.0000
  O   O8        1.0  0.52211  0.27329  0.44122000000000006  1.0000
  O   O9        1.0  0.06251  0.44809  0.09772  1.0000
  O   O10       1.0  0.9673499999999999  0.27325  0.10455  1.0000
  O   O11       1.0  0.31767  0.87123  0.49903  1.0000
  O   O12       1.0  0.19719  0.75361  0.42602  1.0000
  O   O13       1.0  0.9298299999999999  0.59797  0.06448000000000001  1.0000
  O   O14       1.0  0.022110000000000025  0.77329  0.058780000000000006  1.0000
  O   O15       1.0  0.56251  0.94809  0.40228  1.0000
  O   O16       1.0  0.4673499999999999  0.77325  0.39545  1.0000
  O   O17       1.0  0.81767  0.37123  0.00097  1.0000
  O   O18       1.0  0.69719  0.25361  0.07398  1.0000
  O   O19       1.0  0.57017  0.90203  0.56448  1.0000
  O   O20       1.0  0.47789  0.72671  0.55878  1.0000
  O   O21       1.0  0.9374899999999999  0.55191  0.9022800000000001  1.0000
  O   O22       1.0  0.032649999999999985  0.72675  0.8954500000000001  1.0000
  O   O23       1.0  0.6823299999999999  0.12877  0.50097  1.0000
  O   O24       1.0  0.8028099999999999  0.24639  0.57398  1.0000
