data_image0
_chemical_formula_structural       Mn4H16C32O16
_chemical_formula_sum              "Mn4 H16 C32 O16"
_cell_length_a       10.3177
_cell_length_b       10.3177
_cell_length_c       12.6527
_cell_angle_alpha    100.754
_cell_angle_beta     100.754
_cell_angle_gamma    104.73

_space_group_name_H-M_alt    "P 1"
_space_group_IT_number       1

loop_
  _space_group_symop_operation_xyz
  'x, y, z'

loop_
  _atom_site_type_symbol
  _atom_site_label
  _atom_site_symmetry_multiplicity
  _atom_site_fract_x
  _atom_site_fract_y
  _atom_site_fract_z
  _atom_site_occupancy
  Mn  Mn1       1.0  0.7728599999999999  0.37851999999999997  0.9014699999999999  1.0000
  Mn  Mn2       1.0  0.62148  0.22714  0.59853  1.0000
  Mn  Mn3       1.0  0.22714  0.62148  0.09852999999999999  1.0000
  Mn  Mn4       1.0  0.37852  0.77286  0.40147  1.0000
  H   H1        1.0  0.6149  0.6729  0.5907  1.0000
  H   H2        1.0  0.8277  0.038100000000000085  0.8024  1.0000
  H   H3        1.0  0.9235000000000003  0.9255  0.9215  1.0000
  H   H4        1.0  0.8698000000000002  0.6882000000000001  0.8755  1.0000
  H   H5        1.0  0.3271  0.3851  0.9093  1.0000
  H   H6        1.0  0.9619000000000001  0.1723  0.6976  1.0000
  H   H7        1.0  0.07450000000000001  0.07650000000000001  0.5785  1.0000
  H   H8        1.0  0.31179999999999997  0.1302  0.6245  1.0000
  H   H9        1.0  0.3851  0.32709999999999995  0.4093  1.0000
  H   H10       1.0  0.17230000000000006  0.9619  0.1976  1.0000
  H   H11       1.0  0.0765  0.0745  0.0785  1.0000
  H   H12       1.0  0.1302  0.3118  0.1245  1.0000
  H   H13       1.0  0.6728999999999999  0.6149  0.0907  1.0000
  H   H14       1.0  0.03810000000000001  0.8277000000000001  0.3024  1.0000
  H   H15       1.0  0.9255  0.9235  0.42149999999999993  1.0000
  H   H16       1.0  0.6882  0.8698000000000001  0.3755  1.0000
  C   C1        1.0  0.7369099999999998  0.65689  0.7289  1.0000
  C   C2        1.0  0.67825  0.72415  0.657  1.0000
  C   C3        1.0  0.7129499999999999  0.86685  0.6832  1.0000
  C   C4        1.0  0.8048  0.9422000000000001  0.7833  1.0000
  C   C5        1.0  0.862  0.8746000000000002  0.8543  1.0000
  C   C6        1.0  0.8293000000000001  0.7327000000000002  0.8273  1.0000
  C   C7        1.0  0.7013800000000001  0.5024200000000001  0.6985  1.0000
  C   C8        1.0  0.65092  0.93948  0.6048  1.0000
  C   C9        1.0  0.3431100000000001  0.26309  0.7711  1.0000
  C   C10       1.0  0.27584999999999993  0.3217499999999999  0.8429999999999999  1.0000
  C   C11       1.0  0.13315  0.28705  0.8168  1.0000
  C   C12       1.0  0.057800000000000004  0.19520000000000004  0.7167  1.0000
  C   C13       1.0  0.12540000000000007  0.138  0.6457  1.0000
  C   C14       1.0  0.26730000000000004  0.17070000000000005  0.6727  1.0000
  C   C15       1.0  0.49758  0.29861999999999994  0.8014999999999999  1.0000
  C   C16       1.0  0.06051999999999998  0.34908000000000006  0.8951999999999999  1.0000
  C   C17       1.0  0.26309  0.34311  0.2711  1.0000
  C   C18       1.0  0.32175  0.27585  0.34299999999999997  1.0000
  C   C19       1.0  0.28705  0.13315000000000002  0.3168  1.0000
  C   C20       1.0  0.19520000000000004  0.05779999999999998  0.21669999999999998  1.0000
  C   C21       1.0  0.138  0.1254  0.1457  1.0000
  C   C22       1.0  0.17070000000000002  0.26730000000000004  0.1727  1.0000
  C   C23       1.0  0.29862  0.49758  0.3015  1.0000
  C   C24       1.0  0.34908  0.06052  0.3952  1.0000
  C   C25       1.0  0.65689  0.73691  0.2289  1.0000
  C   C26       1.0  0.72415  0.67825  0.157  1.0000
  C   C27       1.0  0.86685  0.71295  0.1832  1.0000
  C   C28       1.0  0.9422  0.8048  0.2833  1.0000
  C   C29       1.0  0.8746  0.8620000000000001  0.3543  1.0000
  C   C30       1.0  0.7327000000000002  0.8293000000000001  0.3273  1.0000
  C   C31       1.0  0.50242  0.70138  0.1985  1.0000
  C   C32       1.0  0.9394800000000001  0.65092  0.1048  1.0000
  O   O1        1.0  0.7804  0.44728  0.75  1.0000
  O   O2        1.0  0.59832  0.43406000000000006  0.62225  1.0000
  O   O3        1.0  0.55669  0.86819  0.52448  1.0000
  O   O4        1.0  0.70059  0.06727  0.626  1.0000
  O   O5        1.0  0.55272  0.21960000000000002  0.75  1.0000
  O   O6        1.0  0.5659400000000001  0.40168000000000004  0.87775  1.0000
  O   O7        1.0  0.13181000000000007  0.44331  0.9755199999999999  1.0000
  O   O8        1.0  0.9327300000000002  0.29941  0.874  1.0000
  O   O9        1.0  0.2196  0.55272  0.25  1.0000
  O   O10       1.0  0.40168  0.56594  0.37775  1.0000
  O   O11       1.0  0.44331  0.13181  0.47552  1.0000
  O   O12       1.0  0.29941  0.93273  0.374  1.0000
  O   O13       1.0  0.44728  0.7804  0.25  1.0000
  O   O14       1.0  0.43406  0.59832  0.12224999999999998  1.0000
  O   O15       1.0  0.8681900000000001  0.55669  0.02448  1.0000
  O   O16       1.0  0.06726999999999998  0.70059  0.126  1.0000
