data_image0
_chemical_formula_structural       Cd8H16C16O24
_chemical_formula_sum              "Cd8 H16 C16 O24"
_cell_length_a       8.365
_cell_length_b       9.795
_cell_length_c       20.946
_cell_angle_alpha    90.0
_cell_angle_beta     90.0
_cell_angle_gamma    90.0

_symmetry_space_group_name_H-M    'P 1'
_symmetry_Int_Tables_number       1

loop_
  _symmetry_equiv_pos_as_xyz
  'x,y,z'

loop_
  _atom_site_type_symbol
  _atom_site_label
  _atom_site_symmetry_multiplicity
  _atom_site_fract_x
  _atom_site_fract_y
  _atom_site_fract_z
  _atom_site_occupancy
  Cd  Cd1       1.0  0.50768  0.60338  0.71677  1.0000
  Cd  Cd2       1.0  0.30831  0.65942  0.97866  1.0000
  Cd  Cd3       1.0  0.99232  0.39662  0.21677  1.0000
  Cd  Cd4       1.0  0.19169  0.34058  0.47866000000000003  1.0000
  Cd  Cd5       1.0  0.49232  0.10338000000000001  0.78323  1.0000
  Cd  Cd6       1.0  0.69169  0.15942  0.52134  1.0000
  Cd  Cd7       1.0  0.00768  0.89662  0.28323  1.0000
  Cd  Cd8       1.0  0.80831  0.8405800000000001  0.02134  1.0000
  H   H1        1.0  0.4248  0.4001000000000001  0.9241  1.0000
  H   H2        1.0  0.6943  0.6781  0.8156  1.0000
  H   H3        1.0  0.6721  0.41000000000000003  0.9396999999999999  1.0000
  H   H4        1.0  0.7888  0.4975  0.846  1.0000
  H   H5        1.0  0.0752  0.5999  0.4241  1.0000
  H   H6        1.0  0.8057  0.3219  0.3156  1.0000
  H   H7        1.0  0.8279  0.59  0.4397  1.0000
  H   H8        1.0  0.7112  0.5025  0.346  1.0000
  H   H9        1.0  0.5752  0.9001  0.5759  1.0000
  H   H10       1.0  0.3057  0.1781  0.6844  1.0000
  H   H11       1.0  0.3279  0.9100000000000001  0.5603  1.0000
  H   H12       1.0  0.2112  0.9975000000000003  0.654  1.0000
  H   H13       1.0  0.9248  0.0999  0.0759  1.0000
  H   H14       1.0  0.1943  0.8219  0.1844  1.0000
  H   H15       1.0  0.1721  0.09  0.0603  1.0000
  H   H16       1.0  0.2888  0.0025  0.154  1.0000
  C   C1        1.0  0.6784  0.6203  0.9555099999999999  1.0000
  C   C2        1.0  0.6214  0.4924  0.92017  1.0000
  C   C3        1.0  0.6697  0.5015000000000001  0.84919  1.0000
  C   C4        1.0  0.5989  0.37900000000000006  0.81404  1.0000
  C   C5        1.0  0.8216  0.3797  0.45550999999999997  1.0000
  C   C6        1.0  0.8786  0.5076  0.42016999999999993  1.0000
  C   C7        1.0  0.8303  0.49850000000000005  0.34919  1.0000
  C   C8        1.0  0.9011  0.6210000000000001  0.31404  1.0000
  C   C9        1.0  0.3216  0.1203  0.54449  1.0000
  C   C10       1.0  0.3786  0.9924  0.57983  1.0000
  C   C11       1.0  0.3303  0.0015000000000000002  0.65081  1.0000
  C   C12       1.0  0.4011  0.879  0.68596  1.0000
  C   C13       1.0  0.1784  0.8797000000000001  0.04449  1.0000
  C   C14       1.0  0.12140000000000001  0.0076  0.07983  1.0000
  C   C15       1.0  0.1697  0.9985000000000002  0.15081  1.0000
  C   C16       1.0  0.0989  0.12100000000000001  0.18596  1.0000
  O   O1        1.0  0.5814  0.6976  0.98354  1.0000
  O   O2        1.0  0.8279  0.6436  0.95545  1.0000
  O   O3        1.0  0.4523  0.4824  0.9260899999999999  1.0000
  O   O4        1.0  0.6157  0.6267  0.82219  1.0000
  O   O5        1.0  0.5997  0.2667  0.84402  1.0000
  O   O6        1.0  0.5449  0.39080000000000004  0.75792  1.0000
  O   O7        1.0  0.9186  0.3024  0.48354  1.0000
  O   O8        1.0  0.6721  0.3564  0.45544999999999997  1.0000
  O   O9        1.0  0.0477  0.5176  0.42609  1.0000
  O   O10       1.0  0.8843  0.3733  0.32219  1.0000
  O   O11       1.0  0.9003  0.7333  0.34402  1.0000
  O   O12       1.0  0.9551  0.6092  0.25792  1.0000
  O   O13       1.0  0.4186  0.1976  0.51646  1.0000
  O   O14       1.0  0.1721  0.1436  0.54455  1.0000
  O   O15       1.0  0.5477  0.9824  0.57391  1.0000
  O   O16       1.0  0.3843  0.1267  0.67781  1.0000
  O   O17       1.0  0.4003  0.7667000000000003  0.65598  1.0000
  O   O18       1.0  0.4551  0.8908  0.74208  1.0000
  O   O19       1.0  0.0814  0.8024  0.01646  1.0000
  O   O20       1.0  0.3279  0.8564000000000002  0.04455  1.0000
  O   O21       1.0  0.9523  0.0176  0.07391  1.0000
  O   O22       1.0  0.1157  0.8733  0.17781  1.0000
  O   O23       1.0  0.0997  0.2333  0.15598  1.0000
  O   O24       1.0  0.0449  0.10920000000000003  0.24208  1.0000
