data_image0
_chemical_formula_structural       Zn2H24C30N12
_chemical_formula_sum              "Zn2 H24 C30 N12"
_cell_length_a       7.5481
_cell_length_b       10.887800000000002
_cell_length_c       19.046
_cell_angle_alpha    79.948
_cell_angle_beta     79.57
_cell_angle_gamma    73.077

_symmetry_space_group_name_H-M    'P 1'
_symmetry_Int_Tables_number       1

loop_
  _symmetry_equiv_pos_as_xyz
  'x,y,z'

loop_
  _atom_site_type_symbol
  _atom_site_label
  _atom_site_symmetry_multiplicity
  _atom_site_fract_x
  _atom_site_fract_y
  _atom_site_fract_z
  _atom_site_occupancy
  Zn  Zn1       1.0  0.3928100000000001  0.7844  0.45164  1.0000
  Zn  Zn2       1.0  0.71636  0.28664  0.96788  1.0000
  H   H1        1.0  0.053299999999999965  0.5574  0.6533  1.0000
  H   H2        1.0  0.22930000000000006  0.3327  0.1833  1.0000
  H   H3        1.0  0.3582000000000001  0.2465  0.551  1.0000
  H   H4        1.0  0.4521  0.553  0.0229  1.0000
  H   H5        1.0  0.8293999999999999  0.5973  0.4756  1.0000
  H   H6        1.0  0.4582  0.003600000000000011  0.8552  1.0000
  H   H7        1.0  0.1134  0.506  0.241  1.0000
  H   H8        1.0  0.08240000000000007  0.5669  0.3717  1.0000
  H   H9        1.0  0.6001  0.7095  0.586  1.0000
  H   H10       1.0  0.21720000000000006  0.7254  0.053  1.0000
  H   H11       1.0  0.2813  0.9696  0.055299999999999995  1.0000
  H   H12       1.0  0.3628  0.4026  0.7273  1.0000
  H   H13       1.0  0.6185  0.8552  0.6687  1.0000
  H   H14       1.0  0.4939000000000002  0.014099999999999994  0.7315  1.0000
  H   H15       1.0  0.5726000000000003  0.0388  0.9592  1.0000
  H   H16       1.0  0.13600000000000004  0.16719999999999996  0.98  1.0000
  H   H17       1.0  0.6170999999999999  0.7866999999999998  0.3014  1.0000
  H   H18       1.0  0.7412000000000002  0.0151  0.0839  1.0000
  H   H19       1.0  0.8604000000000002  0.8904  0.2158  1.0000
  H   H20       1.0  0.5640000000000001  0.3433  0.8187999999999999  1.0000
  H   H21       1.0  0.5052000000000002  0.4773  0.5142  1.0000
  H   H22       1.0  0.33140000000000014  0.06090000000000001  0.5128  1.0000
  H   H23       1.0  0.4547999999999999  0.1934  0.1046  1.0000
  H   H24       1.0  0.05119999999999993  0.7438  0.5593  1.0000
  C   C1        1.0  0.1861000000000001  0.5981  0.1431  1.0000
  C   C2        1.0  0.398  0.9911  0.5417  1.0000
  C   C3        1.0  0.9589000000000005  0.6153  0.3703  1.0000
  C   C4        1.0  0.5522999999999997  0.2624  0.8412  1.0000
  C   C5        1.0  0.4258  0.4809  0.0522  1.0000
  C   C6        1.0  0.4575  0.097  0.7069  1.0000
  C   C7        1.0  0.9784000000000002  0.6959999999999998  0.24039999999999997  1.0000
  C   C8        1.0  0.8173000000000001  0.6305  0.4277  1.0000
  C   C9        1.0  0.3017  0.3591  0.1416  1.0000
  C   C10       1.0  0.15880000000000005  0.7184999999999999  0.1003  1.0000
  C   C11       1.0  0.35160000000000013  0.3411  0.6336  1.0000
  C   C12       1.0  0.42510000000000003  0.2834  0.098  1.0000
  C   C13       1.0  0.42519999999999997  0.11409999999999998  0.6357  1.0000
  C   C14       1.0  0.5475000000000002  0.7985999999999999  0.5817999999999999  1.0000
  C   C15       1.0  0.5567999999999999  0.8784  0.6283  1.0000
  C   C16       1.0  0.6996999999999999  0.7356000000000001  0.3325  1.0000
  C   C17       1.0  0.14309999999999998  0.5626  0.6133  1.0000
  C   C18       1.0  0.044000000000000046  0.8266999999999999  0.1292  1.0000
  C   C19       1.0  0.9453  0.8179999999999998  0.19819999999999996  1.0000
  C   C20       1.0  0.49119999999999997  0.0771  0.8605  1.0000
  C   C21       1.0  0.3756  0.2353  0.5991  1.0000
  C   C22       1.0  0.3896999999999999  0.5211  0.5367  1.0000
  C   C23       1.0  0.09570000000000002  0.5864  0.2129  1.0000
  C   C24       1.0  0.07320000000000002  0.11259999999999999  0.0109  1.0000
  C   C25       1.0  0.15450000000000003  0.0019000000000000006  0.0515  1.0000
  C   C26       1.0  0.1449  0.6663  0.5615  1.0000
  C   C27       1.0  0.3799000000000001  0.32989999999999997  0.7047999999999999  1.0000
  C   C28       1.0  0.5583000000000002  0.09590000000000004  0.9168999999999999  1.0000
  C   C29       1.0  0.8578  0.0297  0.0668  1.0000
  C   C30       1.0  0.43489999999999995  0.2052  0.741  1.0000
  N   N1        1.0  0.019700000000000054  0.9485  0.0848  1.0000
  N   N2        1.0  0.4539000000000001  0.0025000000000000313  0.6024999999999999  1.0000
  N   N3        1.0  0.6023000000000002  0.2103  0.9030999999999999  1.0000
  N   N4        1.0  0.6526  0.7045  0.4013  1.0000
  N   N5        1.0  0.5055  0.3587  0.0397  1.0000
  N   N6        1.0  0.30129999999999996  0.4857  0.1133  1.0000
  N   N7        1.0  0.8837000000000002  0.6838  0.3123  1.0000
  N   N8        1.0  0.4465  0.8721999999999999  0.5271  1.0000
  N   N9        1.0  0.3012  0.6402  0.5144  1.0000
  N   N10       1.0  0.4806000000000002  0.18480000000000002  0.8126999999999999  1.0000
  N   N11       1.0  0.2973000000000001  0.46989999999999993  0.5945  1.0000
  N   N12       1.0  0.8827  0.1306  0.0229  1.0000
