data_image0
_chemical_formula_structural       Cu12H24C72O48
_chemical_formula_sum              "Cu12 H24 C72 O48"
_cell_length_a       18.7042833
_cell_length_b       18.70433077
_cell_length_c       18.70378615
_cell_angle_alpha    60.00042874
_cell_angle_beta     59.99668955
_cell_angle_gamma    60.00076787

_symmetry_space_group_name_H-M    'P 1'
_symmetry_Int_Tables_number       1

loop_
  _symmetry_equiv_pos_as_xyz
  'x,y,z'

loop_
  _atom_site_type_symbol
  _atom_site_label
  _atom_site_symmetry_multiplicity
  _atom_site_fract_x
  _atom_site_fract_y
  _atom_site_fract_z
  _atom_site_occupancy
  Cu  Cu1       1.0  0.5657657199999998  0.4342381099999999  0.9999961700000001  1.0000
  Cu  Cu2       1.0  5.329999999933545e-06  0.5657127  0.43428429  1.0000
  Cu  Cu3       1.0  1.8399999999975495e-06  0.43417376  1.76e-06  1.0000
  Cu  Cu4       1.0  0.56574005  0.9999987499999999  0.99999917  1.0000
  Cu  Cu5       1.0  0.43411979000000006  0.9999990199999998  0.5658837  1.0000
  Cu  Cu6       1.0  2.760000000001907e-06  1.8100000000022601e-06  0.434176  1.0000
  Cu  Cu7       1.0  0.99999953  0.56576151  0.99999936  1.0000
  Cu  Cu8       1.0  0.99999575  0.43416485999999993  0.56584002  1.0000
  Cu  Cu9       1.0  0.43418210999999995  0.56581613  3.8100000000000004e-06  1.0000
  Cu  Cu10      1.0  0.99999938  0.9999982  0.56578124  1.0000
  Cu  Cu11      1.0  0.4341808300000001  2.22e-06  2e-08  1.0000
  Cu  Cu12      1.0  0.56566177  1.59999999997019e-07  0.4343377600000001  1.0000
  H   H1        1.0  0.97131741  0.26610806  0.26610236  1.0000
  H   H2        1.0  0.5035233600000001  0.73390215  0.73389239  1.0000
  H   H3        1.0  0.7338973099999999  0.73389717  0.02868329  1.0000
  H   H4        1.0  0.49648638000000017  0.2660976199999999  0.97131729  1.0000
  H   H5        1.0  0.9713176300000002  0.26610699  0.49648014  1.0000
  H   H6        1.0  0.73389634  0.50353019  0.02868291  1.0000
  H   H7        1.0  0.49650328  0.26610864000000006  0.26607088  1.0000
  H   H8        1.0  0.73392536  0.028683169999999997  0.50350408  1.0000
  H   H9        1.0  0.028683499999999952  0.5035300600000001  0.73389162  1.0000
  H   H10       1.0  0.7339187300000003  0.7339038099999998  0.50349561  1.0000
  H   H11       1.0  0.4965034699999999  0.97131714  0.2660704300000001  1.0000
  H   H12       1.0  0.73389428  0.02868338  0.73389685  1.0000
  H   H13       1.0  0.26611342  0.266104  0.97131631  1.0000
  H   H14       1.0  0.02868321000000006  0.73391421  0.50351228  1.0000
  H   H15       1.0  0.028683319999999977  0.73389425  0.7338962  1.0000
  H   H16       1.0  0.2661032100000001  0.26610113999999996  0.49647944000000005  1.0000
  H   H17       1.0  0.5035251399999999  0.028683969999999982  0.73389629  1.0000
  H   H18       1.0  0.5035239999999999  0.73390232  0.02868307  1.0000
  H   H19       1.0  0.26610695  0.49647081000000004  0.97131752  1.0000
  H   H20       1.0  0.26611139000000006  0.97131688  0.49647513  1.0000
  H   H21       1.0  0.9713178799999999  0.49648452000000004  0.26608713  1.0000
  H   H22       1.0  0.7338999600000001  0.5035293399999997  0.73388875  1.0000
  H   H23       1.0  0.2661163899999999  0.97131651  0.26610169  1.0000
  H   H24       1.0  0.26611541  0.49647866  0.2660889  1.0000
  C   C1        1.0  0.3863169100000001  0.38630159  0.25684999  1.0000
  C   C2        1.0  0.30001268000000003  0.29999581  0.42963672  1.0000
  C   C3        1.0  0.2568892799999999  0.38629250000000004  0.97052793  1.0000
  C   C4        1.0  0.43047193  0.16290509  0.43055904  1.0000
  C   C5        1.0  0.42965950999999997  0.30001636000000004  0.29996596  1.0000
  C   C6        1.0  0.3863055600000001  0.38628607000000004  0.9705331  1.0000
  C   C7        1.0  0.3000098100000001  0.9703550499999999  0.30000294  1.0000
  C   C8        1.0  0.023937530000000016  0.56946011  0.83712987  1.0000
  C   C9        1.0  0.02964223000000009  0.7000311899999999  0.57034951  1.0000
  C   C10       1.0  0.70001222  0.7000093699999999  0.5703364300000001  1.0000
  C   C11       1.0  0.6137379500000001  0.7431118799999997  0.61368778  1.0000
  C   C12       1.0  0.4305336899999999  0.16285254999999998  0.9760737  1.0000
  C   C13       1.0  0.38630468000000007  0.2569081  0.38625191  1.0000
  C   C14       1.0  0.30001669000000003  0.97035718  0.4296304  1.0000
  C   C15       1.0  0.57036665  0.7000094300000002  0.69998267  1.0000
  C   C16       1.0  0.3863051699999999  0.25687699  0.9705267  1.0000
  C   C17       1.0  0.97052863  0.3862963199999999  0.25687335  1.0000
  C   C18       1.0  0.5694638999999999  0.56947318  0.02393776  1.0000
  C   C19       1.0  0.43053384000000006  0.9760744299999999  0.16284444  1.0000
  C   C20       1.0  0.3000128699999998  0.29999994  0.97035377  1.0000
  C   C21       1.0  0.30001172999999987  0.42963066  0.97035928  1.0000
  C   C22       1.0  0.029643389999999943  0.70000533  0.69998414  1.0000
  C   C23       1.0  0.3863067099999999  0.9705259900000001  0.25687038  1.0000
  C   C24       1.0  0.70003355  0.02964253  0.5703473  1.0000
  C   C25       1.0  0.97606372  0.43053359  0.16286364  1.0000
  C   C26       1.0  0.57036316  0.02964643000000002  0.69998706  1.0000
  C   C27       1.0  0.6137053600000002  0.61371064  0.02946792  1.0000
  C   C28       1.0  0.5694443899999999  0.023934540000000004  0.56953272  1.0000
  C   C29       1.0  0.02964399999999998  0.5703673500000002  0.69998951  1.0000
  C   C30       1.0  0.97035806  0.30000169  0.42963819  1.0000
  C   C31       1.0  0.16288352999999997  0.97606622  0.43052715  1.0000
  C   C32       1.0  0.4305354699999999  0.43053193  0.97606204  1.0000
  C   C33       1.0  0.023934860000000058  0.8371355899999999  0.56946253  1.0000
  C   C34       1.0  0.74310312  0.61374045  0.61369401  1.0000
  C   C35       1.0  0.029472819999999945  0.61371543  0.74310789  1.0000
  C   C36       1.0  0.4304720000000003  0.9760672399999999  0.43055271  1.0000
  C   C37       1.0  0.8371258800000001  0.5694653  0.02393667  1.0000
  C   C38       1.0  0.7431439400000001  0.02947109  0.61369723  1.0000
  C   C39       1.0  0.83709223  0.5694481700000001  0.56951889  1.0000
  C   C40       1.0  0.5694512400000001  0.023926319999999984  0.83714364  1.0000
  C   C41       1.0  0.8371315800000002  0.023934420000000012  0.56946579  1.0000
  C   C42       1.0  0.5703600300000001  0.70000255  0.02964349  1.0000
  C   C43       1.0  0.61371035  0.613717  0.74310563  1.0000
  C   C44       1.0  0.30002746  0.42963982  0.29997345  1.0000
  C   C45       1.0  0.16292007  0.43046736  0.43055469  1.0000
  C   C46       1.0  0.97605997  0.43047744  0.43054721  1.0000
  C   C47       1.0  0.61370376  0.74312311  0.02947328  1.0000
  C   C48       1.0  0.5694527400000002  0.83714784  0.02392557  1.0000
  C   C49       1.0  0.16287803999999995  0.43052670000000004  0.97606336  1.0000
  C   C50       1.0  0.43054500999999995  0.43054111  0.16285337  1.0000
  C   C51       1.0  0.97053738  0.38629026000000005  0.38626092  1.0000
  C   C52       1.0  0.029470090000000008  0.74314719  0.61369601  1.0000
  C   C53       1.0  0.9705299200000004  0.2568726499999999  0.38630647  1.0000
  C   C54       1.0  0.7000076100000001  0.029644759999999982  0.69998599  1.0000
  C   C55       1.0  0.4296646199999999  0.9703547400000001  0.29997177  1.0000
  C   C56       1.0  0.61371135  0.029473850000000038  0.74310409  1.0000
  C   C57       1.0  0.3863094700000001  0.97053697  0.3862527  1.0000
  C   C58       1.0  0.7000034  0.57036873  0.69998727  1.0000
  C   C59       1.0  0.97035873  0.42964748999999985  0.29997933  1.0000
  C   C60       1.0  0.25692473  0.38628373  0.38625573  1.0000
  C   C61       1.0  0.5694595099999998  0.5694718  0.83713022  1.0000
  C   C62       1.0  0.4296510000000001  0.29999801  0.97035668  1.0000
  C   C63       1.0  0.9703573300000001  0.30000019  0.30000846  1.0000
  C   C64       1.0  0.029463079999999982  0.61375094  0.61369849  1.0000
  C   C65       1.0  0.6999984600000002  0.69999951  0.029646  1.0000
  C   C66       1.0  0.61375019  0.029462680000000005  0.61369493  1.0000
  C   C67       1.0  0.0239413  0.5694538599999999  0.56952128  1.0000
  C   C68       1.0  0.2568887500000001  0.9705295199999999  0.38629912  1.0000
  C   C69       1.0  0.7431187700000002  0.61371303  0.02947221  1.0000
  C   C70       1.0  0.56943956  0.8371008000000001  0.56952578  1.0000
  C   C71       1.0  0.69999739  0.57036848  0.02964126  1.0000
  C   C72       1.0  0.97606638  0.16287065000000003  0.43053403  1.0000
  O   O1        1.0  0.020733580000000095  0.6138390199999999  0.87359521  1.0000
  O   O2        1.0  0.49182092999999993  0.61388156  0.87355824  1.0000
  O   O3        1.0  0.3861548500000001  0.12641242999999996  0.97926427  1.0000
  O   O4        1.0  0.5081639300000002  0.9792751599999999  0.12639117  1.0000
  O   O5        1.0  0.126503  0.50812474  0.38613006  1.0000
  O   O6        1.0  0.9792605799999999  0.38614468  0.12643501  1.0000
  O   O7        1.0  0.12643986000000002  0.38614342  0.97926104  1.0000
  O   O8        1.0  0.12644752000000006  0.97926381  0.38615422  1.0000
  O   O9        1.0  0.6138663799999999  0.49182897999999997  0.87356977  1.0000
  O   O10       1.0  0.020733159999999976  0.8736035200000001  0.61383507  1.0000
  O   O11       1.0  0.8735692499999997  0.020738299999999994  0.491849  1.0000
  O   O12       1.0  0.1264044900000002  0.9792691399999999  0.50816863  1.0000
  O   O13       1.0  0.97927045  0.12639876999999997  0.50817133  1.0000
  O   O14       1.0  0.020742300000000036  0.49184301999999996  0.87355932  1.0000
  O   O15       1.0  0.50819176  0.38613342  0.1264093  1.0000
  O   O16       1.0  0.49184982  0.8735052900000001  0.613881  1.0000
  O   O17       1.0  0.6138264  0.87360749  0.02072459  1.0000
  O   O18       1.0  0.5081265099999999  0.9792591900000001  0.38615087  1.0000
  O   O19       1.0  0.4918502  0.02076593000000002  0.61387756  1.0000
  O   O20       1.0  0.97926501  0.12643585  0.38615651  1.0000
  O   O21       1.0  0.38612524000000004  0.50817291  0.12644327  1.0000
  O   O22       1.0  0.49182764  0.87359373  0.02073248  1.0000
  O   O23       1.0  0.61384566  0.020747829999999995  0.49187406  1.0000
  O   O24       1.0  0.38615258  0.9792653099999999  0.1264125  1.0000
  O   O25       1.0  0.9792484899999999  0.50813706  0.38613433  1.0000
  O   O26       1.0  0.020736749999999984  0.8735713399999999  0.49184977  1.0000
  O   O27       1.0  0.020762230000000045  0.49185362  0.6138851499999999  1.0000
  O   O28       1.0  0.12650185999999997  0.38610136  0.50815806  1.0000
  O   O29       1.0  0.5081627800000005  0.12638766999999998  0.97927532  1.0000
  O   O30       1.0  0.50818435  0.38614142  0.97926603  1.0000
  O   O31       1.0  0.38611546999999996  0.12650014000000004  0.50815028  1.0000
  O   O32       1.0  0.38612355000000015  0.9792386499999999  0.50814793  1.0000
  O   O33       1.0  0.12640458000000004  0.50816444  0.97926534  1.0000
  O   O34       1.0  0.8735983600000001  0.61383793  0.02073237  1.0000
  O   O35       1.0  0.020757190000000002  0.61386532  0.49185574  1.0000
  O   O36       1.0  0.8734956700000001  0.49185101999999997  0.61389006  1.0000
  O   O37       1.0  0.50812456  0.12647411  0.38614752  1.0000
  O   O38       1.0  0.49182480999999995  0.020734590000000004  0.87358703  1.0000
  O   O39       1.0  0.38613247000000006  0.50817155  0.97926102  1.0000
  O   O40       1.0  0.8735633599999999  0.49184444999999993  0.02074153  1.0000
  O   O41       1.0  0.61385734  0.49182649  0.02073201  1.0000
  O   O42       1.0  0.97923962  0.38611256  0.50815147  1.0000
  O   O43       1.0  0.8735171900000002  0.61387157  0.49185483  1.0000
  O   O44       1.0  0.8735980299999999  0.020732670000000012  0.61383608  1.0000
  O   O45       1.0  0.4918230200000001  0.61387279  0.02073844  1.0000
  O   O46       1.0  0.9792659799999999  0.50816877  0.12640441  1.0000
  O   O47       1.0  0.6138278699999999  0.020726760000000014  0.87359417  1.0000
  O   O48       1.0  0.6138522000000001  0.8735311799999999  0.49187128  1.0000
