data_image0
_chemical_formula_structural       Pr4H8C20O24
_chemical_formula_sum              "Pr4 H8 C20 O24"
_cell_length_a       9.1432
_cell_length_b       9.1432
_cell_length_c       14.773000000000001
_cell_angle_alpha    100.121
_cell_angle_beta     100.122
_cell_angle_gamma    115.602

_symmetry_space_group_name_H-M    'P 1'
_symmetry_Int_Tables_number       1

loop_
  _symmetry_equiv_pos_as_xyz
  'x,y,z'

loop_
  _atom_site_type_symbol
  _atom_site_label
  _atom_site_symmetry_multiplicity
  _atom_site_fract_x
  _atom_site_fract_y
  _atom_site_fract_z
  _atom_site_occupancy
  Pr  Pr1       1.0  0.50919  0.25919  0.51838  1.0000
  Pr  Pr2       1.0  0.74081  0.49081  0.98162  1.0000
  Pr  Pr3       1.0  0.49081  0.74081  0.48162  1.0000
  Pr  Pr4       1.0  0.25919  0.50919  0.01838  1.0000
  H   H1        1.0  0.868  0.312  0.43  1.0000
  H   H2        1.0  0.062  0.118  0.43  1.0000
  H   H3        1.0  0.688  0.132  0.07  1.0000
  H   H4        1.0  0.882  0.938  0.07  1.0000
  H   H5        1.0  0.13199999999999992  0.688  0.57  1.0000
  H   H6        1.0  0.938  0.8820000000000001  0.57  1.0000
  H   H7        1.0  0.312  0.868  0.93  1.0000
  H   H8        1.0  0.11799999999999994  0.061999999999999986  0.93  1.0000
  C   C1        1.0  0.7489900000000002  0.06039  0.44158  1.0000
  C   C2        1.0  0.89398  0.21378  0.43516  1.0000
  C   C3        1.0  0.19259  0.38119  0.44158  1.0000
  C   C4        1.0  0.04118  0.22138  0.43516  1.0000
  C   C5        1.0  0.93961  0.2510100000000001  0.05842  1.0000
  C   C6        1.0  0.7862199999999999  0.10602  0.06484  1.0000
  C   C7        1.0  0.61881  0.80741  0.05842  1.0000
  C   C8        1.0  0.77862  0.95882  0.06484  1.0000
  C   C9        1.0  0.25101  0.93961  0.55842  1.0000
  C   C10       1.0  0.10602000000000002  0.78622  0.56484  1.0000
  C   C11       1.0  0.80741  0.61881  0.55842  1.0000
  C   C12       1.0  0.95882  0.77862  0.56484  1.0000
  C   C13       1.0  0.06039000000000002  0.74899  0.94158  1.0000
  C   C14       1.0  0.21378000000000003  0.89398  0.93516  1.0000
  C   C15       1.0  0.38119  0.19259  0.94158  1.0000
  C   C16       1.0  0.22138  0.041180000000000015  0.93516  1.0000
  C   C17       1.0  0.6755  0.32449999999999996  0.75  1.0000
  C   C18       1.0  0.5745  0.42550000000000004  0.75  1.0000
  C   C19       1.0  0.3245  0.6755  0.25  1.0000
  C   C20       1.0  0.42549999999999993  0.5745  0.25  1.0000
  O   O1        1.0  0.66071  0.23791  0.67042  1.0000
  O   O2        1.0  0.63375  0.08169  0.46684  1.0000
  O   O3        1.0  0.74221  0.91735  0.42416  1.0000
  O   O4        1.0  0.50971  0.43251  0.67042  1.0000
  O   O5        1.0  0.33309  0.38515  0.46684  1.0000
  O   O6        1.0  0.18195  0.50681  0.42416  1.0000
  O   O7        1.0  0.76209  0.33929  0.82958  1.0000
  O   O8        1.0  0.91831  0.36625  0.03316  1.0000
  O   O9        1.0  0.08265  0.25779  0.07584  1.0000
  O   O10       1.0  0.56749  0.49029  0.82958  1.0000
  O   O11       1.0  0.61485  0.66691  0.03316  1.0000
  O   O12       1.0  0.49319  0.81805  0.07584  1.0000
  O   O13       1.0  0.33929  0.76209  0.32958  1.0000
  O   O14       1.0  0.36625  0.91831  0.53316  1.0000
  O   O15       1.0  0.25779  0.08264999999999996  0.57584  1.0000
  O   O16       1.0  0.49029  0.56749  0.32958  1.0000
  O   O17       1.0  0.66691  0.6148500000000002  0.53316  1.0000
  O   O18       1.0  0.8180499999999999  0.4931900000000001  0.57584  1.0000
  O   O19       1.0  0.23791  0.66071  0.17042  1.0000
  O   O20       1.0  0.08168999999999996  0.63375  0.96684  1.0000
  O   O21       1.0  0.9173499999999999  0.7422100000000003  0.9241600000000001  1.0000
  O   O22       1.0  0.43250999999999995  0.50971  0.17042  1.0000
  O   O23       1.0  0.38514999999999994  0.33309000000000005  0.96684  1.0000
  O   O24       1.0  0.5068100000000001  0.18195000000000008  0.9241600000000001  1.0000
