data_image0
_chemical_formula_structural       Ce4H20C56N8O32
_chemical_formula_sum              "Ce4 H20 C56 N8 O32"
_cell_length_a       12.134
_cell_length_b       12.391
_cell_length_c       12.72
_cell_angle_alpha    90.0
_cell_angle_beta     90.0
_cell_angle_gamma    114.777

_space_group_name_H-M_alt    "P 1"
_space_group_IT_number       1

loop_
  _space_group_symop_operation_xyz
  'x, y, z'

loop_
  _atom_site_type_symbol
  _atom_site_label
  _atom_site_symmetry_multiplicity
  _atom_site_fract_x
  _atom_site_fract_y
  _atom_site_fract_z
  _atom_site_occupancy
  Ce  Ce1       1.0  0.5449  0.85365  0.54661  1.0000
  Ce  Ce2       1.0  0.4551  0.64635  0.04661  1.0000
  Ce  Ce3       1.0  0.4551  0.14635  0.45339  1.0000
  Ce  Ce4       1.0  0.5449  0.35364999999999996  0.95339  1.0000
  H   H1        1.0  0.6209999999999999  0.673  0.722  1.0000
  H   H2        1.0  0.0679  0.7535  0.6454  1.0000
  H   H3        1.0  0.2015999999999999  0.5744  0.8364  1.0000
  H   H4        1.0  0.9054  0.6731  0.7163  1.0000
  H   H5        1.0  0.020499999999999984  0.4515  0.869  1.0000
  H   H6        1.0  0.379  0.827  0.222  1.0000
  H   H7        1.0  0.9320999999999998  0.7465  0.1454  1.0000
  H   H8        1.0  0.7983999999999998  0.9255999999999998  0.3364  1.0000
  H   H9        1.0  0.09459999999999988  0.8268999999999997  0.21630000000000002  1.0000
  H   H10       1.0  0.9794999999999998  0.04849999999999999  0.36900000000000005  1.0000
  H   H11       1.0  0.379  0.327  0.278  1.0000
  H   H12       1.0  0.9320999999999998  0.2465  0.3546  1.0000
  H   H13       1.0  0.7983999999999999  0.42559999999999987  0.1636  1.0000
  H   H14       1.0  0.0946  0.3269  0.2837  1.0000
  H   H15       1.0  0.9794999999999998  0.5485  0.131  1.0000
  H   H16       1.0  0.6209999999999999  0.173  0.778  1.0000
  H   H17       1.0  0.0679  0.2535  0.8546  1.0000
  H   H18       1.0  0.2016  0.0744  0.6636  1.0000
  H   H19       1.0  0.9054  0.17309999999999998  0.7837  1.0000
  H   H20       1.0  0.020499999999999984  0.9515  0.631  1.0000
  C   C1        1.0  0.2784999999999999  0.8943  0.5512  1.0000
  C   C2        1.0  0.43489999999999995  0.6772  0.7675000000000001  1.0000
  C   C3        1.0  0.667  0.5563  0.766  1.0000
  C   C4        1.0  0.8017999999999997  0.3027  0.9540000000000001  1.0000
  C   C5        1.0  0.24789999999999995  0.7947999999999998  0.6284  1.0000
  C   C6        1.0  0.13219999999999996  0.7349999999999999  0.6691999999999999  1.0000
  C   C7        1.0  0.1107  0.6474  0.7453  1.0000
  C   C8        1.0  0.21049999999999994  0.6291  0.7812  1.0000
  C   C9        1.0  0.32259999999999994  0.6920999999999999  0.7347  1.0000
  C   C10       1.0  0.7749  0.5315  0.7907  1.0000
  C   C11       1.0  0.8906999999999999  0.6043  0.7572  1.0000
  C   C12       1.0  0.9857999999999999  0.5743  0.7847999999999999  1.0000
  C   C13       1.0  0.9582999999999998  0.4744  0.8478  1.0000
  C   C14       1.0  0.8387999999999998  0.40819999999999995  0.8797  1.0000
  C   C15       1.0  0.7215  0.6057  0.0512  1.0000
  C   C16       1.0  0.5651  0.8228  0.2675  1.0000
  C   C17       1.0  0.33299999999999996  0.9437  0.266  1.0000
  C   C18       1.0  0.19819999999999996  0.1973  0.454  1.0000
  C   C19       1.0  0.7521  0.7051999999999999  0.1284  1.0000
  C   C20       1.0  0.8677999999999998  0.7649999999999998  0.1692  1.0000
  C   C21       1.0  0.8893  0.8526  0.2453  1.0000
  C   C22       1.0  0.7894999999999999  0.8708999999999999  0.2812  1.0000
  C   C23       1.0  0.6774  0.8078999999999998  0.23470000000000002  1.0000
  C   C24       1.0  0.2251  0.9685  0.2907  1.0000
  C   C25       1.0  0.10929999999999998  0.8956999999999999  0.2572  1.0000
  C   C26       1.0  0.014199999999999978  0.9257  0.2848  1.0000
  C   C27       1.0  0.041699999999999994  0.0256  0.3478  1.0000
  C   C28       1.0  0.1612  0.09179999999999999  0.3797  1.0000
  C   C29       1.0  0.7215  0.10569999999999999  0.4488  1.0000
  C   C30       1.0  0.5650999999999999  0.3228  0.2325  1.0000
  C   C31       1.0  0.33299999999999996  0.44369999999999993  0.234  1.0000
  C   C32       1.0  0.19819999999999993  0.6973  0.046  1.0000
  C   C33       1.0  0.7521  0.20519999999999997  0.3716  1.0000
  C   C34       1.0  0.8678  0.265  0.3308  1.0000
  C   C35       1.0  0.8893  0.35259999999999997  0.2547  1.0000
  C   C36       1.0  0.7895  0.37089999999999995  0.21880000000000002  1.0000
  C   C37       1.0  0.6774  0.3079  0.2653  1.0000
  C   C38       1.0  0.2251  0.4685  0.2093  1.0000
  C   C39       1.0  0.10929999999999995  0.3956999999999999  0.2428  1.0000
  C   C40       1.0  0.014199999999999978  0.4257  0.2152  1.0000
  C   C41       1.0  0.04169999999999998  0.5255999999999998  0.1522  1.0000
  C   C42       1.0  0.1612  0.5918  0.12029999999999999  1.0000
  C   C43       1.0  0.27849999999999997  0.3943  0.9487999999999999  1.0000
  C   C44       1.0  0.43489999999999995  0.1772  0.7325  1.0000
  C   C45       1.0  0.667  0.0563  0.734  1.0000
  C   C46       1.0  0.8017999999999998  0.8027  0.546  1.0000
  C   C47       1.0  0.2479  0.2948  0.8716  1.0000
  C   C48       1.0  0.13219999999999998  0.23499999999999996  0.8308  1.0000
  C   C49       1.0  0.1107  0.1474  0.7547  1.0000
  C   C50       1.0  0.21049999999999994  0.1291  0.7188  1.0000
  C   C51       1.0  0.3226  0.19209999999999997  0.7653  1.0000
  C   C52       1.0  0.7749  0.0315  0.7093  1.0000
  C   C53       1.0  0.8906999999999999  0.10429999999999999  0.7428  1.0000
  C   C54       1.0  0.9857999999999999  0.0743  0.7152  1.0000
  C   C55       1.0  0.9582999999999998  0.9744  0.6522  1.0000
  C   C56       1.0  0.8388  0.9082  0.6203  1.0000
  N   N1        1.0  0.3411799999999999  0.7706  0.6573300000000001  1.0000
  N   N2        1.0  0.74833  0.4351  0.84981  1.0000
  N   N3        1.0  0.65882  0.7294  0.15733  1.0000
  N   N4        1.0  0.25167  0.0649  0.34981  1.0000
  N   N5        1.0  0.65882  0.22939999999999997  0.34267  1.0000
  N   N6        1.0  0.25167  0.5649  0.15019  1.0000
  N   N7        1.0  0.34117999999999993  0.2706  0.84267  1.0000
  N   N8        1.0  0.74833  0.9351  0.65019  1.0000
  O   O1        1.0  0.38097999999999993  0.9256199999999998  0.50257  1.0000
  O   O2        1.0  0.21047999999999983  0.9440099999999998  0.54093  1.0000
  O   O3        1.0  0.5200699999999999  0.71271  0.6993300000000001  1.0000
  O   O4        1.0  0.43818  0.63356  0.8534  1.0000
  O   O5        1.0  0.5633199999999998  0.48080999999999996  0.78408  1.0000
  O   O6        1.0  0.69464  0.6609  0.7278  1.0000
  O   O7        1.0  0.69334  0.26385999999999993  0.98901  1.0000
  O   O8        1.0  0.87807  0.2647  0.97429  1.0000
  O   O9        1.0  0.6190199999999999  0.57438  0.00257  1.0000
  O   O10       1.0  0.7895199999999998  0.55599  0.04093  1.0000
  O   O11       1.0  0.47992999999999997  0.78729  0.19933  1.0000
  O   O12       1.0  0.5618199999999999  0.8664399999999998  0.3534  1.0000
  O   O13       1.0  0.43668  0.01919  0.28408  1.0000
  O   O14       1.0  0.30536  0.8391  0.2278  1.0000
  O   O15       1.0  0.30666  0.23614  0.48901  1.0000
  O   O16       1.0  0.12192999999999997  0.2353  0.47429  1.0000
  O   O17       1.0  0.6190199999999999  0.07438  0.49743  1.0000
  O   O18       1.0  0.7895199999999998  0.05598999999999999  0.45907  1.0000
  O   O19       1.0  0.47992999999999997  0.28729  0.30067  1.0000
  O   O20       1.0  0.5618199999999999  0.36643999999999993  0.1466  1.0000
  O   O21       1.0  0.43668  0.51919  0.21592  1.0000
  O   O22       1.0  0.30536  0.3391  0.2722  1.0000
  O   O23       1.0  0.30666  0.73614  0.01099  1.0000
  O   O24       1.0  0.12193000000000001  0.7353  0.02571  1.0000
  O   O25       1.0  0.38098  0.42561999999999994  0.99743  1.0000
  O   O26       1.0  0.21047999999999992  0.4440099999999999  0.9590700000000001  1.0000
  O   O27       1.0  0.5200699999999999  0.21270999999999998  0.80067  1.0000
  O   O28       1.0  0.43818  0.13356  0.6466000000000001  1.0000
  O   O29       1.0  0.5633199999999999  0.9808099999999998  0.71592  1.0000
  O   O30       1.0  0.69464  0.1609  0.7722000000000001  1.0000
  O   O31       1.0  0.69334  0.76386  0.51099  1.0000
  O   O32       1.0  0.87807  0.7647  0.52571  1.0000
