data_image0
_chemical_formula_structural       Al16Cu16H96C128N64O88
_chemical_formula_sum              "Al16 Cu16 H96 C128 N64 O88"
_cell_length_a       13.51423
_cell_length_b       24.43307
_cell_length_c       18.916880000000003
_cell_angle_alpha    90.03413999999998
_cell_angle_beta     90.02816
_cell_angle_gamma    90.03127

_space_group_name_H-M_alt    "P 1"
_space_group_IT_number       1

loop_
  _space_group_symop_operation_xyz
  'x, y, z'

loop_
  _atom_site_type_symbol
  _atom_site_label
  _atom_site_symmetry_multiplicity
  _atom_site_fract_x
  _atom_site_fract_y
  _atom_site_fract_z
  _atom_site_occupancy
  Al  Al1       1.0  0.00073  0.99896  0.00029  1.0000
  Al  Al2       1.0  0.25046  0.00013  5.9999999999999995e-05  1.0000
  Al  Al3       1.0  0.50063  0.9999  0.00019  1.0000
  Al  Al4       1.0  0.75054  0.99844  0.99942  1.0000
  Al  Al5       1.0  0.99987  0.00023000000000000003  0.49987  1.0000
  Al  Al6       1.0  0.25014  0.00033  0.49994  1.0000
  Al  Al7       1.0  0.49994  0.00019000000000000004  0.49984000000000006  1.0000
  Al  Al8       1.0  0.75008  2.999999999999998e-05  0.4998  1.0000
  Al  Al9       1.0  0.9994899999999999  0.50002  0.99986  1.0000
  Al  Al10      1.0  0.24955  0.49921  0.9999500000000001  1.0000
  Al  Al11      1.0  0.49970999999999993  0.49960000000000004  0.0001  1.0000
  Al  Al12      1.0  0.74962  0.50034  0.00013  1.0000
  Al  Al13      1.0  0.0016500000000000002  0.50003  0.5001  1.0000
  Al  Al14      1.0  0.25172  0.49896  0.49928  1.0000
  Al  Al15      1.0  0.50177  0.50004  0.50004  1.0000
  Al  Al16      1.0  0.75173  0.50087  0.49995  1.0000
  Cu  Cu1       1.0  0.25186  0.25017  0.24831000000000003  1.0000
  Cu  Cu2       1.0  0.00408  0.25005  0.25221  1.0000
  Cu  Cu3       1.0  0.75125  0.24983  0.24982  1.0000
  Cu  Cu4       1.0  0.49933  0.24914000000000003  0.24802  1.0000
  Cu  Cu5       1.0  0.24944999999999998  0.25047  0.74997  1.0000
  Cu  Cu6       1.0  0.99678  0.24994  0.74948  1.0000
  Cu  Cu7       1.0  0.7498  0.24923000000000003  0.75028  1.0000
  Cu  Cu8       1.0  0.49672  0.25007  0.74803  1.0000
  Cu  Cu9       1.0  0.25353  0.7498  0.24951000000000004  1.0000
  Cu  Cu10      1.0  0.00479  0.75019  0.25110000000000005  1.0000
  Cu  Cu11      1.0  0.75643  0.74954  0.24684  1.0000
  Cu  Cu12      1.0  0.50781  0.75006  0.25422  1.0000
  Cu  Cu13      1.0  0.25049  0.75044  0.75033  1.0000
  Cu  Cu14      1.0  0.0002300000000000001  0.74883  0.74925  1.0000
  Cu  Cu15      1.0  0.7487899999999997  0.74969  0.75046  1.0000
  Cu  Cu16      1.0  0.50145  0.75011  0.75097  1.0000
  H   H1        1.0  0.28502  0.14071  0.15041  1.0000
  H   H2        1.0  0.96378  0.35768  0.15377000000000002  1.0000
  H   H3        1.0  0.21505999999999997  0.14469  0.35281  1.0000
  H   H4        1.0  0.53824  0.35663  0.3494  1.0000
  H   H5        1.0  0.21819  0.36279  0.34185  1.0000
  H   H6        1.0  0.53553  0.14044  0.34584  1.0000
  H   H7        1.0  0.28431  0.35762  0.14668  1.0000
  H   H8        1.0  0.9645099999999998  0.14054  0.15617  1.0000
  H   H9        1.0  0.12479  0.0161  0.9102700000000001  1.0000
  H   H10       1.0  0.37513999999999986  0.9814100000000001  0.08814  1.0000
  H   H11       1.0  0.18391999999999994  0.26774  0.38349  1.0000
  H   H12       1.0  0.07008  0.26517  0.39189000000000007  1.0000
  H   H13       1.0  0.4308399999999999  0.24627000000000002  0.09985  1.0000
  H   H14       1.0  0.31621  0.24583  0.10305  1.0000
  H   H15       1.0  0.7884899999999998  0.14134  0.15363  1.0000
  H   H16       1.0  0.46602  0.35677  0.14885  1.0000
  H   H17       1.0  0.71545  0.14081  0.34482  1.0000
  H   H18       1.0  0.03494  0.36165  0.34525  1.0000
  H   H19       1.0  0.71458  0.3584  0.34661  1.0000
  H   H20       1.0  0.03592  0.14385  0.35388  1.0000
  H   H21       1.0  0.78658  0.35832  0.15339  1.0000
  H   H22       1.0  0.46783999999999987  0.13936  0.15222000000000002  1.0000
  H   H23       1.0  0.62549  0.01762  0.91092  1.0000
  H   H24       1.0  0.87459  0.01556  0.08818  1.0000
  H   H25       1.0  0.28488  0.14132  0.65308  1.0000
  H   H26       1.0  0.96279  0.35545999999999994  0.64679  1.0000
  H   H27       1.0  0.21393  0.14303  0.8516300000000001  1.0000
  H   H28       1.0  0.53514  0.3592  0.84519  1.0000
  H   H29       1.0  0.2146  0.35958  0.84822  1.0000
  H   H30       1.0  0.53445  0.14202  0.8471600000000001  1.0000
  H   H31       1.0  0.28337  0.35929  0.65443  1.0000
  H   H32       1.0  0.96447  0.13826  0.65583  1.0000
  H   H33       1.0  0.12493  0.98325  0.41096  1.0000
  H   H34       1.0  0.37503  0.98785  0.59141  1.0000
  H   H35       1.0  0.42881  0.25975  0.60377  1.0000
  H   H36       1.0  0.31854  0.24211000000000002  0.60517  1.0000
  H   H37       1.0  0.7837699999999997  0.13673  0.66102  1.0000
  H   H38       1.0  0.4663799999999999  0.36026  0.65199  1.0000
  H   H39       1.0  0.71446  0.14148  0.8496699999999999  1.0000
  H   H40       1.0  0.03335  0.3601  0.84544  1.0000
  H   H41       1.0  0.71285  0.35848  0.8478  1.0000
  H   H42       1.0  0.03501  0.14209  0.8493800000000001  1.0000
  H   H43       1.0  0.7869299999999998  0.35424  0.6489200000000002  1.0000
  H   H44       1.0  0.46397999999999995  0.1426  0.64758  1.0000
  H   H45       1.0  0.6249499999999999  0.01465  0.40953000000000006  1.0000
  H   H46       1.0  0.8750299999999999  0.98462  0.59006  1.0000
  H   H47       1.0  0.8104799999999999  0.23735  0.61127  1.0000
  H   H48       1.0  0.92451  0.23207  0.6105900000000001  1.0000
  H   H49       1.0  0.28826  0.64216  0.14853  1.0000
  H   H50       1.0  0.9681699999999998  0.85751  0.15113  1.0000
  H   H51       1.0  0.21679  0.64025  0.34123  1.0000
  H   H52       1.0  0.53672  0.85976  0.35065  1.0000
  H   H53       1.0  0.21613  0.85889  0.3430000000000001  1.0000
  H   H54       1.0  0.537  0.64317  0.35551  1.0000
  H   H55       1.0  0.28888  0.85777  0.15002  1.0000
  H   H56       1.0  0.9680399999999999  0.63881  0.15785  1.0000
  H   H57       1.0  0.12483  0.51784  0.91106  1.0000
  H   H58       1.0  0.37478  0.51443  0.08932  1.0000
  H   H59       1.0  0.07419  0.74518  0.39932  1.0000
  H   H60       1.0  0.18827  0.75188  0.39825  1.0000
  H   H61       1.0  0.7856299999999998  0.63781  0.15165  1.0000
  H   H62       1.0  0.4666899999999999  0.85938  0.16004  1.0000
  H   H63       1.0  0.71876  0.64236  0.34855  1.0000
  H   H64       1.0  0.03728  0.85813  0.35123  1.0000
  H   H65       1.0  0.71686  0.8604599999999999  0.34132  1.0000
  H   H66       1.0  0.03959  0.64254  0.35056  1.0000
  H   H67       1.0  0.78616  0.85441  0.14031  1.0000
  H   H68       1.0  0.46524  0.64214  0.15647  1.0000
  H   H69       1.0  0.6249599999999997  0.48244000000000004  0.9113200000000001  1.0000
  H   H70       1.0  0.8747199999999998  0.47994  0.08723  1.0000
  H   H71       1.0  0.68916  0.75759  0.38932  1.0000
  H   H72       1.0  0.57642  0.7580500000000001  0.40418  1.0000
  H   H73       1.0  0.94149  0.7383600000000001  0.10988  1.0000
  H   H74       1.0  0.82766  0.73316  0.10417  1.0000
  H   H75       1.0  0.289  0.64206  0.6531700000000001  1.0000
  H   H76       1.0  0.9641299999999998  0.85587  0.64757  1.0000
  H   H77       1.0  0.21418999999999996  0.64378  0.85082  1.0000
  H   H78       1.0  0.53526  0.86009  0.84634  1.0000
  H   H79       1.0  0.2149  0.86049  0.8452  1.0000
  H   H80       1.0  0.53476  0.6415  0.84886  1.0000
  H   H81       1.0  0.28445  0.85911  0.65396  1.0000
  H   H82       1.0  0.96852  0.63825  0.65402  1.0000
  H   H83       1.0  0.12624  0.52  0.41263  1.0000
  H   H84       1.0  0.37531999999999993  0.51564  0.58842  1.0000
  H   H85       1.0  0.7847599999999998  0.64007  0.65327  1.0000
  H   H86       1.0  0.46462  0.85735  0.64966  1.0000
  H   H87       1.0  0.71496  0.64477  0.8541399999999999  1.0000
  H   H88       1.0  0.03656  0.85661  0.8502700000000001  1.0000
  H   H89       1.0  0.71659  0.8620200000000001  0.8406  1.0000
  H   H90       1.0  0.03523  0.63972  0.84409  1.0000
  H   H91       1.0  0.7851299999999998  0.85746  0.65035  1.0000
  H   H92       1.0  0.46425999999999995  0.64058  0.65397  1.0000
  H   H93       1.0  0.62596  0.48688  0.40993  1.0000
  H   H94       1.0  0.8755899999999999  0.47982  0.58729  1.0000
  H   H95       1.0  0.67269  0.7711700000000001  0.89174  1.0000
  H   H96       1.0  0.565  0.7496  0.89304  1.0000
  C   C1        1.0  0.20724999999999993  0.14933  0.15846000000000002  1.0000
  C   C2        1.0  0.04204999999999999  0.34921  0.15908  1.0000
  C   C3        1.0  0.29309  0.15195  0.34389  1.0000
  C   C4        1.0  0.46011  0.34922  0.34102  1.0000
  C   C5        1.0  0.29581  0.35211  0.33775000000000005  1.0000
  C   C6        1.0  0.45758  0.14985  0.34047  1.0000
  C   C7        1.0  0.20659  0.34923  0.15548000000000003  1.0000
  C   C8        1.0  0.042779999999999985  0.14912  0.16142  1.0000
  C   C9        1.0  0.12417  0.12084  0.13319  1.0000
  C   C10       1.0  0.12306  0.37715  0.12995000000000004  1.0000
  C   C11       1.0  0.37533  0.12303  0.36981  1.0000
  C   C12       1.0  0.3786799999999999  0.37905  0.36624000000000007  1.0000
  C   C13       1.0  0.12402  0.07354  0.08559  1.0000
  C   C14       1.0  0.12192  0.42389  0.08172  1.0000
  C   C15       1.0  0.37521  0.07617  0.41804  1.0000
  C   C16       1.0  0.37932999999999995  0.42602  0.41446  1.0000
  C   C17       1.0  0.71024  0.14949  0.15999  1.0000
  C   C18       1.0  0.54395  0.34863  0.15696  1.0000
  C   C19       1.0  0.7935799999999998  0.15  0.34012  1.0000
  C   C20       1.0  0.9572299999999999  0.35166  0.33954  1.0000
  C   C21       1.0  0.79282  0.35036  0.33999  1.0000
  C   C22       1.0  0.95807  0.15153  0.34462000000000004  1.0000
  C   C23       1.0  0.70849  0.34949  0.15926  1.0000
  C   C24       1.0  0.54568  0.14851  0.15907  1.0000
  C   C25       1.0  0.62885  0.12061000000000001  0.13292  1.0000
  C   C26       1.0  0.62649  0.37705  0.13091  1.0000
  C   C27       1.0  0.8751599999999998  0.1228  0.36973  1.0000
  C   C28       1.0  0.8744799999999998  0.37944000000000006  0.3664  1.0000
  C   C29       1.0  0.62944  0.0734  0.08506  1.0000
  C   C30       1.0  0.62635  0.4241  0.08294  1.0000
  C   C31       1.0  0.87483  0.07601  0.41809  1.0000
  C   C32       1.0  0.87461  0.42672  0.4142  1.0000
  C   C33       1.0  0.2067  0.14959  0.65986  1.0000
  C   C34       1.0  0.0408  0.34829  0.6559300000000001  1.0000
  C   C35       1.0  0.29187  0.15126  0.8435  1.0000
  C   C36       1.0  0.45695  0.35069  0.8391800000000001  1.0000
  C   C37       1.0  0.29241  0.35074000000000005  0.84065  1.0000
  C   C38       1.0  0.45633999999999997  0.1508  0.84134  1.0000
  C   C39       1.0  0.20536  0.35003  0.6597  1.0000
  C   C40       1.0  0.04228  0.14823  0.66115  1.0000
  C   C41       1.0  0.12481999999999997  0.12052  0.63373  1.0000
  C   C42       1.0  0.12342999999999997  0.3771  0.63041  1.0000
  C   C43       1.0  0.37457  0.12305000000000002  0.86994  1.0000
  C   C44       1.0  0.37522  0.37902  0.86679  1.0000
  C   C45       1.0  0.12502  0.07356  0.58526  1.0000
  C   C46       1.0  0.12432999999999997  0.42378  0.58186  1.0000
  C   C47       1.0  0.37512  0.0762  0.9181600000000001  1.0000
  C   C48       1.0  0.3752599999999999  0.42608  0.9147400000000001  1.0000
  C   C49       1.0  0.70595  0.14708  0.66407  1.0000
  C   C50       1.0  0.54406  0.35022  0.65785  1.0000
  C   C51       1.0  0.79247  0.15006  0.84277  1.0000
  C   C52       1.0  0.9554199999999999  0.35097  0.8392200000000001  1.0000
  C   C53       1.0  0.79093  0.35032  0.84048  1.0000
  C   C54       1.0  0.9569199999999999  0.15046  0.8426200000000001  1.0000
  C   C55       1.0  0.70854  0.34740999999999994  0.65663  1.0000
  C   C56       1.0  0.54174  0.14982  0.6577  1.0000
  C   C57       1.0  0.6243299999999998  0.12015  0.63412  1.0000
  C   C58       1.0  0.6276  0.37686  0.6300500000000001  1.0000
  C   C59       1.0  0.8749699999999998  0.12204  0.8697500000000001  1.0000
  C   C60       1.0  0.8732899999999999  0.37905  0.86655  1.0000
  C   C61       1.0  0.62492  0.07327  0.5857  1.0000
  C   C62       1.0  0.6291699999999999  0.42401  0.58211  1.0000
  C   C63       1.0  0.8752199999999998  0.07444000000000002  0.91674  1.0000
  C   C64       1.0  0.87407  0.42637  0.9141199999999999  1.0000
  C   C65       1.0  0.21039  0.64996  0.15749000000000002  1.0000
  C   C66       1.0  0.04632  0.84926  0.15794000000000002  1.0000
  C   C67       1.0  0.29514  0.64915  0.3379  1.0000
  C   C68       1.0  0.4591  0.85089  0.34213  1.0000
  C   C69       1.0  0.29459  0.8506500000000001  0.3385  1.0000
  C   C70       1.0  0.45946  0.6508  0.34494  1.0000
  C   C71       1.0  0.21095  0.84929  0.15756  1.0000
  C   C72       1.0  0.04604  0.64854  0.16181  1.0000
  C   C73       1.0  0.12755  0.62088  0.13288  1.0000
  C   C74       1.0  0.12856  0.87723  0.13037  1.0000
  C   C75       1.0  0.37587  0.6218  0.36839  1.0000
  C   C76       1.0  0.37558  0.87922  0.36687  1.0000
  C   C77       1.0  0.12628  0.5735  0.08538  1.0000
  C   C78       1.0  0.12863  0.92389  0.082  1.0000
  C   C79       1.0  0.37493  0.57489  0.41655  1.0000
  C   C80       1.0  0.3748  0.92645  0.41457000000000005  1.0000
  C   C81       1.0  0.70824  0.64789  0.15903000000000003  1.0000
  C   C82       1.0  0.54487  0.8498400000000002  0.16212  1.0000
  C   C83       1.0  0.7969299999999999  0.65072  0.34199  1.0000
  C   C84       1.0  0.9594799999999998  0.8503300000000001  0.34203  1.0000
  C   C85       1.0  0.79506  0.85126  0.33725  1.0000
  C   C86       1.0  0.9615899999999997  0.6509  0.34313000000000005  1.0000
  C   C87       1.0  0.7088899999999999  0.84736  0.15238  1.0000
  C   C88       1.0  0.54382  0.64979  0.16178  1.0000
  C   C89       1.0  0.6239599999999998  0.62053  0.13352  1.0000
  C   C90       1.0  0.62503  0.87657  0.12987  1.0000
  C   C91       1.0  0.8790699999999998  0.62285  0.36993000000000004  1.0000
  C   C92       1.0  0.87632  0.87918  0.36645  1.0000
  C   C93       1.0  0.6222799999999998  0.57362  0.08537  1.0000
  C   C94       1.0  0.6236  0.9235400000000001  0.08196  1.0000
  C   C95       1.0  0.8791999999999998  0.5762  0.4183  1.0000
  C   C96       1.0  0.87536  0.92637  0.41424  1.0000
  C   C97       1.0  0.2107  0.64983  0.66008  1.0000
  C   C98       1.0  0.04209  0.84797  0.65599  1.0000
  C   C99       1.0  0.29235  0.65172  0.8435  1.0000
  C   C100      1.0  0.45732  0.8513100000000001  0.8394200000000002  1.0000
  C   C101      1.0  0.29284  0.8515700000000002  0.83865  1.0000
  C   C102      1.0  0.45685  0.65074  0.8426400000000001  1.0000
  C   C103      1.0  0.20649  0.84964  0.65916  1.0000
  C   C104      1.0  0.0462  0.648  0.6605  1.0000
  C   C105      1.0  0.12934  0.62064  0.6334  1.0000
  C   C106      1.0  0.12443999999999997  0.87683  0.63033  1.0000
  C   C107      1.0  0.3743299999999999  0.62317  0.87026  1.0000
  C   C108      1.0  0.37500999999999995  0.87968  0.8658700000000001  1.0000
  C   C109      1.0  0.12972  0.57344  0.58539  1.0000
  C   C110      1.0  0.1248  0.9241800000000001  0.58281  1.0000
  C   C111      1.0  0.3746099999999999  0.57583  0.918  1.0000
  C   C112      1.0  0.37506  0.92668  0.91422  1.0000
  C   C113      1.0  0.70686  0.64898  0.66026  1.0000
  C   C114      1.0  0.54262  0.84876  0.6567200000000001  1.0000
  C   C115      1.0  0.79286  0.65182  0.84438  1.0000
  C   C116      1.0  0.9585999999999998  0.84899  0.84128  1.0000
  C   C117      1.0  0.7943199999999999  0.85149  0.83691  1.0000
  C   C118      1.0  0.95728  0.64928  0.83946  1.0000
  C   C119      1.0  0.7070999999999997  0.84882  0.65708  1.0000
  C   C120      1.0  0.54236  0.6491  0.66059  1.0000
  C   C121      1.0  0.62441  0.62076  0.63343  1.0000
  C   C122      1.0  0.62497  0.8767800000000001  0.62943  1.0000
  C   C123      1.0  0.87531  0.62275  0.86951  1.0000
  C   C124      1.0  0.8765  0.87849  0.86604  1.0000
  C   C125      1.0  0.62461  0.57374  0.58536  1.0000
  C   C126      1.0  0.62505  0.9239  0.58164  1.0000
  C   C127      1.0  0.8752  0.57611  0.9181700000000002  1.0000
  C   C128      1.0  0.87567  0.92525  0.91479  1.0000
  N   N1        1.0  0.07569  0.19185  0.19966  1.0000
  N   N2        1.0  0.17664999999999995  0.30711  0.19587  1.0000
  N   N3        1.0  0.42603  0.19208  0.3009  1.0000
  N   N4        1.0  0.32644  0.30872  0.29964  1.0000
  N   N5        1.0  0.42757  0.307  0.30174  1.0000
  N   N6        1.0  0.32480999999999993  0.1935  0.30319  1.0000
  N   N7        1.0  0.07543  0.30719  0.19824000000000003  1.0000
  N   N8        1.0  0.17687999999999998  0.19205  0.19768  1.0000
  N   N9        1.0  0.57604  0.19159  0.19773000000000002  1.0000
  N   N10       1.0  0.67644  0.30706  0.19838  1.0000
  N   N11       1.0  0.9274099999999998  0.19346  0.3042000000000001  1.0000
  N   N12       1.0  0.8253  0.30764  0.30154  1.0000
  N   N13       1.0  0.9265899999999999  0.30835  0.30131  1.0000
  N   N14       1.0  0.82611  0.19243  0.30119  1.0000
  N   N15       1.0  0.5751  0.30644  0.19679  1.0000
  N   N16       1.0  0.6773899999999998  0.19212  0.19839  1.0000
  N   N17       1.0  0.07325  0.19154  0.69935  1.0000
  N   N18       1.0  0.17335  0.30759  0.69877  1.0000
  N   N19       1.0  0.42408999999999997  0.19286  0.80178  1.0000
  N   N20       1.0  0.3233  0.30819  0.80143  1.0000
  N   N21       1.0  0.42454  0.30813  0.80043  1.0000
  N   N22       1.0  0.32284  0.19317  0.80314  1.0000
  N   N23       1.0  0.07202  0.30647  0.69635  1.0000
  N   N24       1.0  0.17457  0.19238  0.69847  1.0000
  N   N25       1.0  0.57264  0.19214  0.6975  1.0000
  N   N26       1.0  0.67518  0.30554  0.69617  1.0000
  N   N27       1.0  0.92489  0.19271  0.8032600000000001  1.0000
  N   N28       1.0  0.82243  0.30772  0.80152  1.0000
  N   N29       1.0  0.9236799999999998  0.30814  0.80071  1.0000
  N   N30       1.0  0.82368  0.19245  0.80342  1.0000
  N   N31       1.0  0.57385  0.30727  0.69704  1.0000
  N   N32       1.0  0.67374  0.19045  0.70162  1.0000
  N   N33       1.0  0.07852999999999999  0.69164  0.19971  1.0000
  N   N34       1.0  0.17959  0.80727  0.19751  1.0000
  N   N35       1.0  0.42995  0.693  0.30461  1.0000
  N   N36       1.0  0.32815  0.80772  0.30085  1.0000
  N   N37       1.0  0.42943999999999993  0.8079000000000001  0.3031  1.0000
  N   N38       1.0  0.32876  0.69199  0.30013  1.0000
  N   N39       1.0  0.07825999999999997  0.80717  0.19765  1.0000
  N   N40       1.0  0.17965  0.69238  0.19705  1.0000
  N   N41       1.0  0.5784  0.69204  0.20014  1.0000
  N   N42       1.0  0.67996  0.80578  0.19394000000000003  1.0000
  N   N43       1.0  0.9303399999999997  0.6930100000000001  0.30328  1.0000
  N   N44       1.0  0.82811  0.80832  0.29935  1.0000
  N   N45       1.0  0.92929  0.80781  0.30241  1.0000
  N   N46       1.0  0.82904  0.6929000000000001  0.30246  1.0000
  N   N47       1.0  0.57909  0.8074300000000001  0.20028  1.0000
  N   N48       1.0  0.6795699999999998  0.6909599999999999  0.1983  1.0000
  N   N49       1.0  0.0765  0.69102  0.69935  1.0000
  N   N50       1.0  0.17476999999999995  0.80707  0.69812  1.0000
  N   N51       1.0  0.42569  0.6934  0.8034800000000001  1.0000
  N   N52       1.0  0.32458999999999993  0.80885  0.79987  1.0000
  N   N53       1.0  0.42589  0.8085600000000001  0.8005000000000001  1.0000
  N   N54       1.0  0.32435  0.6939300000000002  0.80399  1.0000
  N   N55       1.0  0.07349  0.8059600000000001  0.69605  1.0000
  N   N56       1.0  0.17782  0.69216  0.69902  1.0000
  N   N57       1.0  0.57426  0.69159  0.69967  1.0000
  N   N58       1.0  0.67536  0.8067700000000001  0.69694  1.0000
  N   N59       1.0  0.92532  0.69162  0.80014  1.0000
  N   N60       1.0  0.82568  0.80823  0.79885  1.0000
  N   N61       1.0  0.92688  0.80666  0.8017  1.0000
  N   N62       1.0  0.8241499999999998  0.69331  0.8034800000000001  1.0000
  N   N63       1.0  0.57412  0.80674  0.69665  1.0000
  N   N64       1.0  0.67551  0.69151  0.6994  1.0000
  O   O1        1.0  0.37562  7e-05  0.04294  1.0000
  O   O2        1.0  0.12484999999999997  0.24992  0.36496  1.0000
  O   O3        1.0  0.3751999999999999  0.25005  0.13204  1.0000
  O   O4        1.0  0.20868  0.05543  0.06655  1.0000
  O   O5        1.0  0.0369  0.44227  0.0631  1.0000
  O   O6        1.0  0.29073  0.05806000000000001  0.43737999999999994  1.0000
  O   O7        1.0  0.46419999999999995  0.44453  0.43332  1.0000
  O   O8        1.0  0.29501  0.44412  0.43384  1.0000
  O   O9        1.0  0.4600699999999999  0.05752000000000001  0.43662  1.0000
  O   O10       1.0  0.20604999999999998  0.44215  0.062310000000000004  1.0000
  O   O11       1.0  0.03910999999999999  0.05482  0.06723  1.0000
  O   O12       1.0  0.12527  0.0004  0.95727  1.0000
  O   O13       1.0  0.87542  0.9975000000000002  0.04252  1.0000
  O   O14       1.0  0.71453  0.05512  0.06634  1.0000
  O   O15       1.0  0.5417  0.44192000000000004  0.06356  1.0000
  O   O16       1.0  0.78997  0.05755  0.43679  1.0000
  O   O17       1.0  0.95931  0.44467  0.43325  1.0000
  O   O18       1.0  0.78971  0.44525  0.43254000000000004  1.0000
  O   O19       1.0  0.9592899999999998  0.05798  0.43747  1.0000
  O   O20       1.0  0.7114  0.44289  0.06526  1.0000
  O   O21       1.0  0.54486  0.05517  0.06631  1.0000
  O   O22       1.0  0.6252699999999998  0.0001700000000000001  0.9569000000000001  1.0000
  O   O23       1.0  0.37497  0.9996500000000001  0.54255  1.0000
  O   O24       1.0  0.37496  0.24997  0.63543  1.0000
  O   O25       1.0  0.20960999999999996  0.05544  0.56623  1.0000
  O   O26       1.0  0.03967  0.44223000000000007  0.5627500000000001  1.0000
  O   O27       1.0  0.29038  0.05785  0.93717  1.0000
  O   O28       1.0  0.46008  0.44467  0.9335500000000001  1.0000
  O   O29       1.0  0.29089  0.44434  0.93382  1.0000
  O   O30       1.0  0.45983  0.05791  0.9371800000000001  1.0000
  O   O31       1.0  0.20887  0.44183  0.56255  1.0000
  O   O32       1.0  0.040449999999999986  0.05537  0.56617  1.0000
  O   O33       1.0  0.12504  4.000000000000001e-05  0.45741  1.0000
  O   O34       1.0  0.875  0.9996  0.54266  1.0000
  O   O35       1.0  0.87017  0.25003  0.6350700000000001  1.0000
  O   O36       1.0  0.70974  0.05521  0.56698  1.0000
  O   O37       1.0  0.54484  0.44231  0.56288  1.0000
  O   O38       1.0  0.7902799999999999  0.055240000000000004  0.93396  1.0000
  O   O39       1.0  0.95883  0.4446300000000001  0.93268  1.0000
  O   O40       1.0  0.78932  0.44503  0.93288  1.0000
  O   O41       1.0  0.9598999999999999  0.05635  0.9360900000000001  1.0000
  O   O42       1.0  0.71447  0.44226  0.56394  1.0000
  O   O43       1.0  0.54016  0.055220000000000005  0.56657  1.0000
  O   O44       1.0  0.6250199999999998  0.00033  0.45727  1.0000
  O   O45       1.0  0.37468  0.49766000000000005  0.04285  1.0000
  O   O46       1.0  0.13033  0.75008  0.36786  1.0000
  O   O47       1.0  0.21095999999999998  0.55478  0.06673  1.0000
  O   O48       1.0  0.04435999999999999  0.94201  0.06255  1.0000
  O   O49       1.0  0.28993  0.55561  0.43377  1.0000
  O   O50       1.0  0.45934  0.94471  0.43364  1.0000
  O   O51       1.0  0.28981  0.94486  0.4330800000000001  1.0000
  O   O52       1.0  0.4594499999999999  0.55771  0.43711000000000005  1.0000
  O   O53       1.0  0.2135  0.9424400000000002  0.06320000000000002  1.0000
  O   O54       1.0  0.04139  0.55544  0.06675000000000002  1.0000
  O   O55       1.0  0.1247  0.50034  0.95701  1.0000
  O   O56       1.0  0.87463  0.49988  0.04292000000000001  1.0000
  O   O57       1.0  0.62515  0.7498800000000001  0.36793  1.0000
  O   O58       1.0  0.87996  0.75011  0.13191  1.0000
  O   O59       1.0  0.70625  0.55528  0.06576  1.0000
  O   O60       1.0  0.53879  0.94215  0.06353  1.0000
  O   O61       1.0  0.79491  0.558  0.43758  1.0000
  O   O62       1.0  0.9602  0.94492  0.43321000000000004  1.0000
  O   O63       1.0  0.79068  0.94462  0.43294  1.0000
  O   O64       1.0  0.96417  0.55783  0.43724  1.0000
  O   O65       1.0  0.7077699999999999  0.94196  0.06246000000000001  1.0000
  O   O66       1.0  0.53732  0.55522  0.06663  1.0000
  O   O67       1.0  0.6248299999999999  0.50008  0.9572300000000001  1.0000
  O   O68       1.0  0.37618999999999997  0.49793  0.54254  1.0000
  O   O69       1.0  0.21471999999999997  0.55519  0.56647  1.0000
  O   O70       1.0  0.03994  0.94243  0.56406  1.0000
  O   O71       1.0  0.28979  0.55701  0.9361100000000001  1.0000
  O   O72       1.0  0.45983  0.94469  0.9332  1.0000
  O   O73       1.0  0.29027  0.94488  0.9328000000000001  1.0000
  O   O74       1.0  0.45941  0.55794  0.9369  1.0000
  O   O75       1.0  0.20987  0.94267  0.56497  1.0000
  O   O76       1.0  0.04512  0.5552  0.56675  1.0000
  O   O77       1.0  0.12635  0.49994  0.4568400000000001  1.0000
  O   O78       1.0  0.87643  0.49998  0.54315  1.0000
  O   O79       1.0  0.62501  0.74992  0.8646300000000001  1.0000
  O   O80       1.0  0.70899  0.55552  0.56616  1.0000
  O   O81       1.0  0.54036  0.94237  0.56291  1.0000
  O   O82       1.0  0.79074  0.55816  0.9376000000000001  1.0000
  O   O83       1.0  0.9597199999999998  0.94422  0.93366  1.0000
  O   O84       1.0  0.79043  0.94235  0.93407  1.0000
  O   O85       1.0  0.96005  0.55769  0.9369700000000001  1.0000
  O   O86       1.0  0.7098199999999999  0.94228  0.56285  1.0000
  O   O87       1.0  0.53979  0.55515  0.56658  1.0000
  O   O88       1.0  0.6265  0.50231  0.45715000000000006  1.0000
