data_image0
_chemical_formula_structural       Al16Cu16H80C128N64O80
_chemical_formula_sum              "Al16 Cu16 H80 C128 N64 O80"
_cell_length_a       13.56218
_cell_length_b       25.22171
_cell_length_c       17.720730000000003
_cell_angle_alpha    90.07068
_cell_angle_beta     90.0
_cell_angle_gamma    90.0

_space_group_name_H-M_alt    "P 1"
_space_group_IT_number       1

loop_
  _space_group_symop_operation_xyz
  'x, y, z'

loop_
  _atom_site_type_symbol
  _atom_site_label
  _atom_site_symmetry_multiplicity
  _atom_site_fract_x
  _atom_site_fract_y
  _atom_site_fract_z
  _atom_site_occupancy
  Al  Al1       1.0  0.0  0.0  0.0  1.0000
  Al  Al2       1.0  0.25  0.0  0.0  1.0000
  Al  Al3       1.0  0.5  0.0  0.0  1.0000
  Al  Al4       1.0  0.75  0.0  0.0  1.0000
  Al  Al5       1.0  0.0  0.0  0.5  1.0000
  Al  Al6       1.0  0.25  0.0  0.5  1.0000
  Al  Al7       1.0  0.5  0.0  0.5  1.0000
  Al  Al8       1.0  0.75  0.0  0.5  1.0000
  Al  Al9       1.0  0.0  0.5  0.0  1.0000
  Al  Al10      1.0  0.25  0.5  0.0  1.0000
  Al  Al11      1.0  0.5  0.5  0.0  1.0000
  Al  Al12      1.0  0.75  0.5  0.0  1.0000
  Al  Al13      1.0  0.0  0.5  0.5  1.0000
  Al  Al14      1.0  0.25  0.5  0.5  1.0000
  Al  Al15      1.0  0.5  0.5  0.5  1.0000
  Al  Al16      1.0  0.75  0.5  0.5  1.0000
  Cu  Cu1       1.0  0.25005  0.25002  0.24911999999999998  1.0000
  Cu  Cu2       1.0  0.9999499999999999  0.25002  0.24911999999999998  1.0000
  Cu  Cu3       1.0  0.75005  0.25002  0.24911999999999998  1.0000
  Cu  Cu4       1.0  0.49995  0.25002  0.24911999999999998  1.0000
  Cu  Cu5       1.0  0.25005  0.25002  0.74911  1.0000
  Cu  Cu6       1.0  0.9999499999999999  0.25002  0.74911  1.0000
  Cu  Cu7       1.0  0.75005  0.25002  0.74911  1.0000
  Cu  Cu8       1.0  0.49995  0.25002  0.74911  1.0000
  Cu  Cu9       1.0  0.24995  0.7499800000000002  0.25087  1.0000
  Cu  Cu10      1.0  5e-05  0.7499800000000002  0.25087  1.0000
  Cu  Cu11      1.0  0.74995  0.7499800000000002  0.25087  1.0000
  Cu  Cu12      1.0  0.50005  0.7499800000000002  0.25087  1.0000
  Cu  Cu13      1.0  0.24995  0.7499800000000002  0.75087  1.0000
  Cu  Cu14      1.0  5e-05  0.7499800000000002  0.75087  1.0000
  Cu  Cu15      1.0  0.74995  0.7499800000000002  0.75087  1.0000
  Cu  Cu16      1.0  0.50005  0.7499800000000002  0.75087  1.0000
  H   H1        1.0  0.28457  0.14098  0.15309  1.0000
  H   H2        1.0  0.96541  0.35753  0.15016  1.0000
  H   H3        1.0  0.21542  0.14312  0.34964  1.0000
  H   H4        1.0  0.53457  0.35844  0.34668  1.0000
  H   H5        1.0  0.21543  0.35844  0.34668  1.0000
  H   H6        1.0  0.53458  0.14312  0.34964  1.0000
  H   H7        1.0  0.28459  0.35753  0.15016  1.0000
  H   H8        1.0  0.96543  0.14098  0.15309  1.0000
  H   H9        1.0  0.125  0.00817  0.90132  1.0000
  H   H10       1.0  0.375  0.99179  0.09867  1.0000
  H   H11       1.0  0.78457  0.14098  0.15309  1.0000
  H   H12       1.0  0.46541  0.35753  0.15016  1.0000
  H   H13       1.0  0.71542  0.14312  0.34964  1.0000
  H   H14       1.0  0.03457  0.35844  0.34668  1.0000
  H   H15       1.0  0.71543  0.35844  0.34668  1.0000
  H   H16       1.0  0.03458  0.14312  0.34964  1.0000
  H   H17       1.0  0.78459  0.35753  0.15016  1.0000
  H   H18       1.0  0.46543  0.14098  0.15309  1.0000
  H   H19       1.0  0.625  0.00817  0.90132  1.0000
  H   H20       1.0  0.875  0.99179  0.09867  1.0000
  H   H21       1.0  0.28457  0.14098  0.65309  1.0000
  H   H22       1.0  0.96541  0.35753  0.65015  1.0000
  H   H23       1.0  0.21542  0.14311  0.84964  1.0000
  H   H24       1.0  0.53457  0.3584300000000001  0.84668  1.0000
  H   H25       1.0  0.21543  0.3584300000000001  0.84668  1.0000
  H   H26       1.0  0.53458  0.14311  0.84964  1.0000
  H   H27       1.0  0.28459  0.35753  0.65015  1.0000
  H   H28       1.0  0.96543  0.14098  0.65309  1.0000
  H   H29       1.0  0.125  0.00819  0.40132  1.0000
  H   H30       1.0  0.375  0.99181  0.59867  1.0000
  H   H31       1.0  0.78457  0.14098  0.65309  1.0000
  H   H32       1.0  0.46541  0.35753  0.65015  1.0000
  H   H33       1.0  0.71542  0.14311  0.84964  1.0000
  H   H34       1.0  0.03457  0.3584300000000001  0.84668  1.0000
  H   H35       1.0  0.71543  0.3584300000000001  0.84668  1.0000
  H   H36       1.0  0.03458  0.14311  0.84964  1.0000
  H   H37       1.0  0.78459  0.35753  0.65015  1.0000
  H   H38       1.0  0.46543  0.14098  0.65309  1.0000
  H   H39       1.0  0.625  0.00819  0.40132  1.0000
  H   H40       1.0  0.875  0.99181  0.59867  1.0000
  H   H41       1.0  0.28457  0.64156  0.15331  1.0000
  H   H42       1.0  0.96542  0.8568800000000002  0.15035  1.0000
  H   H43       1.0  0.21541  0.64247  0.34984  1.0000
  H   H44       1.0  0.53457  0.85902  0.3469  1.0000
  H   H45       1.0  0.21543  0.85902  0.3469  1.0000
  H   H46       1.0  0.53459  0.64247  0.34984  1.0000
  H   H47       1.0  0.28458  0.8568800000000002  0.15035  1.0000
  H   H48       1.0  0.96543  0.64156  0.15331  1.0000
  H   H49       1.0  0.125  0.50843  0.90126  1.0000
  H   H50       1.0  0.375  0.49154  0.09872  1.0000
  H   H51       1.0  0.78457  0.64156  0.15331  1.0000
  H   H52       1.0  0.46542  0.8568800000000002  0.15035  1.0000
  H   H53       1.0  0.7154099999999999  0.64247  0.34984  1.0000
  H   H54       1.0  0.03457  0.85902  0.3469  1.0000
  H   H55       1.0  0.71543  0.85902  0.3469  1.0000
  H   H56       1.0  0.03459  0.64247  0.34984  1.0000
  H   H57       1.0  0.7845799999999999  0.8568800000000002  0.15035  1.0000
  H   H58       1.0  0.46543  0.64156  0.15331  1.0000
  H   H59       1.0  0.625  0.50843  0.90126  1.0000
  H   H60       1.0  0.875  0.49153000000000013  0.09872  1.0000
  H   H61       1.0  0.28457  0.6415700000000001  0.65331  1.0000
  H   H62       1.0  0.96542  0.8568800000000002  0.65035  1.0000
  H   H63       1.0  0.21541  0.64247  0.84984  1.0000
  H   H64       1.0  0.53457  0.85902  0.8469  1.0000
  H   H65       1.0  0.21543  0.85902  0.8469  1.0000
  H   H66       1.0  0.53459  0.64247  0.84984  1.0000
  H   H67       1.0  0.28458  0.8568800000000002  0.65035  1.0000
  H   H68       1.0  0.96543  0.6415700000000001  0.65331  1.0000
  H   H69       1.0  0.125  0.50845  0.40127  1.0000
  H   H70       1.0  0.375  0.49155  0.59873  1.0000
  H   H71       1.0  0.78457  0.6415700000000001  0.65331  1.0000
  H   H72       1.0  0.46542  0.8568800000000002  0.65035  1.0000
  H   H73       1.0  0.7154099999999999  0.64246  0.84984  1.0000
  H   H74       1.0  0.03457  0.85902  0.8469  1.0000
  H   H75       1.0  0.71543  0.85902  0.8469  1.0000
  H   H76       1.0  0.03459  0.64246  0.84984  1.0000
  H   H77       1.0  0.7845799999999999  0.8568800000000002  0.65035  1.0000
  H   H78       1.0  0.46543  0.6415700000000001  0.65331  1.0000
  H   H79       1.0  0.625  0.50845  0.40127  1.0000
  H   H80       1.0  0.875  0.49155  0.59873  1.0000
  C   C1        1.0  0.20694  0.14993  0.15951  1.0000
  C   C2        1.0  0.04306  0.3487900000000001  0.15674  1.0000
  C   C3        1.0  0.29307  0.15176  0.3428  1.0000
  C   C4        1.0  0.4569500000000001  0.3495900000000001  0.34003  1.0000
  C   C5        1.0  0.29305  0.3495900000000001  0.34003  1.0000
  C   C6        1.0  0.45693  0.15176  0.3428  1.0000
  C   C7        1.0  0.20694  0.3487900000000001  0.15674  1.0000
  C   C8        1.0  0.04306  0.14993  0.15951  1.0000
  C   C9        1.0  0.125  0.12097000000000001  0.13414  1.0000
  C   C10       1.0  0.125  0.37752  0.13087  1.0000
  C   C11       1.0  0.375  0.12328000000000003  0.36926  1.0000
  C   C12       1.0  0.375  0.37832  0.3659  1.0000
  C   C13       1.0  0.125  0.07232  0.08866  1.0000
  C   C14       1.0  0.12499  0.4260900000000001  0.08558  1.0000
  C   C15       1.0  0.375  0.07486  0.41507  1.0000
  C   C16       1.0  0.375  0.42679  0.41178  1.0000
  C   C17       1.0  0.70694  0.14993  0.15951  1.0000
  C   C18       1.0  0.54306  0.3487900000000001  0.15674  1.0000
  C   C19       1.0  0.79307  0.15176  0.3428  1.0000
  C   C20       1.0  0.95695  0.3495900000000001  0.34003  1.0000
  C   C21       1.0  0.79305  0.3495900000000001  0.34003  1.0000
  C   C22       1.0  0.95693  0.15176  0.3428  1.0000
  C   C23       1.0  0.70694  0.3487900000000001  0.15674  1.0000
  C   C24       1.0  0.54305  0.14993  0.15951  1.0000
  C   C25       1.0  0.625  0.12097000000000001  0.13414  1.0000
  C   C26       1.0  0.625  0.37752  0.13087  1.0000
  C   C27       1.0  0.875  0.12328000000000003  0.36926  1.0000
  C   C28       1.0  0.875  0.37832  0.3659  1.0000
  C   C29       1.0  0.625  0.07232  0.08866  1.0000
  C   C30       1.0  0.62501  0.4260900000000001  0.08558  1.0000
  C   C31       1.0  0.875  0.07486  0.41507  1.0000
  C   C32       1.0  0.875  0.42679  0.41178  1.0000
  C   C33       1.0  0.20695  0.14993  0.6595  1.0000
  C   C34       1.0  0.04306  0.3487900000000001  0.65674  1.0000
  C   C35       1.0  0.29307  0.15176  0.84279  1.0000
  C   C36       1.0  0.4569500000000001  0.3495900000000001  0.84002  1.0000
  C   C37       1.0  0.29305  0.3495900000000001  0.84002  1.0000
  C   C38       1.0  0.45693  0.15176  0.84279  1.0000
  C   C39       1.0  0.20694  0.3487900000000001  0.65674  1.0000
  C   C40       1.0  0.04306  0.14993  0.6595  1.0000
  C   C41       1.0  0.125  0.12097000000000001  0.63414  1.0000
  C   C42       1.0  0.125  0.37752  0.63087  1.0000
  C   C43       1.0  0.375  0.12328000000000003  0.86926  1.0000
  C   C44       1.0  0.375  0.37832  0.8659  1.0000
  C   C45       1.0  0.125  0.07232  0.58866  1.0000
  C   C46       1.0  0.125  0.4260900000000001  0.58558  1.0000
  C   C47       1.0  0.375  0.07486  0.91507  1.0000
  C   C48       1.0  0.375  0.42679  0.91178  1.0000
  C   C49       1.0  0.70694  0.14993  0.6595  1.0000
  C   C50       1.0  0.54306  0.3487900000000001  0.65674  1.0000
  C   C51       1.0  0.79307  0.15176  0.84279  1.0000
  C   C52       1.0  0.95695  0.3495900000000001  0.84002  1.0000
  C   C53       1.0  0.79305  0.3495900000000001  0.84002  1.0000
  C   C54       1.0  0.95693  0.15176  0.84279  1.0000
  C   C55       1.0  0.70694  0.3487900000000001  0.65674  1.0000
  C   C56       1.0  0.54305  0.14993  0.6595  1.0000
  C   C57       1.0  0.625  0.12097000000000001  0.63414  1.0000
  C   C58       1.0  0.625  0.37752  0.63087  1.0000
  C   C59       1.0  0.875  0.12328000000000003  0.86926  1.0000
  C   C60       1.0  0.875  0.37832  0.8659  1.0000
  C   C61       1.0  0.625  0.07232  0.58866  1.0000
  C   C62       1.0  0.625  0.4260900000000001  0.58558  1.0000
  C   C63       1.0  0.875  0.07486  0.91507  1.0000
  C   C64       1.0  0.875  0.42680000000000007  0.91178  1.0000
  C   C65       1.0  0.20694  0.65041  0.15997  1.0000
  C   C66       1.0  0.04307  0.8482400000000002  0.1572  1.0000
  C   C67       1.0  0.29306  0.6512100000000002  0.34325  1.0000
  C   C68       1.0  0.45694000000000007  0.8500700000000001  0.34049  1.0000
  C   C69       1.0  0.29305  0.8500700000000001  0.34049  1.0000
  C   C70       1.0  0.45694000000000007  0.6512100000000002  0.34325  1.0000
  C   C71       1.0  0.20693  0.8482400000000002  0.1572  1.0000
  C   C72       1.0  0.04306  0.65041  0.15997  1.0000
  C   C73       1.0  0.125  0.62168  0.13409  1.0000
  C   C74       1.0  0.125  0.87672  0.13073  1.0000
  C   C75       1.0  0.375  0.62248  0.36912  1.0000
  C   C76       1.0  0.375  0.87903  0.36585  1.0000
  C   C77       1.0  0.125  0.5732  0.08821  1.0000
  C   C78       1.0  0.125  0.92514  0.08493  1.0000
  C   C79       1.0  0.375  0.57391  0.41442  1.0000
  C   C80       1.0  0.375  0.92768  0.41134  1.0000
  C   C81       1.0  0.70695  0.65041  0.15997  1.0000
  C   C82       1.0  0.54307  0.8482400000000002  0.1572  1.0000
  C   C83       1.0  0.79306  0.6512100000000002  0.34325  1.0000
  C   C84       1.0  0.95694  0.8500700000000001  0.34049  1.0000
  C   C85       1.0  0.79305  0.8500700000000001  0.34049  1.0000
  C   C86       1.0  0.95694  0.6512100000000002  0.34325  1.0000
  C   C87       1.0  0.70693  0.8482400000000002  0.1572  1.0000
  C   C88       1.0  0.54306  0.65041  0.15997  1.0000
  C   C89       1.0  0.625  0.62168  0.13409  1.0000
  C   C90       1.0  0.625  0.87672  0.13073  1.0000
  C   C91       1.0  0.875  0.62248  0.36912  1.0000
  C   C92       1.0  0.875  0.87903  0.36585  1.0000
  C   C93       1.0  0.625  0.5732  0.08821  1.0000
  C   C94       1.0  0.625  0.92514  0.08493  1.0000
  C   C95       1.0  0.875  0.57391  0.41442  1.0000
  C   C96       1.0  0.875  0.92768  0.41134  1.0000
  C   C97       1.0  0.20695  0.65041  0.65997  1.0000
  C   C98       1.0  0.04307  0.8482400000000002  0.6572  1.0000
  C   C99       1.0  0.29306  0.6512100000000002  0.84325  1.0000
  C   C100      1.0  0.4569500000000001  0.8500700000000001  0.84048  1.0000
  C   C101      1.0  0.29305  0.8500700000000001  0.84048  1.0000
  C   C102      1.0  0.45694000000000007  0.6512100000000002  0.84325  1.0000
  C   C103      1.0  0.20693  0.8482400000000002  0.6572  1.0000
  C   C104      1.0  0.04305  0.65041  0.65997  1.0000
  C   C105      1.0  0.125  0.62168  0.63409  1.0000
  C   C106      1.0  0.125  0.87672  0.63073  1.0000
  C   C107      1.0  0.375  0.62248  0.86912  1.0000
  C   C108      1.0  0.375  0.87903  0.86585  1.0000
  C   C109      1.0  0.125  0.5732  0.58821  1.0000
  C   C110      1.0  0.125  0.92514  0.58493  1.0000
  C   C111      1.0  0.375  0.57391  0.91441  1.0000
  C   C112      1.0  0.375  0.92768  0.91133  1.0000
  C   C113      1.0  0.70695  0.65041  0.65997  1.0000
  C   C114      1.0  0.54307  0.8482400000000002  0.6572  1.0000
  C   C115      1.0  0.79306  0.6512100000000002  0.84325  1.0000
  C   C116      1.0  0.95695  0.8500700000000001  0.84048  1.0000
  C   C117      1.0  0.79305  0.8500700000000001  0.84048  1.0000
  C   C118      1.0  0.95694  0.6512100000000002  0.84325  1.0000
  C   C119      1.0  0.70693  0.8482400000000002  0.6572  1.0000
  C   C120      1.0  0.54305  0.65041  0.65997  1.0000
  C   C121      1.0  0.625  0.62168  0.63409  1.0000
  C   C122      1.0  0.625  0.87672  0.63073  1.0000
  C   C123      1.0  0.875  0.62248  0.86912  1.0000
  C   C124      1.0  0.875  0.87903  0.86585  1.0000
  C   C125      1.0  0.625  0.5732100000000001  0.58821  1.0000
  C   C126      1.0  0.625  0.92514  0.58493  1.0000
  C   C127      1.0  0.875  0.57391  0.9144199999999999  1.0000
  C   C128      1.0  0.875  0.92768  0.91133  1.0000
  N   N1        1.0  0.07448  0.19347000000000006  0.19626  1.0000
  N   N2        1.0  0.17552  0.3057  0.19434  1.0000
  N   N3        1.0  0.4255  0.19445000000000004  0.30424  1.0000
  N   N4        1.0  0.32449000000000006  0.30641  0.30241  1.0000
  N   N5        1.0  0.42551  0.30641  0.30241  1.0000
  N   N6        1.0  0.32450000000000007  0.19445000000000004  0.30424  1.0000
  N   N7        1.0  0.07448  0.3057  0.19434  1.0000
  N   N8        1.0  0.17552  0.19347000000000006  0.19626  1.0000
  N   N9        1.0  0.57448  0.19347000000000006  0.19626  1.0000
  N   N10       1.0  0.67552  0.3057  0.19434  1.0000
  N   N11       1.0  0.9255  0.19445000000000004  0.30424  1.0000
  N   N12       1.0  0.82449  0.30641  0.30241  1.0000
  N   N13       1.0  0.92551  0.30641  0.30241  1.0000
  N   N14       1.0  0.8245  0.19445000000000004  0.30424  1.0000
  N   N15       1.0  0.57448  0.3057  0.19434  1.0000
  N   N16       1.0  0.67552  0.19347000000000006  0.19626  1.0000
  N   N17       1.0  0.07448  0.19347000000000006  0.69626  1.0000
  N   N18       1.0  0.17552  0.3057  0.69433  1.0000
  N   N19       1.0  0.4255  0.19445000000000004  0.80424  1.0000
  N   N20       1.0  0.32449000000000006  0.30642  0.8024  1.0000
  N   N21       1.0  0.42551  0.30642  0.8024  1.0000
  N   N22       1.0  0.32450000000000007  0.19445000000000004  0.80424  1.0000
  N   N23       1.0  0.07448  0.3057  0.69433  1.0000
  N   N24       1.0  0.17552  0.19347000000000006  0.69626  1.0000
  N   N25       1.0  0.57448  0.19347000000000006  0.69626  1.0000
  N   N26       1.0  0.67552  0.3057  0.69433  1.0000
  N   N27       1.0  0.9255  0.19445000000000004  0.80424  1.0000
  N   N28       1.0  0.82449  0.30642  0.8024  1.0000
  N   N29       1.0  0.92551  0.30642  0.8024  1.0000
  N   N30       1.0  0.8245  0.19445000000000004  0.80424  1.0000
  N   N31       1.0  0.57448  0.3057  0.69433  1.0000
  N   N32       1.0  0.67552  0.19347000000000006  0.69626  1.0000
  N   N33       1.0  0.07449  0.69359  0.19758  1.0000
  N   N34       1.0  0.1755  0.8055500000000001  0.19576  1.0000
  N   N35       1.0  0.42552  0.6943000000000001  0.30565  1.0000
  N   N36       1.0  0.32448000000000005  0.80653  0.30373  1.0000
  N   N37       1.0  0.42552  0.80653  0.30373  1.0000
  N   N38       1.0  0.32448000000000005  0.6943000000000001  0.30565  1.0000
  N   N39       1.0  0.0745  0.8055500000000001  0.19576  1.0000
  N   N40       1.0  0.17551  0.69359  0.19758  1.0000
  N   N41       1.0  0.57449  0.69359  0.19758  1.0000
  N   N42       1.0  0.6755  0.8055500000000001  0.19576  1.0000
  N   N43       1.0  0.92552  0.6943000000000001  0.30565  1.0000
  N   N44       1.0  0.82448  0.80653  0.30373  1.0000
  N   N45       1.0  0.92552  0.80653  0.30373  1.0000
  N   N46       1.0  0.82448  0.6943000000000001  0.30565  1.0000
  N   N47       1.0  0.5745  0.8055500000000001  0.19576  1.0000
  N   N48       1.0  0.67551  0.69359  0.19758  1.0000
  N   N49       1.0  0.07449  0.69359  0.69758  1.0000
  N   N50       1.0  0.1755  0.8055500000000001  0.69575  1.0000
  N   N51       1.0  0.42552  0.6943000000000001  0.80565  1.0000
  N   N52       1.0  0.32448000000000005  0.80653  0.80373  1.0000
  N   N53       1.0  0.42552  0.80653  0.80373  1.0000
  N   N54       1.0  0.32448000000000005  0.6943000000000001  0.80565  1.0000
  N   N55       1.0  0.0745  0.8055500000000001  0.69575  1.0000
  N   N56       1.0  0.17551  0.69359  0.69758  1.0000
  N   N57       1.0  0.57449  0.69359  0.69758  1.0000
  N   N58       1.0  0.6755  0.8055500000000001  0.69575  1.0000
  N   N59       1.0  0.92552  0.6943000000000001  0.80565  1.0000
  N   N60       1.0  0.82448  0.80653  0.80373  1.0000
  N   N61       1.0  0.92552  0.80653  0.80373  1.0000
  N   N62       1.0  0.82448  0.6943000000000001  0.80565  1.0000
  N   N63       1.0  0.5745  0.8055500000000001  0.69575  1.0000
  N   N64       1.0  0.67551  0.69359  0.69758  1.0000
  O   O1        1.0  0.375  0.99976  0.04524  1.0000
  O   O2        1.0  0.20939  0.05339  0.07091  1.0000
  O   O3        1.0  0.04071000000000001  0.4451700000000001  0.06787  1.0000
  O   O4        1.0  0.2906  0.05589  0.43288  1.0000
  O   O5        1.0  0.45952  0.44561  0.42955  1.0000
  O   O6        1.0  0.29048  0.44561  0.42955  1.0000
  O   O7        1.0  0.4594  0.05589  0.43288  1.0000
  O   O8        1.0  0.20930000000000004  0.4451700000000001  0.06786  1.0000
  O   O9        1.0  0.04061  0.05339  0.07091  1.0000
  O   O10       1.0  0.125  0.00024  0.95476  1.0000
  O   O11       1.0  0.875  0.99976  0.04524  1.0000
  O   O12       1.0  0.70939  0.05339  0.07091  1.0000
  O   O13       1.0  0.5407  0.4451700000000001  0.06786  1.0000
  O   O14       1.0  0.7906  0.05589  0.43288  1.0000
  O   O15       1.0  0.95952  0.44561  0.42955  1.0000
  O   O16       1.0  0.79048  0.44561  0.42955  1.0000
  O   O17       1.0  0.9594  0.05589  0.43288  1.0000
  O   O18       1.0  0.70929  0.4451700000000001  0.06787  1.0000
  O   O19       1.0  0.54061  0.05339  0.07091  1.0000
  O   O20       1.0  0.625  0.00024  0.95476  1.0000
  O   O21       1.0  0.375  0.99976  0.54524  1.0000
  O   O22       1.0  0.20939  0.05339  0.57091  1.0000
  O   O23       1.0  0.04070000000000001  0.4451700000000001  0.56786  1.0000
  O   O24       1.0  0.2906  0.05589  0.9328800000000002  1.0000
  O   O25       1.0  0.45952  0.44561  0.9295500000000001  1.0000
  O   O26       1.0  0.29048  0.44561  0.9295500000000001  1.0000
  O   O27       1.0  0.4594  0.05589  0.9328800000000002  1.0000
  O   O28       1.0  0.20930000000000004  0.4451700000000001  0.56786  1.0000
  O   O29       1.0  0.04061  0.05339  0.57091  1.0000
  O   O30       1.0  0.125  0.00024000000000000006  0.45475999999999994  1.0000
  O   O31       1.0  0.875  0.99976  0.54524  1.0000
  O   O32       1.0  0.70939  0.05339  0.57091  1.0000
  O   O33       1.0  0.5407  0.4451700000000001  0.56786  1.0000
  O   O34       1.0  0.7906  0.05589  0.9328800000000002  1.0000
  O   O35       1.0  0.95952  0.44561  0.9295500000000001  1.0000
  O   O36       1.0  0.79048  0.44561  0.9295500000000001  1.0000
  O   O37       1.0  0.9594  0.05589  0.9328800000000002  1.0000
  O   O38       1.0  0.7093  0.4451700000000001  0.56786  1.0000
  O   O39       1.0  0.54061  0.05339  0.57091  1.0000
  O   O40       1.0  0.625  0.00024000000000000006  0.45475999999999994  1.0000
  O   O41       1.0  0.375  0.4989500000000001  0.04513  1.0000
  O   O42       1.0  0.20952  0.55439  0.07044  1.0000
  O   O43       1.0  0.0406  0.94411  0.06712  1.0000
  O   O44       1.0  0.2907  0.55483  0.43213  1.0000
  O   O45       1.0  0.45939  0.94661  0.42909  1.0000
  O   O46       1.0  0.29061  0.94661  0.42909  1.0000
  O   O47       1.0  0.4593  0.55483  0.43213  1.0000
  O   O48       1.0  0.2094  0.94411  0.06712  1.0000
  O   O49       1.0  0.04048  0.55439  0.07044  1.0000
  O   O50       1.0  0.125  0.50106  0.9548600000000002  1.0000
  O   O51       1.0  0.875  0.4989500000000001  0.04513  1.0000
  O   O52       1.0  0.70952  0.55439  0.07044  1.0000
  O   O53       1.0  0.5406  0.94411  0.06712  1.0000
  O   O54       1.0  0.7907  0.55483  0.43213  1.0000
  O   O55       1.0  0.95939  0.94661  0.42909  1.0000
  O   O56       1.0  0.79061  0.94661  0.42909  1.0000
  O   O57       1.0  0.9593  0.55483  0.43213  1.0000
  O   O58       1.0  0.7094  0.94411  0.06712  1.0000
  O   O59       1.0  0.54048  0.55439  0.07044  1.0000
  O   O60       1.0  0.625  0.50106  0.9548600000000002  1.0000
  O   O61       1.0  0.375  0.4989500000000001  0.54513  1.0000
  O   O62       1.0  0.20952  0.55439  0.57044  1.0000
  O   O63       1.0  0.0406  0.94411  0.56712  1.0000
  O   O64       1.0  0.2907  0.55483  0.9321300000000001  1.0000
  O   O65       1.0  0.45939  0.94661  0.9290900000000001  1.0000
  O   O66       1.0  0.29061  0.94661  0.9290900000000001  1.0000
  O   O67       1.0  0.4593  0.55483  0.9321300000000001  1.0000
  O   O68       1.0  0.2094  0.94411  0.56712  1.0000
  O   O69       1.0  0.04048  0.55439  0.57044  1.0000
  O   O70       1.0  0.125  0.50106  0.45486000000000004  1.0000
  O   O71       1.0  0.875  0.4989500000000001  0.54513  1.0000
  O   O72       1.0  0.70952  0.55439  0.57044  1.0000
  O   O73       1.0  0.5406  0.94411  0.56712  1.0000
  O   O74       1.0  0.7907  0.55483  0.9321300000000001  1.0000
  O   O75       1.0  0.95939  0.94661  0.9290900000000001  1.0000
  O   O76       1.0  0.79061  0.94661  0.9290900000000001  1.0000
  O   O77       1.0  0.9593  0.55483  0.9321300000000001  1.0000
  O   O78       1.0  0.7094  0.94411  0.56712  1.0000
  O   O79       1.0  0.54048  0.55439  0.57044  1.0000
  O   O80       1.0  0.625  0.50106  0.45486000000000004  1.0000
