data_image0
_chemical_formula_structural       Cd4H48C60N24
_chemical_formula_sum              "Cd4 H48 C60 N24"
_cell_length_a       9.0723
_cell_length_b       9.0723
_cell_length_c       27.01
_cell_angle_alpha    90.0
_cell_angle_beta     90.0
_cell_angle_gamma    90.0

_symmetry_space_group_name_H-M    'P 1'
_symmetry_Int_Tables_number       1

loop_
  _symmetry_equiv_pos_as_xyz
  'x,y,z'

loop_
  _atom_site_type_symbol
  _atom_site_label
  _atom_site_symmetry_multiplicity
  _atom_site_fract_x
  _atom_site_fract_y
  _atom_site_fract_z
  _atom_site_occupancy
  Cd  Cd1       1.0  0.12298  0.68143  0.07739  1.0000
  Cd  Cd2       1.0  0.87702  0.3185699999999999  0.57739  1.0000
  Cd  Cd3       1.0  0.3185699999999999  0.12298  0.8273899999999998  1.0000
  Cd  Cd4       1.0  0.68143  0.87702  0.32739  1.0000
  H   H1        1.0  0.5834  0.16019999999999995  0.0649  1.0000
  H   H2        1.0  0.9783999999999999  0.2081  0.9991  1.0000
  H   H3        1.0  0.6870999999999998  0.9148  0.9459999999999998  1.0000
  H   H4        1.0  0.4675999999999999  0.8649  0.0777  1.0000
  H   H5        1.0  0.1756  0.8483  0.9715999999999998  1.0000
  H   H6        1.0  0.3821  0.9917  0.9406  1.0000
  H   H7        1.0  0.0868  0.1918  0.9228  1.0000
  H   H8        1.0  0.09239999999999998  0.8271  0.8471999999999997  1.0000
  H   H9        1.0  0.8866  0.8087  0.9054  1.0000
  H   H10       1.0  0.03999999999999999  0.3344  0.0684  1.0000
  H   H11       1.0  0.7559  0.5979  0.1315  1.0000
  H   H12       1.0  0.6168  0.4021  0.09179999999999999  1.0000
  H   H13       1.0  0.4166  0.8397999999999999  0.5649  1.0000
  H   H14       1.0  0.0216  0.7918999999999998  0.4990999999999999  1.0000
  H   H15       1.0  0.3129  0.0852  0.446  1.0000
  H   H16       1.0  0.5324  0.1351  0.5777  1.0000
  H   H17       1.0  0.8243999999999999  0.1517  0.4716  1.0000
  H   H18       1.0  0.6179  0.0083  0.44059999999999994  1.0000
  H   H19       1.0  0.9131999999999999  0.8081999999999999  0.4228  1.0000
  H   H20       1.0  0.9076  0.17289999999999994  0.34719999999999995  1.0000
  H   H21       1.0  0.11339999999999999  0.19129999999999997  0.4054  1.0000
  H   H22       1.0  0.9599999999999997  0.6655999999999997  0.5683999999999999  1.0000
  H   H23       1.0  0.2441  0.4021  0.6315  1.0000
  H   H24       1.0  0.3832  0.5979  0.5918  1.0000
  H   H25       1.0  0.8397999999999999  0.5834  0.8149  1.0000
  H   H26       1.0  0.7918999999999998  0.9783999999999999  0.7491  1.0000
  H   H27       1.0  0.0852  0.6870999999999998  0.696  1.0000
  H   H28       1.0  0.1351  0.4675999999999999  0.8277  1.0000
  H   H29       1.0  0.1517  0.1756  0.7216  1.0000
  H   H30       1.0  0.0083  0.3821  0.6906  1.0000
  H   H31       1.0  0.8081999999999999  0.0868  0.6728  1.0000
  H   H32       1.0  0.17289999999999994  0.09239999999999998  0.5972  1.0000
  H   H33       1.0  0.19129999999999997  0.8866  0.6553999999999998  1.0000
  H   H34       1.0  0.6655999999999997  0.03999999999999999  0.8184  1.0000
  H   H35       1.0  0.4021  0.7559  0.8815  1.0000
  H   H36       1.0  0.5979  0.6168  0.8418  1.0000
  H   H37       1.0  0.16019999999999995  0.4166  0.3149  1.0000
  H   H38       1.0  0.2081  0.0216  0.24909999999999993  1.0000
  H   H39       1.0  0.9148  0.3129  0.19599999999999995  1.0000
  H   H40       1.0  0.8649  0.5324  0.3276999999999999  1.0000
  H   H41       1.0  0.8483  0.8243999999999999  0.22159999999999994  1.0000
  H   H42       1.0  0.9917  0.6179  0.1906  1.0000
  H   H43       1.0  0.1918  0.9131999999999999  0.1728  1.0000
  H   H44       1.0  0.8271  0.9076  0.0972  1.0000
  H   H45       1.0  0.8087  0.11339999999999999  0.1554  1.0000
  H   H46       1.0  0.3344  0.9599999999999997  0.3184  1.0000
  H   H47       1.0  0.5979  0.2441  0.3815  1.0000
  H   H48       1.0  0.4021  0.3832  0.3418  1.0000
  C   C1        1.0  0.616  0.0262  0.006289999999999999  1.0000
  C   C2        1.0  0.6498999999999999  0.1347  0.04016  1.0000
  C   C3        1.0  0.7847999999999998  0.205  0.03658  1.0000
  C   C4        1.0  0.8858999999999999  0.164  0.00049  1.0000
  C   C5        1.0  0.8465999999999999  0.0562  0.9665899999999997  1.0000
  C   C6        1.0  0.7125  0.9867  0.96894  1.0000
  C   C7        1.0  0.4202  0.8778999999999999  0.04753  1.0000
  C   C8        1.0  0.2612  0.8694999999999998  0.98912  1.0000
  C   C9        1.0  0.3742999999999999  0.9489999999999998  0.9717399999999998  1.0000
  C   C10       1.0  0.06239999999999999  0.09879999999999997  0.9109299999999999  1.0000
  C   C11       1.0  0.0649  0.8992999999999999  0.86986  1.0000
  C   C12       1.0  0.9505999999999998  0.8880999999999999  0.90201  1.0000
  C   C13       1.0  0.9522999999999999  0.3768  0.07902  1.0000
  C   C14       1.0  0.7962  0.5201  0.11369  1.0000
  C   C15       1.0  0.7187999999999998  0.4128999999999999  0.09167  1.0000
  C   C16       1.0  0.384  0.9738  0.50629  1.0000
  C   C17       1.0  0.3501  0.8652999999999997  0.54016  1.0000
  C   C18       1.0  0.21519999999999995  0.7949999999999999  0.53658  1.0000
  C   C19       1.0  0.11409999999999998  0.8359999999999997  0.50049  1.0000
  C   C20       1.0  0.1534  0.9438  0.46659  1.0000
  C   C21       1.0  0.2875  0.0133  0.46894  1.0000
  C   C22       1.0  0.5798  0.12209999999999999  0.54753  1.0000
  C   C23       1.0  0.7387999999999998  0.1305  0.4891199999999999  1.0000
  C   C24       1.0  0.6256999999999998  0.05099999999999998  0.47174  1.0000
  C   C25       1.0  0.9376  0.9011999999999999  0.41093  1.0000
  C   C26       1.0  0.9351  0.1007  0.36986  1.0000
  C   C27       1.0  0.049399999999999986  0.11189999999999999  0.40200999999999987  1.0000
  C   C28       1.0  0.047699999999999985  0.6232  0.57902  1.0000
  C   C29       1.0  0.2038  0.47989999999999994  0.61369  1.0000
  C   C30       1.0  0.2811999999999999  0.5871  0.59167  1.0000
  C   C31       1.0  0.9738  0.616  0.7562899999999998  1.0000
  C   C32       1.0  0.8652999999999997  0.6498999999999999  0.79016  1.0000
  C   C33       1.0  0.7949999999999999  0.7847999999999998  0.78658  1.0000
  C   C34       1.0  0.8359999999999997  0.8858999999999999  0.75049  1.0000
  C   C35       1.0  0.9438  0.8465999999999999  0.7165899999999998  1.0000
  C   C36       1.0  0.0133  0.7125  0.71894  1.0000
  C   C37       1.0  0.12209999999999999  0.4202  0.79753  1.0000
  C   C38       1.0  0.1305  0.2612  0.73912  1.0000
  C   C39       1.0  0.05099999999999998  0.3742999999999999  0.7217399999999999  1.0000
  C   C40       1.0  0.9011999999999999  0.06239999999999999  0.66093  1.0000
  C   C41       1.0  0.1007  0.0649  0.61986  1.0000
  C   C42       1.0  0.11189999999999999  0.9505999999999998  0.6520099999999999  1.0000
  C   C43       1.0  0.6232  0.9522999999999999  0.82902  1.0000
  C   C44       1.0  0.47989999999999994  0.7962  0.8636899999999997  1.0000
  C   C45       1.0  0.5871  0.7187999999999998  0.84167  1.0000
  C   C46       1.0  0.0262  0.384  0.25629  1.0000
  C   C47       1.0  0.1347  0.3501  0.29016  1.0000
  C   C48       1.0  0.205  0.21519999999999995  0.28658  1.0000
  C   C49       1.0  0.164  0.11409999999999998  0.25049  1.0000
  C   C50       1.0  0.0562  0.1534  0.21659  1.0000
  C   C51       1.0  0.9867  0.2875  0.21893999999999994  1.0000
  C   C52       1.0  0.8778999999999999  0.5798  0.29753  1.0000
  C   C53       1.0  0.8694999999999998  0.7387999999999998  0.23911999999999994  1.0000
  C   C54       1.0  0.9489999999999998  0.6256999999999998  0.22174  1.0000
  C   C55       1.0  0.09879999999999997  0.9376  0.16093  1.0000
  C   C56       1.0  0.8992999999999999  0.9351  0.11985999999999998  1.0000
  C   C57       1.0  0.8880999999999999  0.049399999999999986  0.15200999999999995  1.0000
  C   C58       1.0  0.3768  0.047699999999999985  0.32902  1.0000
  C   C59       1.0  0.5201  0.2038  0.36368999999999996  1.0000
  C   C60       1.0  0.4128999999999999  0.2811999999999999  0.34167  1.0000
  N   N1        1.0  0.2899  0.8239999999999998  0.03672  1.0000
  N   N2        1.0  0.47629999999999995  0.9546  0.00915  1.0000
  N   N3        1.0  0.1336  0.03189999999999999  0.87564  1.0000
  N   N4        1.0  0.9481999999999999  0.0168  0.9284299999999999  1.0000
  N   N5        1.0  0.9453999999999999  0.4973  0.10586  1.0000
  N   N6        1.0  0.8190999999999999  0.3218999999999999  0.06874  1.0000
  N   N7        1.0  0.7100999999999997  0.176  0.53672  1.0000
  N   N8        1.0  0.5237  0.045399999999999996  0.50915  1.0000
  N   N9        1.0  0.8664  0.9681  0.37564  1.0000
  N   N10       1.0  0.051799999999999985  0.9832  0.42843  1.0000
  N   N11       1.0  0.0546  0.5027  0.6058599999999997  1.0000
  N   N12       1.0  0.1809  0.6780999999999998  0.56874  1.0000
  N   N13       1.0  0.176  0.2899  0.78672  1.0000
  N   N14       1.0  0.045399999999999996  0.47629999999999995  0.75915  1.0000
  N   N15       1.0  0.9681  0.1336  0.62564  1.0000
  N   N16       1.0  0.9832  0.9481999999999999  0.67843  1.0000
  N   N17       1.0  0.5027  0.9453999999999999  0.85586  1.0000
  N   N18       1.0  0.6780999999999998  0.8190999999999999  0.81874  1.0000
  N   N19       1.0  0.8239999999999998  0.7100999999999997  0.28672  1.0000
  N   N20       1.0  0.9546  0.5237  0.25915  1.0000
  N   N21       1.0  0.03189999999999999  0.8664  0.12564  1.0000
  N   N22       1.0  0.0168  0.051799999999999985  0.17843  1.0000
  N   N23       1.0  0.4973  0.0546  0.35586  1.0000
  N   N24       1.0  0.3218999999999999  0.1809  0.31873999999999997  1.0000
