data_image0
_chemical_formula_structural       Cd4H48C60N24
_chemical_formula_sum              "Cd4 H48 C60 N24"
_cell_length_a       9.0752
_cell_length_b       9.0752
_cell_length_c       27.014
_cell_angle_alpha    90.0
_cell_angle_beta     90.0
_cell_angle_gamma    90.0

_space_group_name_H-M_alt    "P 1"
_space_group_IT_number       1

loop_
  _space_group_symop_operation_xyz
  'x, y, z'

loop_
  _atom_site_type_symbol
  _atom_site_label
  _atom_site_symmetry_multiplicity
  _atom_site_fract_x
  _atom_site_fract_y
  _atom_site_fract_z
  _atom_site_occupancy
  Cd  Cd1       1.0  0.18155  0.6233  0.37496  1.0000
  Cd  Cd2       1.0  0.81845  0.3767  0.87496  1.0000
  Cd  Cd3       1.0  0.3767  0.18155  0.62496  1.0000
  Cd  Cd4       1.0  0.6233  0.81845  0.12495999999999999  1.0000
  H   H1        1.0  0.415  0.1862  0.2435  1.0000
  H   H2        1.0  0.7072  0.4787  0.2966  1.0000
  H   H3        1.0  0.6601  0.0826  0.3621  1.0000
  H   H4        1.0  0.3645  0.9678  0.37479999999999997  1.0000
  H   H5        1.0  0.3461  0.677  0.2691  1.0000
  H   H6        1.0  0.4926  0.8807  0.2384  1.0000
  H   H7        1.0  0.6924  0.5856  0.2202  1.0000
  H   H8        1.0  0.32660000000000006  0.5943  0.145  1.0000
  H   H9        1.0  0.3108  0.3852  0.203  1.0000
  H   H10       1.0  0.8348  0.5396  0.3653  1.0000
  H   H11       1.0  0.0995  0.2546  0.4284  1.0000
  H   H12       1.0  0.9003000000000001  0.1177  0.3891  1.0000
  H   H13       1.0  0.585  0.8138  0.7435  1.0000
  H   H14       1.0  0.2928  0.5213  0.7966  1.0000
  H   H15       1.0  0.3399  0.9174  0.8621  1.0000
  H   H16       1.0  0.6355  0.0322  0.8748  1.0000
  H   H17       1.0  0.6539000000000001  0.323  0.7691  1.0000
  H   H18       1.0  0.5074  0.11930000000000002  0.7384  1.0000
  H   H19       1.0  0.3076  0.4144  0.7202  1.0000
  H   H20       1.0  0.6734  0.4057  0.6449999999999999  1.0000
  H   H21       1.0  0.6892  0.6148  0.7029999999999998  1.0000
  H   H22       1.0  0.1652  0.46040000000000003  0.8653  1.0000
  H   H23       1.0  0.9005  0.7454  0.9284  1.0000
  H   H24       1.0  0.0997  0.8823  0.8891  1.0000
  H   H25       1.0  0.8138  0.415  0.4935  1.0000
  H   H26       1.0  0.5213  0.7072  0.5466  1.0000
  H   H27       1.0  0.9174  0.6601  0.6121  1.0000
  H   H28       1.0  0.0322  0.3645  0.6248  1.0000
  H   H29       1.0  0.323  0.3461  0.5191  1.0000
  H   H30       1.0  0.11930000000000002  0.4926  0.48839999999999995  1.0000
  H   H31       1.0  0.4144  0.6924  0.4702  1.0000
  H   H32       1.0  0.4057  0.32660000000000006  0.39499999999999996  1.0000
  H   H33       1.0  0.6148  0.3108  0.453  1.0000
  H   H34       1.0  0.46040000000000003  0.8348  0.6153  1.0000
  H   H35       1.0  0.7454  0.0995  0.6784  1.0000
  H   H36       1.0  0.8823  0.9003000000000001  0.6391  1.0000
  H   H37       1.0  0.1862  0.585  0.9935  1.0000
  H   H38       1.0  0.4787  0.2928  0.0466  1.0000
  H   H39       1.0  0.0826  0.3399  0.1121  1.0000
  H   H40       1.0  0.9678  0.6355  0.1248  1.0000
  H   H41       1.0  0.677  0.6539000000000001  0.0191  1.0000
  H   H42       1.0  0.8807  0.5074  0.9884  1.0000
  H   H43       1.0  0.5856  0.3076  0.9702  1.0000
  H   H44       1.0  0.5943  0.6734  0.895  1.0000
  H   H45       1.0  0.3852  0.6892  0.953  1.0000
  H   H46       1.0  0.5396  0.1652  0.1153  1.0000
  H   H47       1.0  0.2546  0.9005  0.17839999999999998  1.0000
  H   H48       1.0  0.1177  0.0997  0.1391  1.0000
  C   C1        1.0  0.5263  0.1158  0.3034  1.0000
  C   C2        1.0  0.4871  0.2117  0.2664  1.0000
  C   C3        1.0  0.5564000000000001  0.3461  0.2638  1.0000
  C   C4        1.0  0.6638  0.3859  0.29787  1.0000
  C   C5        1.0  0.7055000000000001  0.2842  0.33409  1.0000
  C   C6        1.0  0.6349  0.1494  0.33740000000000003  1.0000
  C   C7        1.0  0.3777  0.9201000000000001  0.3447  1.0000
  C   C8        1.0  0.36840000000000006  0.7619  0.2868  1.0000
  C   C9        1.0  0.449  0.8738  0.2695  1.0000
  C   C10       1.0  0.5993  0.5616  0.2083  1.0000
  C   C11       1.0  0.3993  0.5659  0.16719999999999996  1.0000
  C   C12       1.0  0.3895  0.45010000000000006  0.1996  1.0000
  C   C13       1.0  0.8770000000000001  0.45199999999999996  0.3761999999999999  1.0000
  C   C14       1.0  0.0212  0.2955  0.4109  1.0000
  C   C15       1.0  0.9121  0.2195  0.3888  1.0000
  C   C16       1.0  0.4737  0.8842  0.8033999999999999  1.0000
  C   C17       1.0  0.5129  0.7883  0.7664  1.0000
  C   C18       1.0  0.44359999999999994  0.6539000000000001  0.7638  1.0000
  C   C19       1.0  0.33620000000000005  0.6141  0.79787  1.0000
  C   C20       1.0  0.2945  0.7158000000000001  0.83409  1.0000
  C   C21       1.0  0.3651  0.8506  0.8374  1.0000
  C   C22       1.0  0.6223  0.0799  0.8447  1.0000
  C   C23       1.0  0.6316  0.2381  0.7868  1.0000
  C   C24       1.0  0.551  0.12620000000000003  0.7695  1.0000
  C   C25       1.0  0.4007  0.4384  0.7083  1.0000
  C   C26       1.0  0.6007  0.4341  0.6672  1.0000
  C   C27       1.0  0.6105000000000002  0.5499  0.6996  1.0000
  C   C28       1.0  0.12299999999999998  0.548  0.8762  1.0000
  C   C29       1.0  0.9788  0.7045  0.9109  1.0000
  C   C30       1.0  0.0879  0.7805  0.8888  1.0000
  C   C31       1.0  0.8842  0.5263  0.5534  1.0000
  C   C32       1.0  0.7883  0.4871  0.5164  1.0000
  C   C33       1.0  0.6539000000000001  0.5564000000000001  0.5138  1.0000
  C   C34       1.0  0.6141  0.6638  0.54787  1.0000
  C   C35       1.0  0.7158000000000001  0.7055000000000001  0.58409  1.0000
  C   C36       1.0  0.8506  0.6349  0.5874  1.0000
  C   C37       1.0  0.0799  0.3777  0.5947  1.0000
  C   C38       1.0  0.2381  0.36840000000000006  0.5368  1.0000
  C   C39       1.0  0.12620000000000003  0.449  0.5195  1.0000
  C   C40       1.0  0.4384  0.5993  0.4583  1.0000
  C   C41       1.0  0.4341  0.3993  0.4172  1.0000
  C   C42       1.0  0.5499  0.3895  0.4496  1.0000
  C   C43       1.0  0.548  0.8770000000000001  0.6262  1.0000
  C   C44       1.0  0.7045  0.0212  0.6609  1.0000
  C   C45       1.0  0.7805  0.9121  0.6388  1.0000
  C   C46       1.0  0.1158  0.4737  0.0534  1.0000
  C   C47       1.0  0.2117  0.5129  0.0164  1.0000
  C   C48       1.0  0.3461  0.44359999999999994  0.0138  1.0000
  C   C49       1.0  0.3859  0.33620000000000005  0.04787  1.0000
  C   C50       1.0  0.2842  0.2945  0.08408999999999998  1.0000
  C   C51       1.0  0.1494  0.3651  0.0874  1.0000
  C   C52       1.0  0.9201000000000001  0.6223  0.0947  1.0000
  C   C53       1.0  0.7619  0.6316  0.0368  1.0000
  C   C54       1.0  0.8738  0.551  0.019499999999999997  1.0000
  C   C55       1.0  0.5616  0.4007  0.9583  1.0000
  C   C56       1.0  0.5659  0.6007  0.9172  1.0000
  C   C57       1.0  0.45010000000000006  0.6105000000000002  0.9496  1.0000
  C   C58       1.0  0.45199999999999996  0.12299999999999998  0.1262  1.0000
  C   C59       1.0  0.2955  0.9788  0.1609  1.0000
  C   C60       1.0  0.2195  0.0879  0.1388  1.0000
  N   N1        1.0  0.3235  0.7895  0.33397  1.0000
  N   N2        1.0  0.4545  0.9759  0.30647  1.0000
  N   N3        1.0  0.5327  0.6329000000000001  0.17289  1.0000
  N   N4        1.0  0.5171  0.4487  0.22569  1.0000
  N   N5        1.0  0.9973  0.4465  0.40325  1.0000
  N   N6        1.0  0.8214  0.3193  0.36595  1.0000
  N   N7        1.0  0.6765  0.2105  0.83397  1.0000
  N   N8        1.0  0.5455  0.0241  0.80647  1.0000
  N   N9        1.0  0.4673  0.3671  0.67289  1.0000
  N   N10       1.0  0.4829  0.5513  0.7256899999999998  1.0000
  N   N11       1.0  0.0027  0.5535  0.90325  1.0000
  N   N12       1.0  0.17860000000000004  0.6807  0.86595  1.0000
  N   N13       1.0  0.2105  0.3235  0.58397  1.0000
  N   N14       1.0  0.0241  0.4545  0.55647  1.0000
  N   N15       1.0  0.3671  0.5327  0.42288999999999993  1.0000
  N   N16       1.0  0.5513  0.5171  0.47569  1.0000
  N   N17       1.0  0.5535  0.9973  0.65325  1.0000
  N   N18       1.0  0.6807  0.8214  0.61595  1.0000
  N   N19       1.0  0.7895  0.6765  0.08397  1.0000
  N   N20       1.0  0.9759  0.5455  0.05647  1.0000
  N   N21       1.0  0.6329000000000001  0.4673  0.92289  1.0000
  N   N22       1.0  0.4487  0.4829  0.97569  1.0000
  N   N23       1.0  0.4465  0.0027  0.15325  1.0000
  N   N24       1.0  0.3193  0.17860000000000004  0.11595  1.0000
