data_image0
_chemical_formula_structural       Eu16H16C80N32O64
_chemical_formula_sum              "Eu16 H16 C80 N32 O64"
_cell_length_a       16.176
_cell_length_b       16.473
_cell_length_c       16.473
_cell_angle_alpha    76.0505
_cell_angle_beta     60.59460000000001
_cell_angle_gamma    60.59460000000001

_symmetry_space_group_name_H-M    'P 1'
_symmetry_Int_Tables_number       1

loop_
  _symmetry_equiv_pos_as_xyz
  'x,y,z'

loop_
  _atom_site_type_symbol
  _atom_site_label
  _atom_site_symmetry_multiplicity
  _atom_site_fract_x
  _atom_site_fract_y
  _atom_site_fract_z
  _atom_site_occupancy
  Eu  Eu1       1.0  0.23742000000000005  0.87893  0.46873  1.0000
  Eu  Eu2       1.0  0.03566999999999996  0.61374  0.4768800000000001  1.0000
  Eu  Eu3       1.0  0.08508  0.62107  0.03127  1.0000
  Eu  Eu4       1.0  0.6262900000000005  0.88626  0.02312  1.0000
  Eu  Eu5       1.0  0.7061500000000002  0.53127  0.37893  1.0000
  Eu  Eu6       1.0  0.51255  0.52312  0.11374  1.0000
  Eu  Eu7       1.0  0.11635  0.96873  0.12107  1.0000
  Eu  Eu8       1.0  0.6494099999999998  0.97688  0.38626  1.0000
  Eu  Eu9       1.0  0.7625800000000004  0.12107  0.53127  1.0000
  Eu  Eu10      1.0  0.9643299999999999  0.38626  0.52312  1.0000
  Eu  Eu11      1.0  0.9149200000000001  0.37893  0.96873  1.0000
  Eu  Eu12      1.0  0.37371000000000004  0.11373999999999998  0.97688  1.0000
  Eu  Eu13      1.0  0.29385000000000006  0.46872999999999987  0.6210700000000001  1.0000
  Eu  Eu14      1.0  0.48745000000000005  0.4768799999999999  0.88626  1.0000
  Eu  Eu15      1.0  0.88365  0.03127  0.87893  1.0000
  Eu  Eu16      1.0  0.35059  0.02312  0.6137400000000001  1.0000
  H   H1        1.0  0.057099999999999956  0.753  0.2486  1.0000
  H   H2        1.0  0.36270000000000013  0.9028999999999998  0.2189  1.0000
  H   H3        1.0  0.5587000000000003  0.747  0.2514  1.0000
  H   H4        1.0  0.9845000000000004  0.5971  0.2811000000000001  1.0000
  H   H5        1.0  0.30569999999999997  0.7514  0.253  1.0000
  H   H6        1.0  0.5815999999999998  0.7810999999999998  0.4029  1.0000
  H   H7        1.0  0.8101000000000008  0.7486  0.247  1.0000
  H   H8        1.0  0.2656  0.7189  0.0971  1.0000
  H   H9        1.0  0.9429000000000001  0.247  0.7514  1.0000
  H   H10       1.0  0.6373  0.09709999999999998  0.7811  1.0000
  H   H11       1.0  0.44130000000000014  0.253  0.7486  1.0000
  H   H12       1.0  0.015500000000000033  0.4028999999999999  0.7189  1.0000
  H   H13       1.0  0.6943000000000004  0.24859999999999993  0.747  1.0000
  H   H14       1.0  0.41840000000000005  0.21889999999999996  0.5971  1.0000
  H   H15       1.0  0.18989999999999987  0.2514  0.7530000000000002  1.0000
  H   H16       1.0  0.7344  0.2811  0.9029000000000001  1.0000
  C   C1        1.0  0.0686  0.7788  0.2842  1.0000
  C   C2        1.0  0.09630000000000011  0.8692999999999997  0.3299  1.0000
  C   C3        1.0  0.08999999999999997  0.7976  0.3952  1.0000
  C   C4        1.0  0.09349999999999997  0.7771  0.4863  1.0000
  C   C5        1.0  0.11610000000000002  0.9496999999999999  0.3209  1.0000
  C   C6        1.0  0.39810000000000006  0.9152  0.24140000000000006  1.0000
  C   C7        1.0  0.4353000000000003  0.9445  0.3363000000000001  1.0000
  C   C8        1.0  0.5047  0.9504  0.2486  1.0000
  C   C9        1.0  0.5969000000000001  0.9699999999999998  0.20740000000000006  1.0000
  C   C10       1.0  0.4192  0.9517  0.4321000000000001  1.0000
  C   C11       1.0  0.6316000000000003  0.7211999999999997  0.2158  1.0000
  C   C12       1.0  0.7955000000000001  0.6307  0.1701  1.0000
  C   C13       1.0  0.7828000000000003  0.7023999999999998  0.10480000000000003  1.0000
  C   C14       1.0  0.8569  0.7228999999999998  0.0137  1.0000
  C   C15       1.0  0.8867  0.5503  0.1791  1.0000
  C   C16       1.0  0.054700000000000075  0.5847999999999998  0.2586  1.0000
  C   C17       1.0  0.21609999999999996  0.5555  0.16370000000000007  1.0000
  C   C18       1.0  0.20370000000000005  0.5496  0.2514  1.0000
  C   C19       1.0  0.27429999999999993  0.53  0.2926  1.0000
  C   C20       1.0  0.3030000000000001  0.5482999999999999  0.0679  1.0000
  C   C21       1.0  0.35280000000000006  0.7157999999999999  0.2788  1.0000
  C   C22       1.0  0.42620000000000025  0.6701  0.36930000000000013  1.0000
  C   C23       1.0  0.48519999999999996  0.6048  0.2976  1.0000
  C   C24       1.0  0.5798000000000003  0.5137  0.2771  1.0000
  C   C25       1.0  0.43700000000000006  0.6790999999999998  0.4497  1.0000
  C   C26       1.0  0.6395  0.7586  0.4152000000000001  1.0000
  C   C27       1.0  0.7715999999999998  0.6637  0.4445  1.0000
  C   C28       1.0  0.7533  0.7514  0.4504  1.0000
  C   C29       1.0  0.8043000000000001  0.7925999999999997  0.47000000000000003  1.0000
  C   C30       1.0  0.8513  0.5679  0.4517  1.0000
  C   C31       1.0  0.8473999999999998  0.7842  0.2212  1.0000
  C   C32       1.0  0.9656  0.8299  0.1307  1.0000
  C   C33       1.0  0.8876  0.8952  0.2024  1.0000
  C   C34       1.0  0.8706000000000002  0.9863  0.22290000000000004  1.0000
  C   C35       1.0  0.06580000000000008  0.8209  0.0503  1.0000
  C   C36       1.0  0.3133  0.7414  0.0848  1.0000
  C   C37       1.0  0.37980000000000014  0.8362999999999998  0.0555  1.0000
  C   C38       1.0  0.45510000000000006  0.7486  0.0496  1.0000
  C   C39       1.0  0.5668999999999998  0.7074  0.030000000000000006  1.0000
  C   C40       1.0  0.37090000000000006  0.9320999999999998  0.0483  1.0000
  C   C41       1.0  0.9314000000000001  0.2212  0.7158  1.0000
  C   C42       1.0  0.9037000000000001  0.1307  0.6701000000000003  1.0000
  C   C43       1.0  0.9100000000000001  0.2024  0.6048  1.0000
  C   C44       1.0  0.9065000000000001  0.22289999999999996  0.5137  1.0000
  C   C45       1.0  0.8838999999999999  0.0503  0.6791000000000001  1.0000
  C   C46       1.0  0.6019  0.0848  0.7586000000000003  1.0000
  C   C47       1.0  0.5646999999999998  0.0555  0.6637000000000002  1.0000
  C   C48       1.0  0.4953  0.0496  0.7514  1.0000
  C   C49       1.0  0.4030999999999999  0.03  0.7926000000000002  1.0000
  C   C50       1.0  0.5808000000000001  0.0483  0.5679000000000002  1.0000
  C   C51       1.0  0.3684  0.2788  0.7842  1.0000
  C   C52       1.0  0.20450000000000002  0.3693  0.8299  1.0000
  C   C53       1.0  0.21720000000000003  0.2976  0.8952  1.0000
  C   C54       1.0  0.1431  0.2771  0.9863  1.0000
  C   C55       1.0  0.11330000000000001  0.4497  0.8209  1.0000
  C   C56       1.0  0.9453  0.4151999999999999  0.7414  1.0000
  C   C57       1.0  0.7839000000000002  0.4445  0.8363  1.0000
  C   C58       1.0  0.7963  0.4504  0.7486  1.0000
  C   C59       1.0  0.7257  0.47  0.7074  1.0000
  C   C60       1.0  0.6970000000000001  0.4517  0.9321  1.0000
  C   C61       1.0  0.6472  0.2842  0.7212  1.0000
  C   C62       1.0  0.5738000000000003  0.3299  0.6307000000000003  1.0000
  C   C63       1.0  0.5147999999999999  0.3952  0.7024000000000001  1.0000
  C   C64       1.0  0.4202000000000002  0.4862999999999999  0.7229  1.0000
  C   C65       1.0  0.5630000000000001  0.3209  0.5503  1.0000
  C   C66       1.0  0.3604999999999998  0.24139999999999995  0.5848000000000002  1.0000
  C   C67       1.0  0.2284  0.3363  0.5555  1.0000
  C   C68       1.0  0.24670000000000014  0.24859999999999993  0.5496  1.0000
  C   C69       1.0  0.19570000000000004  0.2074  0.53  1.0000
  C   C70       1.0  0.14870000000000003  0.4321  0.5483  1.0000
  C   C71       1.0  0.15259999999999987  0.2158  0.7788000000000003  1.0000
  C   C72       1.0  0.03439999999999999  0.1701  0.8693  1.0000
  C   C73       1.0  0.11240000000000001  0.1048  0.7976  1.0000
  C   C74       1.0  0.12939999999999993  0.013699999999999997  0.7771  1.0000
  C   C75       1.0  0.9342  0.1791  0.9497  1.0000
  C   C76       1.0  0.6866999999999996  0.2586  0.9152  1.0000
  C   C77       1.0  0.6202000000000001  0.16369999999999998  0.9445  1.0000
  C   C78       1.0  0.5449000000000005  0.2514  0.9504000000000001  1.0000
  C   C79       1.0  0.43309999999999993  0.2926  0.97  1.0000
  C   C80       1.0  0.6291000000000001  0.0679  0.9517  1.0000
  N   N1        1.0  0.07340000000000005  0.74  0.3646  1.0000
  N   N2        1.0  0.08130000000000001  0.8567999999999999  0.2588  1.0000
  N   N3        1.0  0.3683  0.9177999999999998  0.3322  1.0000
  N   N4        1.0  0.4823000000000001  0.9313  0.1851  1.0000
  N   N5        1.0  0.6780000000000005  0.76  0.1354  1.0000
  N   N6        1.0  0.6968999999999999  0.6432  0.24120000000000005  1.0000
  N   N7        1.0  0.11829999999999999  0.5822  0.1678  1.0000
  N   N8        1.0  0.09870000000000005  0.5686999999999998  0.3149  1.0000
  N   N9        1.0  0.43800000000000017  0.6353999999999997  0.24000000000000005  1.0000
  N   N10       1.0  0.34010000000000007  0.7412  0.3568000000000001  1.0000
  N   N11       1.0  0.7004999999999999  0.6677999999999998  0.4178  1.0000
  N   N12       1.0  0.6674000000000001  0.8149  0.4313000000000001  1.0000
  N   N13       1.0  0.8134  0.8646  0.26  1.0000
  N   N14       1.0  0.9381  0.7588  0.14320000000000005  1.0000
  N   N15       1.0  0.2861000000000001  0.8322  0.0822  1.0000
  N   N16       1.0  0.4136000000000001  0.6850999999999998  0.0687  1.0000
  N   N17       1.0  0.9266  0.25999999999999995  0.6354  1.0000
  N   N18       1.0  0.9187000000000002  0.1432  0.7412  1.0000
  N   N19       1.0  0.6316999999999998  0.08219999999999998  0.6678000000000002  1.0000
  N   N20       1.0  0.5177  0.0687  0.8149  1.0000
  N   N21       1.0  0.3220000000000002  0.24  0.8646  1.0000
  N   N22       1.0  0.3030999999999999  0.3568  0.7588000000000001  1.0000
  N   N23       1.0  0.8817000000000004  0.4178  0.8322  1.0000
  N   N24       1.0  0.9013000000000001  0.43129999999999996  0.6851  1.0000
  N   N25       1.0  0.5620000000000002  0.3646  0.76  1.0000
  N   N26       1.0  0.6599  0.2588  0.6432  1.0000
  N   N27       1.0  0.2995  0.3322  0.5822  1.0000
  N   N28       1.0  0.3325999999999999  0.18509999999999996  0.5687000000000002  1.0000
  N   N29       1.0  0.18659999999999996  0.1354  0.74  1.0000
  N   N30       1.0  0.061899999999999976  0.2412  0.8568  1.0000
  N   N31       1.0  0.7139  0.1678  0.9178  1.0000
  N   N32       1.0  0.5864  0.3148999999999999  0.9313  1.0000
  O   O1        1.0  0.07300000000000002  0.709  0.5306  1.0000
  O   O2        1.0  0.11399999999999999  0.8213  0.5197  1.0000
  O   O3        1.0  0.1517  0.9543  0.3715  1.0000
  O   O4        1.0  0.0977  0.0096  0.2602  1.0000
  O   O5        1.0  0.6534000000000001  0.9578999999999998  0.11790000000000002  1.0000
  O   O6        1.0  0.6180000000000004  0.9960999999999998  0.2567  1.0000
  O   O7        1.0  0.46870000000000017  0.9841999999999997  0.444  1.0000
  O   O8        1.0  0.3494  0.9301  0.5001  1.0000
  O   O9        1.0  0.8126000000000001  0.7909999999999998  0.9694  1.0000
  O   O10       1.0  0.9549999999999997  0.6787  0.9803000000000001  1.0000
  O   O11       1.0  0.9775000000000004  0.5457  0.1285  1.0000
  O   O12       1.0  0.8675  0.4904  0.23980000000000007  1.0000
  O   O13       1.0  0.2292  0.5421  0.3821  1.0000
  O   O14       1.0  0.37079999999999996  0.5039  0.2433  1.0000
  O   O15       1.0  0.3969  0.5158  0.056  1.0000
  O   O16       1.0  0.27960000000000007  0.5699  0.9999  1.0000
  O   O17       1.0  0.6036  0.4694  0.20900000000000005  1.0000
  O   O18       1.0  0.6337000000000002  0.4803  0.3213  1.0000
  O   O19       1.0  0.5231999999999998  0.6284999999999998  0.45430000000000004  1.0000
  O   O20       1.0  0.3579  0.7398  0.5096  1.0000
  O   O21       1.0  0.7713000000000001  0.8821  0.4579000000000001  1.0000
  O   O22       1.0  0.8747000000000001  0.7432999999999998  0.4961000000000001  1.0000
  O   O23       1.0  0.9126999999999998  0.556  0.4842  1.0000
  O   O24       1.0  0.8494999999999997  0.4999  0.4301000000000001  1.0000
  O   O25       1.0  0.782  0.0306  0.291  1.0000
  O   O26       1.0  0.9353000000000001  0.0197  0.1787  1.0000
  O   O27       1.0  0.10600000000000005  0.8715  0.0457  1.0000
  O   O28       1.0  0.10729999999999999  0.7602  0.9904  1.0000
  O   O29       1.0  0.6113  0.6179  0.0421  1.0000
  O   O30       1.0  0.6141  0.7567  0.0039  1.0000
  O   O31       1.0  0.4529  0.944  0.0158  1.0000
  O   O32       1.0  0.2795  0.0001  0.0699  1.0000
  O   O33       1.0  0.927  0.2909999999999999  0.4694  1.0000
  O   O34       1.0  0.8860000000000001  0.1787  0.4803  1.0000
  O   O35       1.0  0.8483  0.0457  0.6285  1.0000
  O   O36       1.0  0.9023000000000001  0.9903999999999998  0.7398  1.0000
  O   O37       1.0  0.3466  0.04209999999999999  0.8821  1.0000
  O   O38       1.0  0.3820000000000002  0.0039  0.7433  1.0000
  O   O39       1.0  0.5312999999999999  0.0158  0.556  1.0000
  O   O40       1.0  0.6505999999999998  0.0699  0.4999  1.0000
  O   O41       1.0  0.1874000000000001  0.20899999999999994  0.0306  1.0000
  O   O42       1.0  0.04500000000000001  0.3213  0.0197  1.0000
  O   O43       1.0  0.022500000000000034  0.45429999999999987  0.8715000000000002  1.0000
  O   O44       1.0  0.13250000000000003  0.5096  0.7602  1.0000
  O   O45       1.0  0.7708000000000003  0.45789999999999986  0.6179000000000001  1.0000
  O   O46       1.0  0.6291999999999999  0.4961  0.7567  1.0000
  O   O47       1.0  0.6031  0.4841999999999999  0.9440000000000001  1.0000
  O   O48       1.0  0.7204  0.4301  0.00010000000000000002  1.0000
  O   O49       1.0  0.3963999999999999  0.5306  0.7910000000000001  1.0000
  O   O50       1.0  0.3662999999999999  0.5197  0.6787  1.0000
  O   O51       1.0  0.4768000000000001  0.3714999999999999  0.5457  1.0000
  O   O52       1.0  0.6421  0.2602  0.4904000000000001  1.0000
  O   O53       1.0  0.22870000000000001  0.1179  0.5421  1.0000
  O   O54       1.0  0.12530000000000002  0.25669999999999993  0.5039  1.0000
  O   O55       1.0  0.08730000000000003  0.444  0.5158  1.0000
  O   O56       1.0  0.15050000000000008  0.5001  0.5699  1.0000
  O   O57       1.0  0.2180000000000001  0.9694  0.709  1.0000
  O   O58       1.0  0.06470000000000008  0.9802999999999998  0.8213  1.0000
  O   O59       1.0  0.8939999999999999  0.1285  0.9543000000000003  1.0000
  O   O60       1.0  0.8927000000000002  0.2398  0.0096  1.0000
  O   O61       1.0  0.3887  0.3821  0.9579  1.0000
  O   O62       1.0  0.38590000000000013  0.2433  0.9961  1.0000
  O   O63       1.0  0.5470999999999999  0.055999999999999994  0.9842000000000002  1.0000
  O   O64       1.0  0.7204999999999995  0.9999  0.9301000000000003  1.0000
