data_image0
_chemical_formula_structural       Zn2H8C16O8
_chemical_formula_sum              "Zn2 H8 C16 O8"
_cell_length_a       7.989
_cell_length_b       8.9532
_cell_length_c       8.9532
_cell_angle_alpha    103.082
_cell_angle_beta     100.06299999999999
_cell_angle_gamma    100.06299999999999

_symmetry_space_group_name_H-M    'P 1'
_symmetry_Int_Tables_number       1

loop_
  _symmetry_equiv_pos_as_xyz
  'x,y,z'

loop_
  _atom_site_type_symbol
  _atom_site_label
  _atom_site_symmetry_multiplicity
  _atom_site_fract_x
  _atom_site_fract_y
  _atom_site_fract_z
  _atom_site_occupancy
  Zn  Zn1       1.0  0.57861  0.39521  0.39521  1.0000
  Zn  Zn2       1.0  0.42139  0.60479  0.60479  1.0000
  H   H1        1.0  0.7308  0.0456  0.5282  1.0000
  H   H2        1.0  0.04809999999999998  0.7473  0.4639  1.0000
  H   H3        1.0  0.2692  0.47180000000000005  0.9543999999999999  1.0000
  H   H4        1.0  0.9519  0.5361  0.2527  1.0000
  H   H5        1.0  0.26919999999999994  0.9543999999999999  0.4718  1.0000
  H   H6        1.0  0.9519  0.2527  0.5361  1.0000
  H   H7        1.0  0.7308  0.5282  0.0456  1.0000
  H   H8        1.0  0.04809999999999998  0.4639  0.7473  1.0000
  C   C1        1.0  0.867  0.8755  0.4963  1.0000
  C   C2        1.0  0.8418000000000002  0.0265  0.5167  1.0000
  C   C3        1.0  0.027399999999999994  0.8505  0.4789  1.0000
  C   C4        1.0  0.7239  0.7395999999999999  0.4924  1.0000
  C   C5        1.0  0.133  0.5037  0.12450000000000001  1.0000
  C   C6        1.0  0.15820000000000006  0.4833000000000001  0.9735000000000001  1.0000
  C   C7        1.0  0.9726  0.5211  0.1495  1.0000
  C   C8        1.0  0.2761  0.5076  0.2604  1.0000
  C   C9        1.0  0.13300000000000003  0.12450000000000003  0.5037000000000001  1.0000
  C   C10       1.0  0.15820000000000004  0.9735  0.48330000000000006  1.0000
  C   C11       1.0  0.9726  0.1495  0.5211  1.0000
  C   C12       1.0  0.2761  0.2604  0.5076  1.0000
  C   C13       1.0  0.867  0.4963  0.8755  1.0000
  C   C14       1.0  0.8418000000000002  0.5167  0.0265  1.0000
  C   C15       1.0  0.02740000000000002  0.47890000000000005  0.8505  1.0000
  C   C16       1.0  0.7239  0.4924  0.7396  1.0000
  O   O1        1.0  0.729  0.6064  0.4122  1.0000
  O   O2        1.0  0.3906  0.4338000000000001  0.2314  1.0000
  O   O3        1.0  0.2710000000000001  0.5878  0.39360000000000006  1.0000
  O   O4        1.0  0.6094  0.7686  0.5662  1.0000
  O   O5        1.0  0.271  0.39360000000000006  0.5878  1.0000
  O   O6        1.0  0.6094  0.5662  0.7686  1.0000
  O   O7        1.0  0.729  0.4122  0.6064  1.0000
  O   O8        1.0  0.3906  0.23140000000000002  0.4338000000000001  1.0000
