data_image0
_chemical_formula_structural       Al16H144C240O96
_chemical_formula_sum              "Al16 H144 C240 O96"
_cell_length_a       17.40431
_cell_length_b       17.40431
_cell_length_c       23.96595
_cell_angle_alpha    90.0
_cell_angle_beta     90.0
_cell_angle_gamma    90.0

_space_group_name_H-M_alt    "P 1"
_space_group_IT_number       1

loop_
  _space_group_symop_operation_xyz
  'x, y, z'

loop_
  _atom_site_type_symbol
  _atom_site_label
  _atom_site_symmetry_multiplicity
  _atom_site_fract_x
  _atom_site_fract_y
  _atom_site_fract_z
  _atom_site_occupancy
  Al  Al1       1.0  0.82134  0.82134  0.5  1.0000
  Al  Al2       1.0  0.17866  0.17866  0.5  1.0000
  Al  Al3       1.0  0.17866  0.82134  0.5  1.0000
  Al  Al4       1.0  0.82134  0.17866  0.5  1.0000
  Al  Al5       1.0  0.32134  0.32134  0.0  1.0000
  Al  Al6       1.0  0.6786599999999999  0.6786599999999999  0.0  1.0000
  Al  Al7       1.0  0.6786599999999999  0.32134  0.0  1.0000
  Al  Al8       1.0  0.32134  0.6786599999999999  0.0  1.0000
  Al  Al9       1.0  0.7461599999999998  0.0  0.5  1.0000
  Al  Al10      1.0  0.25384  0.0  0.5  1.0000
  Al  Al11      1.0  0.0  0.7461599999999998  0.5  1.0000
  Al  Al12      1.0  0.0  0.25384  0.5  1.0000
  Al  Al13      1.0  0.24616  0.5  0.0  1.0000
  Al  Al14      1.0  0.75384  0.5  0.0  1.0000
  Al  Al15      1.0  0.5  0.24616  0.0  1.0000
  Al  Al16      1.0  0.5  0.75384  0.0  1.0000
  H   H1        1.0  0.81398  0.79779  0.77716  1.0000
  H   H2        1.0  0.18602  0.20221  0.77716  1.0000
  H   H3        1.0  0.20221  0.81398  0.77716  1.0000
  H   H4        1.0  0.79779  0.18602  0.77716  1.0000
  H   H5        1.0  0.18602  0.79779  0.22284000000000004  1.0000
  H   H6        1.0  0.81398  0.20221  0.22284000000000004  1.0000
  H   H7        1.0  0.79779  0.81398  0.22284000000000004  1.0000
  H   H8        1.0  0.20221  0.18602  0.22284000000000004  1.0000
  H   H9        1.0  0.31398  0.29778999999999994  0.27716  1.0000
  H   H10       1.0  0.68602  0.70221  0.27716  1.0000
  H   H11       1.0  0.70221  0.31398  0.27716  1.0000
  H   H12       1.0  0.29778999999999994  0.68602  0.27716  1.0000
  H   H13       1.0  0.68602  0.29778999999999994  0.7228400000000003  1.0000
  H   H14       1.0  0.31398  0.70221  0.7228400000000003  1.0000
  H   H15       1.0  0.29778999999999994  0.31398  0.7228400000000003  1.0000
  H   H16       1.0  0.70221  0.68602  0.7228400000000003  1.0000
  H   H17       1.0  0.82317  0.7968  0.67196  1.0000
  H   H18       1.0  0.17682999999999996  0.2032  0.67196  1.0000
  H   H19       1.0  0.2032  0.82317  0.67196  1.0000
  H   H20       1.0  0.7968  0.17682999999999996  0.67196  1.0000
  H   H21       1.0  0.17682999999999996  0.7968  0.32804000000000005  1.0000
  H   H22       1.0  0.82317  0.2032  0.32804000000000005  1.0000
  H   H23       1.0  0.7968  0.82317  0.32804000000000005  1.0000
  H   H24       1.0  0.2032  0.17682999999999996  0.32804000000000005  1.0000
  H   H25       1.0  0.32317  0.2968  0.17196  1.0000
  H   H26       1.0  0.6768299999999999  0.7031999999999998  0.17196  1.0000
  H   H27       1.0  0.7031999999999998  0.32317  0.17196  1.0000
  H   H28       1.0  0.2968  0.6768299999999999  0.17196  1.0000
  H   H29       1.0  0.6768299999999999  0.2968  0.8280400000000001  1.0000
  H   H30       1.0  0.32317  0.7031999999999998  0.8280400000000001  1.0000
  H   H31       1.0  0.2968  0.32317  0.8280400000000001  1.0000
  H   H32       1.0  0.7031999999999998  0.6768299999999999  0.8280400000000001  1.0000
  H   H33       1.0  0.71107  0.0161  0.666  1.0000
  H   H34       1.0  0.28894  0.9839  0.666  1.0000
  H   H35       1.0  0.9839  0.71107  0.666  1.0000
  H   H36       1.0  0.0161  0.28894  0.666  1.0000
  H   H37       1.0  0.28894  0.0161  0.3340000000000001  1.0000
  H   H38       1.0  0.71107  0.9839  0.3340000000000001  1.0000
  H   H39       1.0  0.0161  0.71107  0.3340000000000001  1.0000
  H   H40       1.0  0.9839  0.28894  0.3340000000000001  1.0000
  H   H41       1.0  0.21107  0.51611  0.166  1.0000
  H   H42       1.0  0.78894  0.4839  0.166  1.0000
  H   H43       1.0  0.4839  0.21107  0.166  1.0000
  H   H44       1.0  0.51611  0.78894  0.166  1.0000
  H   H45       1.0  0.78894  0.51611  0.8340000000000002  1.0000
  H   H46       1.0  0.21107  0.4839  0.8340000000000002  1.0000
  H   H47       1.0  0.51611  0.21107  0.8340000000000002  1.0000
  H   H48       1.0  0.4839  0.78894  0.8340000000000002  1.0000
  H   H49       1.0  0.70083  0.017  0.77024  1.0000
  H   H50       1.0  0.29918  0.9829999999999999  0.77024  1.0000
  H   H51       1.0  0.9829999999999999  0.70083  0.77024  1.0000
  H   H52       1.0  0.017  0.29918  0.77024  1.0000
  H   H53       1.0  0.29918  0.017  0.22976  1.0000
  H   H54       1.0  0.70083  0.9829999999999999  0.22976  1.0000
  H   H55       1.0  0.017  0.70083  0.22976  1.0000
  H   H56       1.0  0.9829999999999999  0.29918  0.22976  1.0000
  H   H57       1.0  0.20082999999999998  0.51701  0.27024  1.0000
  H   H58       1.0  0.79918  0.48300000000000004  0.27024  1.0000
  H   H59       1.0  0.48300000000000004  0.20082999999999998  0.27024  1.0000
  H   H60       1.0  0.51701  0.79918  0.27024  1.0000
  H   H61       1.0  0.79918  0.51701  0.7297600000000001  1.0000
  H   H62       1.0  0.20082999999999998  0.48300000000000004  0.7297600000000001  1.0000
  H   H63       1.0  0.51701  0.20082999999999998  0.7297600000000001  1.0000
  H   H64       1.0  0.48300000000000004  0.79918  0.7297600000000001  1.0000
  H   H65       1.0  0.52819  0.93156  0.45439000000000007  1.0000
  H   H66       1.0  0.47180999999999995  0.06844  0.45439000000000007  1.0000
  H   H67       1.0  0.06844  0.52819  0.45439000000000007  1.0000
  H   H68       1.0  0.93156  0.47180999999999995  0.45439000000000007  1.0000
  H   H69       1.0  0.47180999999999995  0.93156  0.5456200000000001  1.0000
  H   H70       1.0  0.52819  0.06844  0.5456200000000001  1.0000
  H   H71       1.0  0.93156  0.52819  0.5456200000000001  1.0000
  H   H72       1.0  0.06844  0.47180999999999995  0.5456200000000001  1.0000
  H   H73       1.0  0.02819  0.4315599999999999  0.9543900000000002  1.0000
  H   H74       1.0  0.97181  0.56844  0.9543900000000002  1.0000
  H   H75       1.0  0.56844  0.02819  0.9543900000000002  1.0000
  H   H76       1.0  0.4315599999999999  0.97181  0.9543900000000002  1.0000
  H   H77       1.0  0.97181  0.4315599999999999  0.045610000000000005  1.0000
  H   H78       1.0  0.02819  0.56844  0.045610000000000005  1.0000
  H   H79       1.0  0.4315599999999999  0.02819  0.045610000000000005  1.0000
  H   H80       1.0  0.56844  0.97181  0.045610000000000005  1.0000
  H   H81       1.0  0.41258  0.88262  0.4030700000000001  1.0000
  H   H82       1.0  0.58742  0.11737999999999998  0.4030700000000001  1.0000
  H   H83       1.0  0.11737999999999998  0.41258  0.4030700000000001  1.0000
  H   H84       1.0  0.88262  0.58742  0.4030700000000001  1.0000
  H   H85       1.0  0.58742  0.88262  0.59693  1.0000
  H   H86       1.0  0.41258  0.11737999999999998  0.59693  1.0000
  H   H87       1.0  0.88262  0.41258  0.59693  1.0000
  H   H88       1.0  0.11737999999999998  0.58742  0.59693  1.0000
  H   H89       1.0  0.9125799999999997  0.38262  0.90308  1.0000
  H   H90       1.0  0.08741999999999998  0.6173799999999999  0.90308  1.0000
  H   H91       1.0  0.6173799999999999  0.9125799999999997  0.90308  1.0000
  H   H92       1.0  0.38262  0.08741999999999998  0.90308  1.0000
  H   H93       1.0  0.08741999999999998  0.38262  0.09693000000000002  1.0000
  H   H94       1.0  0.9125799999999997  0.6173799999999999  0.09693000000000002  1.0000
  H   H95       1.0  0.38262  0.9125799999999997  0.09693000000000002  1.0000
  H   H96       1.0  0.6173799999999999  0.08741999999999998  0.09693000000000002  1.0000
  H   H97       1.0  0.54375  0.68602  0.34893  1.0000
  H   H98       1.0  0.45625  0.31399  0.34893  1.0000
  H   H99       1.0  0.31399  0.54375  0.34893  1.0000
  H   H100      1.0  0.68602  0.45625  0.34893  1.0000
  H   H101      1.0  0.45625  0.68602  0.6510700000000001  1.0000
  H   H102      1.0  0.54375  0.31399  0.6510700000000001  1.0000
  H   H103      1.0  0.68602  0.54375  0.6510700000000001  1.0000
  H   H104      1.0  0.31399  0.45625  0.6510700000000001  1.0000
  H   H105      1.0  0.04375  0.18602  0.84893  1.0000
  H   H106      1.0  0.9562599999999999  0.81399  0.84893  1.0000
  H   H107      1.0  0.81399  0.04375  0.84893  1.0000
  H   H108      1.0  0.18602  0.9562599999999999  0.84893  1.0000
  H   H109      1.0  0.9562599999999999  0.18602  0.15107  1.0000
  H   H110      1.0  0.04375  0.81399  0.15107  1.0000
  H   H111      1.0  0.18602  0.04375  0.15107  1.0000
  H   H112      1.0  0.81399  0.9562599999999999  0.15107  1.0000
  H   H113      1.0  0.65437  0.72933  0.40761  1.0000
  H   H114      1.0  0.34563  0.27067  0.40761  1.0000
  H   H115      1.0  0.27067  0.65437  0.40761  1.0000
  H   H116      1.0  0.72933  0.34563  0.40761  1.0000
  H   H117      1.0  0.34563  0.72933  0.59239  1.0000
  H   H118      1.0  0.65437  0.27067  0.59239  1.0000
  H   H119      1.0  0.72933  0.65437  0.59239  1.0000
  H   H120      1.0  0.27067  0.34563  0.59239  1.0000
  H   H121      1.0  0.15437  0.22933  0.9076100000000002  1.0000
  H   H122      1.0  0.84564  0.77067  0.9076100000000002  1.0000
  H   H123      1.0  0.77067  0.15437  0.9076100000000002  1.0000
  H   H124      1.0  0.22933  0.84564  0.9076100000000002  1.0000
  H   H125      1.0  0.84564  0.22933  0.09239  1.0000
  H   H126      1.0  0.15437  0.77067  0.09239  1.0000
  H   H127      1.0  0.22933  0.15437  0.09239  1.0000
  H   H128      1.0  0.77067  0.84564  0.09239  1.0000
  H   H129      1.0  0.85014  0.93847  0.4493100000000001  1.0000
  H   H130      1.0  0.14987  0.06153  0.4493100000000001  1.0000
  H   H131      1.0  0.06153  0.85014  0.4493100000000001  1.0000
  H   H132      1.0  0.93847  0.14987  0.4493100000000001  1.0000
  H   H133      1.0  0.14987  0.93847  0.55069  1.0000
  H   H134      1.0  0.85014  0.06153  0.55069  1.0000
  H   H135      1.0  0.93847  0.85014  0.55069  1.0000
  H   H136      1.0  0.06153  0.14987  0.55069  1.0000
  H   H137      1.0  0.35013  0.43847  0.94931  1.0000
  H   H138      1.0  0.64987  0.56153  0.94931  1.0000
  H   H139      1.0  0.56153  0.35013  0.94931  1.0000
  H   H140      1.0  0.43847  0.64987  0.94931  1.0000
  H   H141      1.0  0.64987  0.43847  0.05069000000000001  1.0000
  H   H142      1.0  0.35013  0.56153  0.05069000000000001  1.0000
  H   H143      1.0  0.43847  0.35013  0.05069000000000001  1.0000
  H   H144      1.0  0.56153  0.64987  0.05069000000000001  1.0000
  C   C1        1.0  0.40191  0.75481  0.34145  1.0000
  C   C2        1.0  0.59809  0.24519000000000002  0.34145  1.0000
  C   C3        1.0  0.24519000000000002  0.40191  0.34145  1.0000
  C   C4        1.0  0.75481  0.59809  0.34145  1.0000
  C   C5        1.0  0.59809  0.75481  0.65855  1.0000
  C   C6        1.0  0.40191  0.24519000000000002  0.65855  1.0000
  C   C7        1.0  0.75481  0.40191  0.65855  1.0000
  C   C8        1.0  0.24519000000000002  0.59809  0.65855  1.0000
  C   C9        1.0  0.90191  0.25481  0.84145  1.0000
  C   C10       1.0  0.09808999999999998  0.7452  0.84145  1.0000
  C   C11       1.0  0.7452  0.90191  0.84145  1.0000
  C   C12       1.0  0.25481  0.09808999999999998  0.84145  1.0000
  C   C13       1.0  0.09808999999999998  0.25481  0.15855  1.0000
  C   C14       1.0  0.90191  0.7452  0.15855  1.0000
  C   C15       1.0  0.25481  0.90191  0.15855  1.0000
  C   C16       1.0  0.7452  0.09808999999999998  0.15855  1.0000
  C   C17       1.0  0.75745  0.9072699999999998  0.7799900000000001  1.0000
  C   C18       1.0  0.24255  0.09273  0.7799900000000001  1.0000
  C   C19       1.0  0.09273  0.75745  0.7799900000000001  1.0000
  C   C20       1.0  0.9072699999999998  0.24255  0.7799900000000001  1.0000
  C   C21       1.0  0.24255  0.9072699999999998  0.22001000000000004  1.0000
  C   C22       1.0  0.75745  0.09273  0.22001000000000004  1.0000
  C   C23       1.0  0.9072699999999998  0.75745  0.22001000000000004  1.0000
  C   C24       1.0  0.09273  0.24255  0.22001000000000004  1.0000
  C   C25       1.0  0.25745  0.40727  0.27999  1.0000
  C   C26       1.0  0.74255  0.59273  0.27999  1.0000
  C   C27       1.0  0.59273  0.25745  0.27999  1.0000
  C   C28       1.0  0.40727  0.74255  0.27999  1.0000
  C   C29       1.0  0.74255  0.40727  0.72001  1.0000
  C   C30       1.0  0.25745  0.59273  0.72001  1.0000
  C   C31       1.0  0.40727  0.25745  0.72001  1.0000
  C   C32       1.0  0.59273  0.74255  0.72001  1.0000
  C   C33       1.0  0.79256  0.84535  0.7521300000000001  1.0000
  C   C34       1.0  0.20744  0.15466  0.7521300000000001  1.0000
  C   C35       1.0  0.15466  0.79256  0.7521300000000001  1.0000
  C   C36       1.0  0.84535  0.20744  0.7521300000000001  1.0000
  C   C37       1.0  0.20744  0.84535  0.24787000000000006  1.0000
  C   C38       1.0  0.79256  0.15466  0.24787000000000006  1.0000
  C   C39       1.0  0.84535  0.79256  0.24787000000000006  1.0000
  C   C40       1.0  0.15466  0.20744  0.24787000000000006  1.0000
  C   C41       1.0  0.29256  0.34534  0.25213  1.0000
  C   C42       1.0  0.70745  0.6546599999999999  0.25213  1.0000
  C   C43       1.0  0.6546599999999999  0.29256  0.25213  1.0000
  C   C44       1.0  0.34534  0.70745  0.25213  1.0000
  C   C45       1.0  0.70745  0.34534  0.74787  1.0000
  C   C46       1.0  0.29256  0.6546599999999999  0.74787  1.0000
  C   C47       1.0  0.34534  0.29256  0.74787  1.0000
  C   C48       1.0  0.6546599999999999  0.70745  0.74787  1.0000
  C   C49       1.0  0.79758  0.84482  0.69424  1.0000
  C   C50       1.0  0.20242  0.15518  0.69424  1.0000
  C   C51       1.0  0.15518  0.79758  0.69424  1.0000
  C   C52       1.0  0.84482  0.20242  0.69424  1.0000
  C   C53       1.0  0.20242  0.84482  0.30576000000000003  1.0000
  C   C54       1.0  0.79758  0.15518  0.30576000000000003  1.0000
  C   C55       1.0  0.84482  0.79758  0.30576000000000003  1.0000
  C   C56       1.0  0.15518  0.20242  0.30576000000000003  1.0000
  C   C57       1.0  0.29758  0.34482  0.19424000000000002  1.0000
  C   C58       1.0  0.70242  0.65519  0.19424000000000002  1.0000
  C   C59       1.0  0.65519  0.29758  0.19424000000000002  1.0000
  C   C60       1.0  0.34482  0.70242  0.19424000000000002  1.0000
  C   C61       1.0  0.70242  0.34482  0.8057600000000003  1.0000
  C   C62       1.0  0.29758  0.65519  0.8057600000000003  1.0000
  C   C63       1.0  0.34482  0.29758  0.8057600000000003  1.0000
  C   C64       1.0  0.65519  0.70242  0.8057600000000003  1.0000
  C   C65       1.0  0.76779  0.90664  0.6633  1.0000
  C   C66       1.0  0.23221  0.09336  0.6633  1.0000
  C   C67       1.0  0.09336  0.76779  0.6633  1.0000
  C   C68       1.0  0.90664  0.23221  0.6633  1.0000
  C   C69       1.0  0.23221  0.90664  0.33670000000000005  1.0000
  C   C70       1.0  0.76779  0.09336  0.33670000000000005  1.0000
  C   C71       1.0  0.90664  0.76779  0.33670000000000005  1.0000
  C   C72       1.0  0.09336  0.23221  0.33670000000000005  1.0000
  C   C73       1.0  0.2677899999999999  0.40664  0.16330000000000003  1.0000
  C   C74       1.0  0.73221  0.59336  0.16330000000000003  1.0000
  C   C75       1.0  0.59336  0.2677899999999999  0.16330000000000003  1.0000
  C   C76       1.0  0.40664  0.73221  0.16330000000000003  1.0000
  C   C77       1.0  0.73221  0.40664  0.8367000000000002  1.0000
  C   C78       1.0  0.2677899999999999  0.59336  0.8367000000000002  1.0000
  C   C79       1.0  0.40664  0.2677899999999999  0.8367000000000002  1.0000
  C   C80       1.0  0.59336  0.73221  0.8367000000000002  1.0000
  C   C81       1.0  0.73383  0.9690799999999999  0.6909  1.0000
  C   C82       1.0  0.26617  0.03092  0.6909  1.0000
  C   C83       1.0  0.03092  0.73383  0.6909  1.0000
  C   C84       1.0  0.9690799999999999  0.26617  0.6909  1.0000
  C   C85       1.0  0.26617  0.9690799999999999  0.3091  1.0000
  C   C86       1.0  0.73383  0.03092  0.3091  1.0000
  C   C87       1.0  0.9690799999999999  0.73383  0.3091  1.0000
  C   C88       1.0  0.03092  0.26617  0.3091  1.0000
  C   C89       1.0  0.23383000000000004  0.46908  0.1909  1.0000
  C   C90       1.0  0.76617  0.53092  0.1909  1.0000
  C   C91       1.0  0.53092  0.23383000000000004  0.1909  1.0000
  C   C92       1.0  0.46908  0.76617  0.1909  1.0000
  C   C93       1.0  0.76617  0.46908  0.8091000000000002  1.0000
  C   C94       1.0  0.23383000000000004  0.53092  0.8091000000000002  1.0000
  C   C95       1.0  0.46908  0.23383000000000004  0.8091000000000002  1.0000
  C   C96       1.0  0.53092  0.76617  0.8091000000000002  1.0000
  C   C97       1.0  0.7287  0.96945  0.7488800000000002  1.0000
  C   C98       1.0  0.27131  0.030549999999999997  0.7488800000000002  1.0000
  C   C99       1.0  0.030549999999999997  0.7287  0.7488800000000002  1.0000
  C   C100      1.0  0.96945  0.27131  0.7488800000000002  1.0000
  C   C101      1.0  0.27131  0.96945  0.25112000000000007  1.0000
  C   C102      1.0  0.7287  0.030549999999999997  0.25112000000000007  1.0000
  C   C103      1.0  0.96945  0.7287  0.25112000000000007  1.0000
  C   C104      1.0  0.030549999999999997  0.27131  0.25112000000000007  1.0000
  C   C105      1.0  0.22869  0.46945  0.24888  1.0000
  C   C106      1.0  0.77131  0.5305499999999999  0.24888  1.0000
  C   C107      1.0  0.5305499999999999  0.22869  0.24888  1.0000
  C   C108      1.0  0.46945  0.77131  0.24888  1.0000
  C   C109      1.0  0.77131  0.46945  0.75112  1.0000
  C   C110      1.0  0.22869  0.5305499999999999  0.75112  1.0000
  C   C111      1.0  0.46945  0.22869  0.75112  1.0000
  C   C112      1.0  0.5305499999999999  0.77131  0.75112  1.0000
  C   C113      1.0  0.7714299999999997  0.90633  0.60101  1.0000
  C   C114      1.0  0.22857  0.09367  0.60101  1.0000
  C   C115      1.0  0.09367  0.7714299999999997  0.60101  1.0000
  C   C116      1.0  0.90633  0.22857  0.60101  1.0000
  C   C117      1.0  0.22857  0.90633  0.39899  1.0000
  C   C118      1.0  0.7714299999999997  0.09367  0.39899  1.0000
  C   C119      1.0  0.90633  0.7714299999999997  0.39899  1.0000
  C   C120      1.0  0.09367  0.22857  0.39899  1.0000
  C   C121      1.0  0.27143  0.40632999999999997  0.10101000000000003  1.0000
  C   C122      1.0  0.7285799999999999  0.59367  0.10101000000000003  1.0000
  C   C123      1.0  0.59367  0.27143  0.10101000000000003  1.0000
  C   C124      1.0  0.40632999999999997  0.7285799999999999  0.10101000000000003  1.0000
  C   C125      1.0  0.7285799999999999  0.40632999999999997  0.89899  1.0000
  C   C126      1.0  0.27143  0.59367  0.89899  1.0000
  C   C127      1.0  0.40632999999999997  0.27143  0.89899  1.0000
  C   C128      1.0  0.59367  0.7285799999999999  0.89899  1.0000
  C   C129      1.0  0.52969  0.87682  0.4326100000000001  1.0000
  C   C130      1.0  0.47030999999999995  0.12318  0.4326100000000001  1.0000
  C   C131      1.0  0.12318  0.52969  0.4326100000000001  1.0000
  C   C132      1.0  0.87682  0.47030999999999995  0.4326100000000001  1.0000
  C   C133      1.0  0.47030999999999995  0.87682  0.56739  1.0000
  C   C134      1.0  0.52969  0.12318  0.56739  1.0000
  C   C135      1.0  0.87682  0.52969  0.56739  1.0000
  C   C136      1.0  0.12318  0.47030999999999995  0.56739  1.0000
  C   C137      1.0  0.029690000000000005  0.37682  0.9326100000000003  1.0000
  C   C138      1.0  0.9703100000000001  0.62318  0.9326100000000003  1.0000
  C   C139      1.0  0.62318  0.029690000000000005  0.9326100000000003  1.0000
  C   C140      1.0  0.37682  0.9703100000000001  0.9326100000000003  1.0000
  C   C141      1.0  0.9703100000000001  0.37682  0.06739  1.0000
  C   C142      1.0  0.029690000000000005  0.62318  0.06739  1.0000
  C   C143      1.0  0.37682  0.029690000000000005  0.06739  1.0000
  C   C144      1.0  0.62318  0.9703100000000001  0.06739  1.0000
  C   C145      1.0  0.46608999999999995  0.85026  0.40323  1.0000
  C   C146      1.0  0.53391  0.14975  0.40323  1.0000
  C   C147      1.0  0.14975  0.46608999999999995  0.40323  1.0000
  C   C148      1.0  0.85026  0.53391  0.40323  1.0000
  C   C149      1.0  0.53391  0.85026  0.5967700000000001  1.0000
  C   C150      1.0  0.46608999999999995  0.14975  0.5967700000000001  1.0000
  C   C151      1.0  0.85026  0.46608999999999995  0.5967700000000001  1.0000
  C   C152      1.0  0.14975  0.53391  0.5967700000000001  1.0000
  C   C153      1.0  0.96609  0.35025  0.90323  1.0000
  C   C154      1.0  0.03391  0.64975  0.90323  1.0000
  C   C155      1.0  0.64975  0.96609  0.90323  1.0000
  C   C156      1.0  0.35025  0.03391  0.90323  1.0000
  C   C157      1.0  0.03391  0.35025  0.09677000000000002  1.0000
  C   C158      1.0  0.96609  0.64975  0.09677000000000002  1.0000
  C   C159      1.0  0.35025  0.96609  0.09677000000000002  1.0000
  C   C160      1.0  0.64975  0.03391  0.09677000000000002  1.0000
  C   C161      1.0  0.4713  0.78167  0.3725700000000001  1.0000
  C   C162      1.0  0.5287  0.21833  0.3725700000000001  1.0000
  C   C163      1.0  0.21833  0.4713  0.3725700000000001  1.0000
  C   C164      1.0  0.78167  0.5287  0.3725700000000001  1.0000
  C   C165      1.0  0.5287  0.78167  0.62743  1.0000
  C   C166      1.0  0.4713  0.21833  0.62743  1.0000
  C   C167      1.0  0.78167  0.4713  0.62743  1.0000
  C   C168      1.0  0.21833  0.5287  0.62743  1.0000
  C   C169      1.0  0.97131  0.2816699999999999  0.8725800000000002  1.0000
  C   C170      1.0  0.0287  0.71833  0.8725800000000002  1.0000
  C   C171      1.0  0.71833  0.97131  0.8725800000000002  1.0000
  C   C172      1.0  0.2816699999999999  0.0287  0.8725800000000002  1.0000
  C   C173      1.0  0.0287  0.2816699999999999  0.12743  1.0000
  C   C174      1.0  0.97131  0.71833  0.12743  1.0000
  C   C175      1.0  0.2816699999999999  0.97131  0.12743  1.0000
  C   C176      1.0  0.71833  0.0287  0.12743  1.0000
  C   C177      1.0  0.53972  0.73887  0.37307000000000007  1.0000
  C   C178      1.0  0.46028  0.26114  0.37307000000000007  1.0000
  C   C179      1.0  0.26114  0.53972  0.37307000000000007  1.0000
  C   C180      1.0  0.73887  0.46028  0.37307000000000007  1.0000
  C   C181      1.0  0.46028  0.73887  0.62693  1.0000
  C   C182      1.0  0.53972  0.26114  0.62693  1.0000
  C   C183      1.0  0.73887  0.53972  0.62693  1.0000
  C   C184      1.0  0.26114  0.46028  0.62693  1.0000
  C   C185      1.0  0.03972  0.23887000000000003  0.87307  1.0000
  C   C186      1.0  0.96028  0.76114  0.87307  1.0000
  C   C187      1.0  0.76114  0.03972  0.87307  1.0000
  C   C188      1.0  0.23887000000000003  0.96028  0.87307  1.0000
  C   C189      1.0  0.96028  0.23887000000000003  0.12693  1.0000
  C   C190      1.0  0.03972  0.76114  0.12693  1.0000
  C   C191      1.0  0.23887000000000003  0.03972  0.12693  1.0000
  C   C192      1.0  0.76114  0.96028  0.12693  1.0000
  C   C193      1.0  0.60167  0.7629199999999998  0.4056000000000001  1.0000
  C   C194      1.0  0.39834  0.23708999999999997  0.4056000000000001  1.0000
  C   C195      1.0  0.23708999999999997  0.60167  0.4056000000000001  1.0000
  C   C196      1.0  0.7629199999999998  0.39834  0.4056000000000001  1.0000
  C   C197      1.0  0.39834  0.7629199999999998  0.5944000000000002  1.0000
  C   C198      1.0  0.60167  0.23708999999999997  0.5944000000000002  1.0000
  C   C199      1.0  0.7629199999999998  0.60167  0.5944000000000002  1.0000
  C   C200      1.0  0.23708999999999997  0.39834  0.5944000000000002  1.0000
  C   C201      1.0  0.10166  0.26292  0.9056  1.0000
  C   C202      1.0  0.89834  0.7370899999999998  0.9056  1.0000
  C   C203      1.0  0.7370899999999998  0.10166  0.9056  1.0000
  C   C204      1.0  0.26292  0.89834  0.9056  1.0000
  C   C205      1.0  0.89834  0.26292  0.09440000000000003  1.0000
  C   C206      1.0  0.10166  0.7370899999999998  0.09440000000000003  1.0000
  C   C207      1.0  0.26292  0.10166  0.09440000000000003  1.0000
  C   C208      1.0  0.7370899999999998  0.89834  0.09440000000000003  1.0000
  C   C209      1.0  0.59707  0.83261  0.43485000000000007  1.0000
  C   C210      1.0  0.40293  0.16739  0.43485000000000007  1.0000
  C   C211      1.0  0.16739  0.59707  0.43485000000000007  1.0000
  C   C212      1.0  0.83261  0.40293  0.43485000000000007  1.0000
  C   C213      1.0  0.40293  0.83261  0.56515  1.0000
  C   C214      1.0  0.59707  0.16739  0.56515  1.0000
  C   C215      1.0  0.83261  0.59707  0.56515  1.0000
  C   C216      1.0  0.16739  0.40293  0.56515  1.0000
  C   C217      1.0  0.09707  0.33261  0.93485  1.0000
  C   C218      1.0  0.90293  0.6674  0.93485  1.0000
  C   C219      1.0  0.6674  0.09707  0.93485  1.0000
  C   C220      1.0  0.33261  0.90293  0.93485  1.0000
  C   C221      1.0  0.90293  0.33261  0.06515  1.0000
  C   C222      1.0  0.09707  0.6674  0.06515  1.0000
  C   C223      1.0  0.33261  0.09707  0.06515  1.0000
  C   C224      1.0  0.6674  0.90293  0.06515  1.0000
  C   C225      1.0  0.66484  0.86044  0.4669900000000001  1.0000
  C   C226      1.0  0.33517  0.13956  0.4669900000000001  1.0000
  C   C227      1.0  0.13956  0.66484  0.4669900000000001  1.0000
  C   C228      1.0  0.86044  0.33517  0.4669900000000001  1.0000
  C   C229      1.0  0.33517  0.86044  0.53301  1.0000
  C   C230      1.0  0.66484  0.13956  0.53301  1.0000
  C   C231      1.0  0.86044  0.66484  0.53301  1.0000
  C   C232      1.0  0.13956  0.33517  0.53301  1.0000
  C   C233      1.0  0.16483  0.3604399999999999  0.967  1.0000
  C   C234      1.0  0.83517  0.63956  0.967  1.0000
  C   C235      1.0  0.63956  0.16483  0.967  1.0000
  C   C236      1.0  0.3604399999999999  0.83517  0.967  1.0000
  C   C237      1.0  0.83517  0.3604399999999999  0.03301  1.0000
  C   C238      1.0  0.16483  0.63956  0.03301  1.0000
  C   C239      1.0  0.3604399999999999  0.16483  0.03301  1.0000
  C   C240      1.0  0.63956  0.83517  0.03301  1.0000
  O   O1        1.0  0.79964  0.84726  0.5773600000000001  1.0000
  O   O2        1.0  0.20036  0.15273999999999993  0.5773600000000001  1.0000
  O   O3        1.0  0.15273999999999993  0.79964  0.5773600000000001  1.0000
  O   O4        1.0  0.84726  0.20036  0.5773600000000001  1.0000
  O   O5        1.0  0.20036  0.84726  0.42264  1.0000
  O   O6        1.0  0.79964  0.15273999999999993  0.42264  1.0000
  O   O7        1.0  0.84726  0.79964  0.42264  1.0000
  O   O8        1.0  0.15273999999999993  0.20036  0.42264  1.0000
  O   O9        1.0  0.29964  0.34726  0.07736000000000001  1.0000
  O   O10       1.0  0.7003699999999999  0.65275  0.07736000000000001  1.0000
  O   O11       1.0  0.65275  0.29964  0.07736000000000001  1.0000
  O   O12       1.0  0.34726  0.7003699999999999  0.07736000000000001  1.0000
  O   O13       1.0  0.7003699999999999  0.34726  0.92264  1.0000
  O   O14       1.0  0.29964  0.65275  0.92264  1.0000
  O   O15       1.0  0.34726  0.29964  0.92264  1.0000
  O   O16       1.0  0.65275  0.7003699999999999  0.92264  1.0000
  O   O17       1.0  0.74599  0.9663199999999998  0.57639  1.0000
  O   O18       1.0  0.25400999999999996  0.03368  0.57639  1.0000
  O   O19       1.0  0.03368  0.74599  0.57639  1.0000
  O   O20       1.0  0.9663199999999998  0.25400999999999996  0.57639  1.0000
  O   O21       1.0  0.25400999999999996  0.9663199999999998  0.42362000000000005  1.0000
  O   O22       1.0  0.74599  0.03368  0.42362000000000005  1.0000
  O   O23       1.0  0.9663199999999998  0.74599  0.42362000000000005  1.0000
  O   O24       1.0  0.03368  0.25400999999999996  0.42362000000000005  1.0000
  O   O25       1.0  0.24599000000000001  0.46631999999999996  0.07638  1.0000
  O   O26       1.0  0.75401  0.53368  0.07638  1.0000
  O   O27       1.0  0.53368  0.24599000000000001  0.07638  1.0000
  O   O28       1.0  0.46631999999999996  0.75401  0.07638  1.0000
  O   O29       1.0  0.75401  0.46631999999999996  0.9236200000000002  1.0000
  O   O30       1.0  0.24599000000000001  0.53368  0.9236200000000002  1.0000
  O   O31       1.0  0.46631999999999996  0.24599000000000001  0.9236200000000002  1.0000
  O   O32       1.0  0.53368  0.75401  0.9236200000000002  1.0000
  O   O33       1.0  0.6653  0.93146  0.4807100000000001  1.0000
  O   O34       1.0  0.3346999999999999  0.06855  0.4807100000000001  1.0000
  O   O35       1.0  0.06855  0.6653  0.4807100000000001  1.0000
  O   O36       1.0  0.93146  0.3346999999999999  0.4807100000000001  1.0000
  O   O37       1.0  0.3346999999999999  0.93146  0.51929  1.0000
  O   O38       1.0  0.6653  0.06855  0.51929  1.0000
  O   O39       1.0  0.93146  0.6653  0.51929  1.0000
  O   O40       1.0  0.06855  0.3346999999999999  0.51929  1.0000
  O   O41       1.0  0.1653  0.43145  0.9807100000000002  1.0000
  O   O42       1.0  0.8347  0.56855  0.9807100000000002  1.0000
  O   O43       1.0  0.56855  0.1653  0.9807100000000002  1.0000
  O   O44       1.0  0.43145  0.8347  0.9807100000000002  1.0000
  O   O45       1.0  0.8347  0.43145  0.019290000000000005  1.0000
  O   O46       1.0  0.1653  0.56855  0.019290000000000005  1.0000
  O   O47       1.0  0.43145  0.1653  0.019290000000000005  1.0000
  O   O48       1.0  0.56855  0.8347  0.019290000000000005  1.0000
  O   O49       1.0  0.7169399999999998  0.8114  0.47803  1.0000
  O   O50       1.0  0.28306  0.18859999999999996  0.47803  1.0000
  O   O51       1.0  0.18859999999999996  0.7169399999999998  0.47803  1.0000
  O   O52       1.0  0.8114  0.28306  0.47803  1.0000
  O   O53       1.0  0.28306  0.8114  0.5219700000000002  1.0000
  O   O54       1.0  0.7169399999999998  0.18859999999999996  0.5219700000000002  1.0000
  O   O55       1.0  0.8114  0.7169399999999998  0.5219700000000002  1.0000
  O   O56       1.0  0.18859999999999996  0.28306  0.5219700000000002  1.0000
  O   O57       1.0  0.21694  0.3114  0.97803  1.0000
  O   O58       1.0  0.78306  0.6886  0.97803  1.0000
  O   O59       1.0  0.6886  0.21694  0.97803  1.0000
  O   O60       1.0  0.3114  0.78306  0.97803  1.0000
  O   O61       1.0  0.78306  0.3114  0.02197  1.0000
  O   O62       1.0  0.21694  0.6886  0.02197  1.0000
  O   O63       1.0  0.3114  0.21694  0.02197  1.0000
  O   O64       1.0  0.6886  0.78306  0.02197  1.0000
  O   O65       1.0  0.82171  0.9266799999999998  0.48296000000000006  1.0000
  O   O66       1.0  0.17829  0.07333  0.48296000000000006  1.0000
  O   O67       1.0  0.07333  0.82171  0.48296000000000006  1.0000
  O   O68       1.0  0.9266799999999998  0.17829  0.48296000000000006  1.0000
  O   O69       1.0  0.17829  0.9266799999999998  0.51704  1.0000
  O   O70       1.0  0.82171  0.07333  0.51704  1.0000
  O   O71       1.0  0.9266799999999998  0.82171  0.51704  1.0000
  O   O72       1.0  0.07333  0.17829  0.51704  1.0000
  O   O73       1.0  0.32171  0.42668  0.9829600000000002  1.0000
  O   O74       1.0  0.6782899999999998  0.57333  0.9829600000000002  1.0000
  O   O75       1.0  0.57333  0.32171  0.9829600000000002  1.0000
  O   O76       1.0  0.42668  0.6782899999999998  0.9829600000000002  1.0000
  O   O77       1.0  0.6782899999999998  0.42668  0.01704  1.0000
  O   O78       1.0  0.32171  0.57333  0.01704  1.0000
  O   O79       1.0  0.42668  0.32171  0.01704  1.0000
  O   O80       1.0  0.57333  0.6782899999999998  0.01704  1.0000
  O   O81       1.0  0.34046  0.7465299999999999  0.3665100000000001  1.0000
  O   O82       1.0  0.65955  0.25348  0.3665100000000001  1.0000
  O   O83       1.0  0.25348  0.34046  0.3665100000000001  1.0000
  O   O84       1.0  0.7465299999999999  0.65955  0.3665100000000001  1.0000
  O   O85       1.0  0.65955  0.7465299999999999  0.63349  1.0000
  O   O86       1.0  0.34046  0.25348  0.63349  1.0000
  O   O87       1.0  0.7465299999999999  0.34046  0.63349  1.0000
  O   O88       1.0  0.25348  0.65955  0.63349  1.0000
  O   O89       1.0  0.84046  0.24652999999999997  0.86651  1.0000
  O   O90       1.0  0.15954  0.75348  0.86651  1.0000
  O   O91       1.0  0.75348  0.84046  0.86651  1.0000
  O   O92       1.0  0.24652999999999997  0.15954  0.86651  1.0000
  O   O93       1.0  0.15954  0.24652999999999997  0.13349000000000003  1.0000
  O   O94       1.0  0.84046  0.75348  0.13349000000000003  1.0000
  O   O95       1.0  0.24652999999999997  0.84046  0.13349000000000003  1.0000
  O   O96       1.0  0.75348  0.15954  0.13349000000000003  1.0000
