data_image0
_chemical_formula_structural       O32C32Cd8C16H16C17F3CF3CF3CF3CF3CF3CF3CF3CF3CF3CF3CF3CF3CF3CF3CF3
_chemical_formula_sum              "O32 C80 Cd8 H16 F48"
_cell_length_a       15.350052
_cell_length_b       15.350052
_cell_length_c       13.945295
_cell_angle_alpha    90.0
_cell_angle_beta     90.0
_cell_angle_gamma    90.0

_space_group_name_H-M_alt    "P 1"
_space_group_IT_number       1

loop_
  _space_group_symop_operation_xyz
  'x, y, z'

loop_
  _atom_site_type_symbol
  _atom_site_label
  _atom_site_symmetry_multiplicity
  _atom_site_fract_x
  _atom_site_fract_y
  _atom_site_fract_z
  _atom_site_occupancy
  O   O1        1.0  0.3896560000000001  0.591911  0.103673  1.0000
  O   O2        1.0  0.610344  0.40808900000000004  0.8961469999999998  1.0000
  O   O3        1.0  0.591911  0.610344  0.103673  1.0000
  O   O4        1.0  0.40808900000000004  0.3896560000000001  0.8961469999999998  1.0000
  O   O5        1.0  0.610344  0.40808900000000004  0.103673  1.0000
  O   O6        1.0  0.3896560000000001  0.591911  0.8961469999999998  1.0000
  O   O7        1.0  0.40808900000000004  0.3896560000000001  0.103673  1.0000
  O   O8        1.0  0.591911  0.610344  0.8961469999999998  1.0000
  O   O9        1.0  0.889656  0.09191100000000003  0.603673  1.0000
  O   O10       1.0  0.11034400000000003  0.908089  0.396147  1.0000
  O   O11       1.0  0.09191100000000003  0.11034400000000003  0.603673  1.0000
  O   O12       1.0  0.908089  0.889656  0.396147  1.0000
  O   O13       1.0  0.11034400000000003  0.908089  0.603673  1.0000
  O   O14       1.0  0.889656  0.09191100000000003  0.396147  1.0000
  O   O15       1.0  0.908089  0.889656  0.603673  1.0000
  O   O16       1.0  0.09191100000000003  0.11034400000000003  0.396147  1.0000
  O   O17       1.0  0.2536690000000001  0.543197  0.120029  1.0000
  O   O18       1.0  0.74633  0.4568040000000001  0.879789  1.0000
  O   O19       1.0  0.543197  0.7463310000000002  0.120029  1.0000
  O   O20       1.0  0.456803  0.25367  0.879789  1.0000
  O   O21       1.0  0.74633  0.456803  0.120029  1.0000
  O   O22       1.0  0.25367  0.5431960000000002  0.879789  1.0000
  O   O23       1.0  0.456803  0.2536690000000001  0.120029  1.0000
  O   O24       1.0  0.5431960000000002  0.74633  0.879789  1.0000
  O   O25       1.0  0.7536690000000003  0.043197  0.620029  1.0000
  O   O26       1.0  0.24633000000000005  0.9568040000000002  0.379789  1.0000
  O   O27       1.0  0.043197  0.246331  0.620029  1.0000
  O   O28       1.0  0.9568040000000002  0.75367  0.379789  1.0000
  O   O29       1.0  0.24633000000000005  0.9568030000000002  0.620029  1.0000
  O   O30       1.0  0.75367  0.04319600000000001  0.379789  1.0000
  O   O31       1.0  0.9568030000000002  0.7536690000000003  0.620029  1.0000
  O   O32       1.0  0.04319600000000001  0.24633000000000005  0.379789  1.0000
  C   C1        1.0  0.311079  0.604072  0.138858  1.0000
  C   C2        1.0  0.688921  0.3959290000000001  0.8609599999999998  1.0000
  C   C3        1.0  0.604072  0.688921  0.138858  1.0000
  C   C4        1.0  0.3959290000000001  0.311079  0.8609599999999998  1.0000
  C   C5        1.0  0.688921  0.395928  0.138858  1.0000
  C   C6        1.0  0.311079  0.6040710000000002  0.8609599999999998  1.0000
  C   C7        1.0  0.395928  0.311079  0.138858  1.0000
  C   C8        1.0  0.6040710000000002  0.688921  0.8609599999999998  1.0000
  C   C9        1.0  0.811079  0.104072  0.638858  1.0000
  C   C10       1.0  0.188921  0.8959290000000002  0.36096  1.0000
  C   C11       1.0  0.104072  0.188921  0.638858  1.0000
  C   C12       1.0  0.8959290000000002  0.811079  0.36096  1.0000
  C   C13       1.0  0.188921  0.8959280000000002  0.638858  1.0000
  C   C14       1.0  0.811079  0.10407100000000002  0.36096  1.0000
  C   C15       1.0  0.8959280000000002  0.811079  0.638858  1.0000
  C   C16       1.0  0.10407100000000002  0.188921  0.36096  1.0000
  C   C17       1.0  0.6809750000000002  0.714872  0.803783  1.0000
  C   C18       1.0  0.319025  0.285127  0.196036  1.0000
  C   C19       1.0  0.714872  0.319025  0.803783  1.0000
  C   C20       1.0  0.285127  0.6809750000000002  0.196036  1.0000
  C   C21       1.0  0.319025  0.2851280000000001  0.803783  1.0000
  C   C22       1.0  0.6809750000000002  0.7148730000000002  0.196036  1.0000
  C   C23       1.0  0.2851280000000001  0.6809750000000002  0.803783  1.0000
  C   C24       1.0  0.7148730000000002  0.319025  0.196036  1.0000
  C   C25       1.0  0.18097500000000002  0.21487200000000006  0.303783  1.0000
  C   C26       1.0  0.8190250000000002  0.7851270000000002  0.696036  1.0000
  C   C27       1.0  0.21487200000000006  0.8190250000000002  0.303783  1.0000
  C   C28       1.0  0.7851270000000002  0.18097500000000002  0.696036  1.0000
  C   C29       1.0  0.8190250000000002  0.785128  0.303783  1.0000
  C   C30       1.0  0.18097500000000002  0.214873  0.696036  1.0000
  C   C31       1.0  0.785128  0.18097500000000002  0.303783  1.0000
  C   C32       1.0  0.214873  0.8190250000000002  0.696036  1.0000
  Cd  Cd1       1.0  0.326231  0.470708  0.999909  1.0000
  Cd  Cd2       1.0  0.673769  0.529292  0.999909  1.0000
  Cd  Cd3       1.0  0.470708  0.673769  0.999909  1.0000
  Cd  Cd4       1.0  0.529292  0.326231  0.999909  1.0000
  Cd  Cd5       1.0  0.826231  0.970708  0.499909  1.0000
  Cd  Cd6       1.0  0.173769  0.029292000000000006  0.499909  1.0000
  Cd  Cd7       1.0  0.9707070000000002  0.173769  0.499909  1.0000
  Cd  Cd8       1.0  0.029292000000000006  0.826231  0.499909  1.0000
  C   C33       1.0  0.7847130000000002  0.70412  0.675773  1.0000
  C   C34       1.0  0.21528700000000006  0.295879  0.324046  1.0000
  C   C35       1.0  0.70412  0.21528700000000006  0.675773  1.0000
  C   C36       1.0  0.295879  0.7847130000000002  0.324046  1.0000
  C   C37       1.0  0.21528700000000006  0.29588000000000003  0.675773  1.0000
  C   C38       1.0  0.7847130000000002  0.7041210000000002  0.324046  1.0000
  C   C39       1.0  0.29588000000000003  0.7847130000000002  0.675773  1.0000
  C   C40       1.0  0.7041210000000002  0.21528700000000006  0.324046  1.0000
  C   C41       1.0  0.28471300000000005  0.20412000000000005  0.17577299999999996  1.0000
  C   C42       1.0  0.7152870000000002  0.7958790000000002  0.824046  1.0000
  C   C43       1.0  0.20412000000000005  0.7152870000000002  0.17577299999999996  1.0000
  C   C44       1.0  0.7958790000000002  0.28471300000000005  0.824046  1.0000
  C   C45       1.0  0.7152870000000002  0.79588  0.17577299999999996  1.0000
  C   C46       1.0  0.28471300000000005  0.20412100000000005  0.824046  1.0000
  C   C47       1.0  0.79588  0.28471300000000005  0.17577299999999996  1.0000
  C   C48       1.0  0.20412100000000005  0.7152870000000002  0.824046  1.0000
  H   H1        1.0  0.8113230000000002  0.6679920000000003  0.616035  1.0000
  H   H2        1.0  0.18867600000000007  0.3320070000000001  0.383784  1.0000
  H   H3        1.0  0.6679920000000003  0.18867700000000007  0.616035  1.0000
  H   H4        1.0  0.3320070000000001  0.811324  0.383784  1.0000
  H   H5        1.0  0.18867700000000007  0.332008  0.616035  1.0000
  H   H6        1.0  0.8113230000000002  0.6679930000000002  0.383784  1.0000
  H   H7        1.0  0.332008  0.8113230000000002  0.616035  1.0000
  H   H8        1.0  0.6679930000000002  0.18867600000000007  0.383784  1.0000
  H   H9        1.0  0.311323  0.16799200000000006  0.116035  1.0000
  H   H10       1.0  0.688676  0.8320070000000003  0.883784  1.0000
  H   H11       1.0  0.16799200000000006  0.6886770000000002  0.116035  1.0000
  H   H12       1.0  0.8320070000000003  0.311323  0.883784  1.0000
  H   H13       1.0  0.6886770000000002  0.8320080000000002  0.116035  1.0000
  H   H14       1.0  0.311323  0.167993  0.883784  1.0000
  H   H15       1.0  0.8320080000000002  0.311323  0.116035  1.0000
  H   H16       1.0  0.167993  0.6886770000000002  0.883784  1.0000
  C   C49       1.0  0.715944  0.668393  0.726414  1.0000
  C   C50       1.0  0.284056  0.331606  0.273405  1.0000
  C   C51       1.0  0.668393  0.284056  0.726414  1.0000
  C   C52       1.0  0.331606  0.715944  0.273405  1.0000
  C   C53       1.0  0.284056  0.3316070000000001  0.726414  1.0000
  C   C54       1.0  0.715944  0.6683940000000003  0.273405  1.0000
  C   C55       1.0  0.3316070000000001  0.715944  0.726414  1.0000
  C   C56       1.0  0.6683940000000003  0.284056  0.273405  1.0000
  C   C57       1.0  0.215944  0.168393  0.226414  1.0000
  C   C58       1.0  0.784056  0.8316060000000002  0.773405  1.0000
  C   C59       1.0  0.168393  0.784056  0.226414  1.0000
  C   C60       1.0  0.8316060000000002  0.215944  0.773405  1.0000
  C   C61       1.0  0.784056  0.831607  0.226414  1.0000
  C   C62       1.0  0.215944  0.168394  0.773405  1.0000
  C   C63       1.0  0.831607  0.215944  0.226414  1.0000
  C   C64       1.0  0.168394  0.784056  0.773405  1.0000
  C   C65       1.0  0.6819530000000003  0.584415  0.68599  1.0000
  F   F1        1.0  0.7479190000000002  0.523157  0.686834  1.0000
  F   F2        1.0  0.6571980000000002  0.5989400000000002  0.592412  1.0000
  F   F3        1.0  0.61133  0.551439  0.733947  1.0000
  C   C66       1.0  0.318046  0.4155850000000001  0.313829  1.0000
  F   F4        1.0  0.388669  0.44856  0.265874  1.0000
  F   F5        1.0  0.342799  0.4010590000000001  0.407408  1.0000
  F   F6        1.0  0.2520790000000001  0.4768420000000001  0.312985  1.0000
  C   C67       1.0  0.584415  0.318047  0.68599  1.0000
  F   F7        1.0  0.523157  0.252081  0.686834  1.0000
  F   F8        1.0  0.5989400000000002  0.3428020000000001  0.592412  1.0000
  F   F9        1.0  0.551439  0.38867  0.733947  1.0000
  C   C68       1.0  0.4155840000000001  0.681954  0.313829  1.0000
  F   F10       1.0  0.44856  0.611331  0.265874  1.0000
  F   F11       1.0  0.4010590000000001  0.6572  0.407408  1.0000
  F   F12       1.0  0.4768420000000001  0.747921  0.312985  1.0000
  C   C69       1.0  0.318047  0.4155850000000001  0.68599  1.0000
  F   F13       1.0  0.252081  0.47684300000000013  0.686834  1.0000
  F   F14       1.0  0.3428020000000001  0.4010590000000001  0.592412  1.0000
  F   F15       1.0  0.38867  0.44856100000000004  0.733947  1.0000
  C   C70       1.0  0.681954  0.584415  0.313829  1.0000
  F   F16       1.0  0.611331  0.55144  0.265874  1.0000
  F   F17       1.0  0.6572  0.5989410000000002  0.407408  1.0000
  F   F18       1.0  0.74792  0.5231580000000002  0.312985  1.0000
  C   C71       1.0  0.4155850000000001  0.6819530000000003  0.68599  1.0000
  F   F19       1.0  0.47684300000000013  0.7479190000000002  0.686834  1.0000
  F   F20       1.0  0.4010590000000001  0.6571980000000002  0.592412  1.0000
  F   F21       1.0  0.44856100000000004  0.61133  0.733947  1.0000
  C   C72       1.0  0.584415  0.318046  0.313829  1.0000
  F   F22       1.0  0.55144  0.388669  0.265874  1.0000
  F   F23       1.0  0.5989410000000002  0.342799  0.407408  1.0000
  F   F24       1.0  0.5231580000000002  0.2520790000000001  0.312985  1.0000
  C   C73       1.0  0.181953  0.08441500000000003  0.18598999999999993  1.0000
  F   F25       1.0  0.24791900000000006  0.023157  0.186834  1.0000
  F   F26       1.0  0.15719800000000006  0.09894000000000003  0.092412  1.0000
  F   F27       1.0  0.11133  0.05143900000000001  0.233947  1.0000
  C   C74       1.0  0.8180460000000003  0.9155840000000002  0.8138289999999999  1.0000
  F   F28       1.0  0.8886690000000002  0.9485600000000002  0.765874  1.0000
  F   F29       1.0  0.8428  0.9010590000000003  0.907408  1.0000
  F   F30       1.0  0.752079  0.9768420000000002  0.812985  1.0000
  C   C75       1.0  0.08441500000000003  0.8180470000000002  0.18598999999999993  1.0000
  F   F31       1.0  0.023157  0.7520810000000002  0.186834  1.0000
  F   F32       1.0  0.09894000000000003  0.8428020000000003  0.092412  1.0000
  F   F33       1.0  0.05143900000000001  0.88867  0.233947  1.0000
  C   C76       1.0  0.9155840000000002  0.18195400000000006  0.8138289999999999  1.0000
  F   F34       1.0  0.9485600000000002  0.11133100000000003  0.765874  1.0000
  F   F35       1.0  0.9010590000000003  0.1572  0.907408  1.0000
  F   F36       1.0  0.9768420000000002  0.247921  0.812985  1.0000
  C   C77       1.0  0.8180470000000002  0.9155850000000001  0.18598999999999993  1.0000
  F   F37       1.0  0.7520810000000002  0.9768430000000002  0.186834  1.0000
  F   F38       1.0  0.8428020000000003  0.9010600000000002  0.092412  1.0000
  F   F39       1.0  0.88867  0.948561  0.233947  1.0000
  C   C78       1.0  0.18195400000000006  0.08441500000000003  0.8138289999999999  1.0000
  F   F40       1.0  0.11133100000000003  0.051440000000000013  0.765874  1.0000
  F   F41       1.0  0.1572  0.098941  0.907408  1.0000
  F   F42       1.0  0.247921  0.02315800000000001  0.812985  1.0000
  C   C79       1.0  0.9155850000000001  0.181953  0.18598999999999993  1.0000
  F   F43       1.0  0.9768430000000002  0.24791900000000006  0.186834  1.0000
  F   F44       1.0  0.9010590000000003  0.15719800000000006  0.092412  1.0000
  F   F45       1.0  0.948561  0.11133  0.233947  1.0000
  C   C80       1.0  0.08441500000000003  0.8180460000000003  0.8138289999999999  1.0000
  F   F46       1.0  0.051440000000000013  0.8886690000000002  0.765874  1.0000
  F   F47       1.0  0.098941  0.8427990000000002  0.907408  1.0000
  F   F48       1.0  0.02315800000000001  0.752079  0.812985  1.0000
