data_image0
_chemical_formula_structural       C2Ni2O4HC2NiO4HC2NiO3C4NiO4C12H2C11H6C10H5C14H7CHC3H2CHC2H2O2CO5H3C3HC4H2C2HC2H3CNiO3H2C4HC2NiO2NiC2HC2HC2ONiO2HC5H2CH4OHO2CO4CHC8NiO2CO2C2OH2CH2CH2CHCOC2HC2H2C5Ni2O2CHCHCHCOCO2HO2H2C3Ni2O8HC3NiO8HC4NiO5C2Ni2O7H3C11H4C10H6CHC14H7C14H8C14H9C14H6
_chemical_formula_sum              "C216 Ni18 O78 H114"
_cell_length_a       12.26983
_cell_length_b       10.25513
_cell_length_c       67.6132
_cell_angle_alpha    89.49079000000002
_cell_angle_beta     89.49612
_cell_angle_gamma    119.47886999999999

_symmetry_space_group_name_H-M    'P 1'
_symmetry_Int_Tables_number       1

loop_
  _symmetry_equiv_pos_as_xyz
  'x,y,z'

loop_
  _atom_site_type_symbol
  _atom_site_label
  _atom_site_symmetry_multiplicity
  _atom_site_fract_x
  _atom_site_fract_y
  _atom_site_fract_z
  _atom_site_occupancy
  C   C1        1.0  0.28261  0.12486  0.724  1.0000
  C   C2        1.0  0.20358000000000004  0.07850999999999998  0.66502  1.0000
  Ni  Ni1       1.0  0.15112999999999996  0.8541999999999998  0.69754  1.0000
  Ni  Ni2       1.0  0.08054  0.12567  0.69969  1.0000
  O   O1        1.0  0.29924  0.04483999999999999  0.71013  1.0000
  O   O2        1.0  0.21507  0.19176  0.72059  1.0000
  O   O3        1.0  0.20039999999999988  0.9520099999999999  0.66952  1.0000
  O   O4        1.0  0.21706999999999996  0.17369999999999994  0.67899  1.0000
  H   H1        1.0  0.052329999999999995  0.9303099999999999  0.71842  1.0000
  C   C3        1.0  0.99339  0.4487  0.40903  1.0000
  C   C4        1.0  0.08830999999999999  0.14864999999999995  0.4452  1.0000
  Ni  Ni3       1.0  0.16371  0.31701  0.40634  1.0000
  O   O5        1.0  0.046930000000000006  0.53885  0.42393  1.0000
  O   O6        1.0  0.99943  0.32351  0.40725  1.0000
  O   O7        1.0  0.09913  0.13965  0.42561  1.0000
  O   O8        1.0  0.1862  0.23975  0.45624  1.0000
  H   H2        1.0  0.15679  0.40915  0.43616  1.0000
  C   C5        1.0  0.27437  0.67876  0.0193  1.0000
  C   C6        1.0  0.50943  0.96317  0.9597899999999999  1.0000
  Ni  Ni4       1.0  0.47817  0.9847399999999998  0.0028  1.0000
  O   O9        1.0  0.34798999999999997  0.6201799999999998  0.01628  1.0000
  O   O10       1.0  0.3069299999999999  0.8178699999999998  0.0132  1.0000
  O   O11       1.0  0.42817000000000005  0.9330799999999999  0.9746600000000001  1.0000
  C   C7        1.0  0.78686  0.17771  0.18103  1.0000
  C   C8        1.0  0.73051  0.27229  0.23594  1.0000
  C   C9        1.0  0.91895  0.90977  0.19964  1.0000
  C   C10       1.0  0.82273  0.9308099999999999  0.2551  1.0000
  Ni  Ni5       1.0  0.86954  0.12418999999999998  0.22002  1.0000
  O   O12       1.0  0.95529  0.005219999999999998  0.21413  1.0000
  O   O13       1.0  0.87592  0.16777999999999996  0.19059  1.0000
  O   O14       1.0  0.87145  0.07292  0.24896  1.0000
  O   O15       1.0  0.82605  0.28848  0.22499  1.0000
  C   C11       1.0  0.16822  0.60272  0.03338  1.0000
  C   C12       1.0  0.15010999999999994  0.6863399999999997  0.04808  1.0000
  C   C13       1.0  0.07206999999999991  0.6139799999999997  0.06436  1.0000
  C   C14       1.0  0.004429999999999999  0.45737  0.06542  1.0000
  C   C15       1.0  0.011979999999999946  0.37347999999999987  0.04974  1.0000
  C   C16       1.0  0.09593  0.44566  0.03396  1.0000
  C   C17       1.0  0.9441200000000002  0.38418999999999986  0.08378  1.0000
  C   C18       1.0  0.89498  0.32753  0.09943  1.0000
  C   C19       1.0  0.84543  0.26483  0.11872999999999999  1.0000
  C   C20       1.0  0.88713  0.17578  0.12818  1.0000
  C   C21       1.0  0.8633400000000001  0.14234  0.14835  1.0000
  C   C22       1.0  0.79787  0.19826  0.15931  1.0000
  H   H3        1.0  0.94144  0.13621999999999998  0.12003  1.0000
  H   H4        1.0  0.8964100000000003  0.07362000000000002  0.15547  1.0000
  C   C23       1.0  0.46639  0.016230000000000005  0.10025  1.0000
  C   C24       1.0  0.3715200000000001  0.05452  0.09998  1.0000
  C   C25       1.0  0.33874  0.09497  0.08209  1.0000
  C   C26       1.0  0.29615  0.03102  0.1174  1.0000
  C   C27       1.0  0.23345000000000005  0.01102  0.13206  1.0000
  C   C28       1.0  0.1574800000000001  0.98425  0.1495  1.0000
  C   C29       1.0  0.18055  0.10278  0.162  1.0000
  C   C30       1.0  0.10543999999999999  0.07740999999999998  0.17879  1.0000
  C   C31       1.0  0.0060699999999999825  0.9329299999999999  0.18316  1.0000
  C   C32       1.0  0.9855000000000002  0.8134699999999998  0.17087  1.0000
  C   C33       1.0  0.060300000000000006  0.83942  0.154  1.0000
  H   H5        1.0  0.49489000000000005  0.98951  0.11413  1.0000
  H   H6        1.0  0.26704999999999995  0.12751  0.08182  1.0000
  H   H7        1.0  0.25588  0.21491999999999997  0.15860999999999997  1.0000
  H   H8        1.0  0.12227999999999999  0.17078999999999997  0.18809  1.0000
  H   H9        1.0  0.91122  0.7009  0.17431  1.0000
  H   H10       1.0  0.04238999999999988  0.7470999999999998  0.14439  1.0000
  C   C34       1.0  0.75231  0.38923999999999986  0.25035  1.0000
  C   C35       1.0  0.8504600000000001  0.53626  0.24693999999999997  1.0000
  C   C36       1.0  0.9100000000000001  0.62873  0.26295  1.0000
  C   C37       1.0  0.8704799999999999  0.5748099999999999  0.28226  1.0000
  C   C38       1.0  0.7572600000000002  0.44131  0.28528  1.0000
  C   C39       1.0  0.69827  0.34825  0.26932  1.0000
  C   C40       1.0  0.9604400000000002  0.62646  0.29779  1.0000
  C   C41       1.0  0.02977000000000005  0.66019  0.3115899999999999  1.0000
  C   C42       1.0  0.10963999999999999  0.67738  0.32787  1.0000
  C   C43       1.0  0.11976000000000003  0.7694  0.34376  1.0000
  H   H11       1.0  0.8877899999999997  0.57363  0.23212  1.0000
  H   H12       1.0  0.99386  0.7357  0.2604  1.0000
  H   H13       1.0  0.72224  0.40226  0.30017999999999995  1.0000
  H   H14       1.0  0.6181700000000001  0.23917999999999998  0.27204  1.0000
  H   H15       1.0  0.08613000000000008  0.8489  0.34242  1.0000
  C   C44       1.0  0.9184200000000001  0.48346  0.39515  1.0000
  C   C45       1.0  0.8674  0.39683  0.37821  1.0000
  C   C46       1.0  0.8215  0.44934  0.36303  1.0000
  C   C47       1.0  0.8252800000000001  0.58769  0.36477  1.0000
  C   C48       1.0  0.86605  0.66764  0.38229  1.0000
  C   C49       1.0  0.9139200000000002  0.61723  0.3973  1.0000
  C   C50       1.0  0.8101999999999998  0.6599399999999997  0.3475599999999999  1.0000
  C   C51       1.0  0.79759  0.72068  0.33316  1.0000
  C   C52       1.0  0.78788  0.79167  0.31539  1.0000
  C   C53       1.0  0.88726  0.93178  0.30946  1.0000
  C   C54       1.0  0.89476  0.98327  0.28999  1.0000
  C   C55       1.0  0.80364  0.89369  0.27634  1.0000
  C   C56       1.0  0.70032  0.7582400000000001  0.28273  1.0000
  C   C57       1.0  0.6915800000000001  0.70886  0.30226  1.0000
  H   H16       1.0  0.86887  0.29294  0.37634  1.0000
  H   H17       1.0  0.78949  0.38651  0.34949  1.0000
  H   H18       1.0  0.8674199999999999  0.7735399999999998  0.38384  1.0000
  H   H19       1.0  0.9503000000000001  0.68419  0.41041  1.0000
  H   H20       1.0  0.9621300000000003  0.9968499999999999  0.3196  1.0000
  H   H21       1.0  0.97471  0.08838999999999995  0.28527  1.0000
  H   H22       1.0  0.61438  0.60072  0.30675  1.0000
  C   C58       1.0  0.9783000000000001  0.06136000000000001  0.4541  1.0000
  H   H23       1.0  0.97623  0.04607  0.47006  1.0000
  C   C59       1.0  0.20763000000000006  0.12065999999999999  0.64402  1.0000
  C   C60       1.0  0.10055  0.04188  0.6324899999999999  1.0000
  C   C61       1.0  0.10912999999999999  0.056249999999999994  0.61184  1.0000
  H   H24       1.0  0.011509999999999975  0.9656299999999999  0.6395  1.0000
  H   H25       1.0  0.02680999999999998  0.9901199999999999  0.60308  1.0000
  C   C62       1.0  0.4756  0.9796  0.94163  1.0000
  H   H26       1.0  0.53993  0.0032300000000000007  0.92924  1.0000
  C   C63       1.0  0.35243  0.15603999999999996  0.74266  1.0000
  C   C64       1.0  0.47715999999999986  0.18568000000000004  0.74272  1.0000
  H   H27       1.0  0.5225899999999999  0.18194999999999995  0.7290999999999999  1.0000
  H   H28       1.0  0.16060000000000002  0.79895  0.75907  1.0000
  O   O16       1.0  0.03759  0.92275  0.70411  1.0000
  O   O17       1.0  0.23231999999999997  0.45405999999999996  0.4277  1.0000
  C   C65       1.0  0.50168  0.97175  0.04614  1.0000
  O   O18       1.0  0.47209000000000007  0.8303099999999998  0.04532  1.0000
  O   O19       1.0  0.54054  0.058469999999999994  0.03034  1.0000
  O   O20       1.0  0.6291000000000002  0.0009699999999999939  0.96272  1.0000
  O   O21       1.0  0.6204  0.17889  0.9925600000000001  1.0000
  O   O22       1.0  0.55087  0.85976  0.00145  1.0000
  H   H29       1.0  0.49129000000000006  0.7829800000000001  0.9924899999999999  1.0000
  H   H30       1.0  0.9569300000000001  0.25242999999999993  0.05019  1.0000
  H   H31       1.0  0.10643999999999994  0.3796799999999999  0.02245  1.0000
  C   C66       1.0  0.47647  0.028029999999999996  0.06443  1.0000
  C   C67       1.0  0.51827  0.001959999999999999  0.08249  1.0000
  C   C68       1.0  0.39226  0.08345  0.06434  1.0000
  H   H32       1.0  0.5861  0.9633299999999999  0.08272  1.0000
  C   C69       1.0  0.15689999999999998  0.57868  0.32953  1.0000
  C   C70       1.0  0.20368  0.56157  0.34742  1.0000
  C   C71       1.0  0.20177000000000003  0.6415  0.36406  1.0000
  C   C72       1.0  0.1654  0.7512  0.3619  1.0000
  H   H33       1.0  0.15016  0.5080199999999999  0.31724  1.0000
  H   H34       1.0  0.16632000000000002  0.81661  0.37445  1.0000
  C   C73       1.0  0.22452999999999998  0.15125999999999998  0.60254  1.0000
  C   C74       1.0  0.32208  0.22078  0.63477  1.0000
  H   H35       1.0  0.19307  0.90506  0.54229  1.0000
  C   C75       1.0  0.29501  0.16109999999999997  0.76049  1.0000
  C   C76       1.0  0.54465  0.22422999999999998  0.76037  1.0000
  H   H36       1.0  0.19807000000000002  0.13514  0.76072  1.0000
  H   H37       1.0  0.64126  0.24879  0.76024  1.0000
  H   H38       1.0  0.2485  0.8993999999999999  0.50737  1.0000
  C   C77       1.0  0.22328  0.59712  0.38383  1.0000
  Ni  Ni6       1.0  0.23821000000000003  0.64153  0.42814  1.0000
  O   O23       1.0  0.35828999999999994  0.2634799999999999  0.42927  1.0000
  O   O24       1.0  0.23814000000000002  0.47902  0.38511  1.0000
  O   O25       1.0  0.30899000000000004  0.28785  0.39793  1.0000
  H   H39       1.0  0.36104  0.10638999999999998  0.05046  1.0000
  H   H40       1.0  0.23738  0.48203999999999997  0.34851  1.0000
  C   C78       1.0  0.33025999999999994  0.23685999999999993  0.61408  1.0000
  C   C79       1.0  0.23661000000000001  0.15060999999999997  0.5812  1.0000
  C   C80       1.0  0.24565  0.14919  0.56337  1.0000
  C   C81       1.0  0.23157000000000003  0.006779999999999995  0.5334  1.0000
  H   H41       1.0  0.40554  0.28164  0.64349  1.0000
  C   C82       1.0  0.26474  0.004040000000000004  0.51359  1.0000
  C   C83       1.0  0.38631  0.2807  0.41053  1.0000
  Ni  Ni7       1.0  0.34096  0.41718999999999995  0.44452  1.0000
  O   O26       1.0  0.26270999999999994  0.6963799999999999  0.39805  1.0000
  O   O27       1.0  0.20046  0.61711  0.4584  1.0000
  Ni  Ni8       1.0  0.53517  0.7407  0.02346  1.0000
  C   C84       1.0  0.36244000000000004  0.19958  0.77807  1.0000
  C   C85       1.0  0.4878700000000001  0.23329999999999998  0.77803  1.0000
  H   H42       1.0  0.50458  0.27737  0.38831  1.0000
  C   C86       1.0  0.25789  0.14246999999999996  0.54212  1.0000
  C   C87       1.0  0.32614  0.1377  0.50235  1.0000
  H   H43       1.0  0.76054  0.43869  0.00576  1.0000
  C   C88       1.0  0.73737  0.23142000000000004  0.9976899999999999  1.0000
  C   C89       1.0  0.26949  0.5964  0.4715  1.0000
  O   O28       1.0  0.35683999999999994  0.5640899999999998  0.46588  1.0000
  Ni  Ni9       1.0  0.70128  0.9383999999999999  0.98571  1.0000
  O   O29       1.0  0.79098  0.14768  0.99632  1.0000
  O   O30       1.0  0.63333  0.73005  0.97495  1.0000
  H   H44       1.0  0.41946  0.31237  0.60706  1.0000
  C   C90       1.0  0.5590799999999999  0.28179999999999994  0.79602  1.0000
  C   C91       1.0  0.5915  0.60807  0.98639  1.0000
  C   C92       1.0  0.49144  0.28413  0.4041  1.0000
  C   C93       1.0  0.30843  0.27372  0.53048  1.0000
  C   C94       1.0  0.34118000000000004  0.27123  0.51061  1.0000
  H   H45       1.0  0.3267300000000001  0.37868999999999986  0.53698  1.0000
  H   H46       1.0  0.38374  0.37446000000000007  0.50199  1.0000
  C   C95       1.0  0.8070600000000002  0.37806  0.00072  1.0000
  H   H47       1.0  0.49724000000000007  0.37837  0.94868  1.0000
  H   H48       1.0  0.51197  0.29389  0.84738  1.0000
  H   H49       1.0  0.6219599999999998  0.37104999999999994  0.87914  1.0000
  H   H50       1.0  0.05856000000000002  0.2837  0.75152  1.0000
  O   O31       1.0  0.59412  0.61613  0.006109999999999999  1.0000
  H   H51       1.0  0.31735  0.20442999999999997  0.79168  1.0000
  O   O32       1.0  0.84774  0.4009  0.95963  1.0000
  O   O33       1.0  0.70557  0.46271  0.9318  1.0000
  C   C96       1.0  0.3906700000000001  0.14221999999999999  0.48335000000000006  1.0000
  O   O34       1.0  0.38757000000000014  0.019300000000000008  0.4768299999999999  1.0000
  O   O35       1.0  0.42924  0.7534  0.43263999999999997  1.0000
  O   O36       1.0  0.49511  0.58245  0.43003  1.0000
  O   O37       1.0  0.7142600000000001  0.89165  0.03177  1.0000
  C   C97       1.0  0.26966  0.64186  0.49007  1.0000
  H   H52       1.0  0.19225999999999996  0.6564899999999999  0.49493  1.0000
  C   C98       1.0  0.60532  0.35169  0.41655  1.0000
  C   C99       1.0  0.57704  0.46383  0.9564599999999999  1.0000
  C   C100      1.0  0.56284  0.4770899999999999  0.9780899999999999  1.0000
  C   C101      1.0  0.6158699999999999  0.3219799999999999  0.81132  1.0000
  C   C102      1.0  0.61324  0.34735  0.84753  1.0000
  C   C103      1.0  0.67572  0.39155  0.8655399999999999  1.0000
  C   C104      1.0  0.9358000000000001  0.49869  0.9714499999999999  1.0000
  C   C105      1.0  0.69076  0.52418  0.94782  1.0000
  Ni  Ni10      1.0  0.8437700000000005  0.41062  0.9293  1.0000
  O   O38       1.0  0.8106300000000001  0.38606  0.8998  1.0000
  O   O39       1.0  0.7868100000000001  0.63975  0.95606  1.0000
  C   C106      1.0  0.60588  0.30091  0.43488  1.0000
  O   O40       1.0  0.46762000000000004  0.27222  0.47497  1.0000
  O   O41       1.0  0.68329  0.39669  0.44788999999999995  1.0000
  C   C107      1.0  0.4980800000000001  0.70627  0.42354  1.0000
  C   C108      1.0  0.8090200000000002  0.89335  0.02284  1.0000
  O   O42       1.0  0.81022  0.8860899999999998  0.0034399999999999995  1.0000
  H   H53       1.0  0.78122  0.6156599999999998  0.03059  1.0000
  H   H54       1.0  0.77304  0.55469  0.0661  1.0000
  C   C109      1.0  0.56131  0.67056  0.38951  1.0000
  H   H55       1.0  0.57147  0.57754  0.39469  1.0000
  H   H56       1.0  0.55815  0.61286  0.35894  1.0000
  C   C110      1.0  0.3860499999999999  0.7154899999999997  0.50189  1.0000
  H   H57       1.0  0.37747999999999987  0.6989199999999998  0.51784  1.0000
  H   H58       1.0  0.68229  0.45884  0.41184  1.0000
  C   C111      1.0  0.93022  0.46656999999999993  0.9907999999999999  1.0000
  H   H59       1.0  0.52584  0.3765799999999999  0.9872999999999998  1.0000
  C   C112      1.0  0.68108  0.37034  0.82984  1.0000
  O   O43       1.0  0.95025  0.31293  0.92636  1.0000
  C   C113      1.0  0.83686  0.7039399999999999  0.04077  1.0000
  C   C114      1.0  0.83095  0.6693999999999998  0.060969999999999996  1.0000
  H   H60       1.0  0.76003  0.5957  0.14275  1.0000
  C   C115      1.0  0.5441  0.7622699999999998  0.40305  1.0000
  C   C116      1.0  0.55644  0.69264  0.36916  1.0000
  H   H61       1.0  0.36935  0.55481  0.30395999999999995  1.0000
  H   H62       1.0  0.00839000000000001  0.54023  0.99991  1.0000
  C   C117      1.0  0.80701  0.46022  0.86602  1.0000
  C   C118      1.0  0.8120899999999999  0.44172  0.83017  1.0000
  C   C119      1.0  0.3699600000000001  0.008360000000000029  0.9392299999999999  1.0000
  C   C120      1.0  0.8711099999999999  0.48658999999999997  0.88528  1.0000
  C   C121      1.0  0.49012  0.8311799999999998  0.49418  1.0000
  Ni  Ni11      1.0  0.65915  0.36394  0.47843  1.0000
  Ni  Ni12      1.0  0.52918  0.024379999999999995  0.46008  1.0000
  O   O44       1.0  0.50729  0.84447  0.47503999999999996  1.0000
  O   O45       1.0  0.51486  0.16681  0.44047  1.0000
  C   C122      1.0  0.88856  0.85429  0.03469  1.0000
  H   H63       1.0  0.6511499999999999  0.5893899999999997  0.17388  1.0000
  C   C123      1.0  0.54131  0.81156  0.3621  1.0000
  H   H64       1.0  0.6716600000000003  0.4659299999999999  0.54795  1.0000
  C   C124      1.0  0.8750800000000001  0.48966999999999994  0.84812  1.0000
  H   H65       1.0  0.77342  0.75183  0.89167  1.0000
  C   C125      1.0  0.77265  0.31232999999999994  0.12928  1.0000
  O   O46       1.0  0.69635  0.18484999999999993  0.19077999999999998  1.0000
  C   C126      1.0  0.74891  0.27932  0.14955  1.0000
  O   O47       1.0  0.7972  0.82156  0.24235999999999996  1.0000
  O   O48       1.0  0.96457  0.08906999999999995  0.67707  1.0000
  H   H66       1.0  0.20254000000000003  0.80747  0.04755  1.0000
  O   O49       1.0  0.019479999999999945  0.6583899999999999  0.68435  1.0000
  O   O50       1.0  0.95283  0.1163  0.72004  1.0000
  H   H67       1.0  0.06828  0.67971  0.07653  1.0000
  H   H68       1.0  0.07196000000000007  0.5410100000000001  0.65546  1.0000
  C   C127      1.0  0.012280000000000003  0.89422  0.90536  1.0000
  C   C128      1.0  0.25227  0.89596  0.93869  1.0000
  C   C129      1.0  0.03917000000000002  0.36272  0.9127699999999999  1.0000
  Ni  Ni13      1.0  0.9734400000000004  0.75763  0.94583  1.0000
  Ni  Ni14      1.0  0.10204999999999999  0.67323  0.90968  1.0000
  O   O51       1.0  0.9466  0.87173  0.92213  1.0000
  O   O52       1.0  0.11159999999999998  0.87521  0.9048  1.0000
  O   O53       1.0  0.018979999999999938  0.6341699999999999  0.9651500000000001  1.0000
  O   O54       1.0  0.99503  0.57988  0.88552  1.0000
  O   O55       1.0  0.1607100000000001  0.92299  0.94256  1.0000
  O   O56       1.0  0.22815999999999992  0.7670699999999997  0.93144  1.0000
  O   O57       1.0  0.13120999999999997  0.49960999999999994  0.91407  1.0000
  O   O58       1.0  0.9608600000000003  0.61784  0.92654  1.0000
  H   H69       1.0  0.9071  0.63239  0.91719  1.0000
  C   C130      1.0  0.9138800000000002  0.42423  0.49192  1.0000
  C   C131      1.0  0.63666  0.25706  0.52067  1.0000
  C   C132      1.0  0.7606400000000002  0.00755  0.45419  1.0000
  Ni  Ni15      1.0  0.73131  0.10606999999999997  0.49428  1.0000
  O   O59       1.0  0.85361  0.48129  0.48211999999999994  1.0000
  O   O60       1.0  0.89663  0.29021  0.48738  1.0000
  O   O61       1.0  0.7543500000000002  0.97965  0.47354000000000007  1.0000
  O   O62       1.0  0.63121  0.3565899999999999  0.50893  1.0000
  O   O63       1.0  0.7243400000000004  0.22096  0.51792  1.0000
  O   O64       1.0  0.6675800000000001  0.013639999999999992  0.44488  1.0000
  O   O65       1.0  0.5768400000000001  0.92815  0.50573  1.0000
  O   O66       1.0  0.65508  0.17862  0.47585  1.0000
  H   H70       1.0  0.72302  0.2185799999999999  0.46586  1.0000
  C   C133      1.0  0.93694  0.65873  0.67215  1.0000
  C   C134      1.0  0.9862500000000003  0.66444  0.73064  1.0000
  C   C135      1.0  0.8423400000000001  0.0033800000000000045  0.67853  1.0000
  C   C136      1.0  0.90438  0.01588000000000002  0.7348299999999999  1.0000
  Ni  Ni16      1.0  0.8612  0.7857699999999997  0.70533  1.0000
  O   O67       1.0  0.79011  0.90815  0.69339  1.0000
  O   O68       1.0  0.85685  0.70108  0.67817  1.0000
  O   O69       1.0  0.8501299999999999  0.8694799999999997  0.73156  1.0000
  O   O70       1.0  0.10293000000000006  0.7293600000000001  0.72375  1.0000
  O   O71       1.0  0.8929199999999998  0.6276999999999998  0.71827  1.0000
  C   C137      1.0  0.46545  0.77292  0.24237999999999998  1.0000
  C   C138      1.0  0.55112  0.76858  0.18309  1.0000
  Ni  Ni17      1.0  0.5736  0.011679999999999996  0.20964  1.0000
  Ni  Ni18      1.0  0.6744800000000002  0.7706899999999998  0.21991  1.0000
  O   O72       1.0  0.4374099999999999  0.8381399999999999  0.22765  1.0000
  O   O73       1.0  0.52748  0.6995899999999999  0.23904  1.0000
  O   O74       1.0  0.51885  0.87213  0.18528  1.0000
  O   O75       1.0  0.54598  0.6858799999999998  0.19834  1.0000
  O   O76       1.0  0.61437  0.17052999999999996  0.23161  1.0000
  O   O77       1.0  0.8034200000000001  0.7983399999999999  0.19927  1.0000
  O   O78       1.0  0.6975700000000001  0.96978  0.21914  1.0000
  H   H71       1.0  0.67833  0.97659  0.23308  1.0000
  H   H72       1.0  0.6965100000000001  0.32124  0.15772  1.0000
  H   H73       1.0  0.73861  0.3795899999999999  0.12198999999999999  1.0000
  C   C139      1.0  0.5899  0.74278  0.16330999999999998  1.0000
  C   C140      1.0  0.64886  0.65525  0.16145  1.0000
  C   C141      1.0  0.70988  0.6577  0.14373  1.0000
  C   C142      1.0  0.7086600000000001  0.74309  0.12756  1.0000
  C   C143      1.0  0.6410499999999999  0.8199499999999997  0.12882  1.0000
  C   C144      1.0  0.58221  0.82037  0.14661  1.0000
  C   C145      1.0  0.77635  0.75245  0.10956  1.0000
  C   C146      1.0  0.8302099999999998  0.7658799999999998  0.094  1.0000
  C   C147      1.0  0.88659  0.78565  0.07461  1.0000
  C   C148      1.0  0.9696900000000003  0.93101  0.06758  1.0000
  C   C149      1.0  0.97401  0.9639999999999999  0.04733  1.0000
  H   H74       1.0  0.6379499999999999  0.8840199999999997  0.11623999999999998  1.0000
  H   H75       1.0  0.5346999999999998  0.8854799999999999  0.14757  1.0000
  H   H76       1.0  0.019959999999999995  0.0209  0.07788  1.0000
  H   H77       1.0  0.028410000000000008  0.07894  0.04215  1.0000
  C   C150      1.0  0.41967999999999994  0.7714099999999998  0.2627  1.0000
  C   C151      1.0  0.37850999999999996  0.6419199999999998  0.27456  1.0000
  C   C152      1.0  0.3917399999999998  0.6536899999999998  0.29511  1.0000
  C   C153      1.0  0.44312000000000007  0.79434  0.30397  1.0000
  C   C154      1.0  0.46729  0.9203499999999999  0.29244  1.0000
  C   C155      1.0  0.45237000000000005  0.90776  0.27186  1.0000
  C   C156      1.0  0.48088999999999993  0.8102099999999998  0.32443  1.0000
  C   C157      1.0  0.5102  0.81545  0.34158  1.0000
  C   C158      1.0  0.5417599999999999  0.9156399999999999  0.37547  1.0000
  C   C159      1.0  0.54513  0.89244  0.39589  1.0000
  H   H78       1.0  0.34776  0.53436  0.26774  1.0000
  H   H79       1.0  0.50219  0.02869999999999999  0.29924  1.0000
  H   H80       1.0  0.4745700000000001  0.005800000000000002  0.26294  1.0000
  H   H81       1.0  0.53319  0.010150000000000001  0.37015  1.0000
  H   H82       1.0  0.53886  0.96939  0.4061  1.0000
  H   H83       1.0  0.6307300000000002  0.68681  0.27229  1.0000
  C   C160      1.0  0.85972  0.023409999999999997  0.44382  1.0000
  H   H84       1.0  0.8595100000000002  0.03126000000000001  0.42777  1.0000
  C   C161      1.0  0.57985  0.23153999999999997  0.54043  1.0000
  C   C162      1.0  0.6190100000000002  0.3516000000000001  0.55347  1.0000
  C   C163      1.0  0.60237  0.32392  0.57386  1.0000
  C   C164      1.0  0.54574  0.17631000000000002  0.58119  1.0000
  C   C165      1.0  0.49048  0.057060000000000013  0.5680499999999999  1.0000
  C   C166      1.0  0.50945  0.08439  0.54773  1.0000
  C   C167      1.0  0.57317  0.14801  0.60081  1.0000
  C   C168      1.0  0.59458  0.12011  0.61715  1.0000
  C   C169      1.0  0.62966  0.08534000000000001  0.6358  1.0000
  C   C170      1.0  0.60365  0.93831  0.63979  1.0000
  C   C171      1.0  0.66981  0.91044  0.65438  1.0000
  C   C172      1.0  0.76252  0.029639999999999996  0.66499  1.0000
  C   C173      1.0  0.78143  0.17494000000000004  0.66206  1.0000
  C   C174      1.0  0.7138899999999999  0.20217999999999997  0.64766  1.0000
  H   H85       1.0  0.64292  0.41707000000000005  0.58395  1.0000
  H   H86       1.0  0.44256000000000006  0.9425699999999999  0.57361  1.0000
  H   H87       1.0  0.4756100000000001  0.9909100000000002  0.5377299999999999  1.0000
  H   H88       1.0  0.5377  0.8469899999999999  0.63079  1.0000
  H   H89       1.0  0.65304  0.7973999999999998  0.65681  1.0000
  H   H90       1.0  0.8503  0.26709  0.67062  1.0000
  H   H91       1.0  0.73194  0.3152999999999999  0.64498  1.0000
  C   C175      1.0  0.9685400000000001  0.48828999999999995  0.51123  1.0000
  C   C176      1.0  0.01949  0.41885  0.52312  1.0000
  C   C177      1.0  0.034269999999999995  0.44733  0.54337  1.0000
  C   C178      1.0  0.0002500000000000211  0.54685  0.55172  1.0000
  C   C179      1.0  0.9639600000000003  0.62922  0.53952  1.0000
  C   C180      1.0  0.95044  0.60226  0.51928  1.0000
  C   C181      1.0  0.9873300000000002  0.55092  0.57276  1.0000
  C   C182      1.0  0.9749800000000001  0.55791  0.5903  1.0000
  C   C183      1.0  0.95677  0.56881  0.61106  1.0000
  C   C184      1.0  0.87305  0.6158  0.61744  1.0000
  C   C185      1.0  0.86253  0.63909  0.63749  1.0000
  C   C186      1.0  0.9364  0.61607  0.65136  1.0000
  C   C187      1.0  0.016399999999999908  0.5625499999999998  0.64495  1.0000
  C   C188      1.0  0.026430000000000013  0.53912  0.62485  1.0000
  H   H92       1.0  0.041030000000000025  0.33697000000000005  0.5169199999999999  1.0000
  H   H93       1.0  0.06622  0.38661999999999996  0.55268  1.0000
  H   H94       1.0  0.94093  0.70955  0.54585  1.0000
  H   H95       1.0  0.91798  0.66308  0.51013  1.0000
  H   H96       1.0  0.81808  0.63755  0.60682  1.0000
  H   H97       1.0  0.79955  0.67898  0.64216  1.0000
  H   H98       1.0  0.08994000000000008  0.5004400000000001  0.61999  1.0000
  H   H99       1.0  0.3867700000000001  0.12123999999999999  0.94158  1.0000
  C   C189      1.0  0.8924900000000002  0.06628999999999999  0.7547  1.0000
  C   C190      1.0  0.98398  0.20687  0.76139  1.0000
  C   C191      1.0  0.98361  0.24503  0.78118  1.0000
  C   C192      1.0  0.8920800000000002  0.14302999999999996  0.7944  1.0000
  C   C193      1.0  0.79585  0.007050000000000004  0.78747  1.0000
  C   C194      1.0  0.79567  0.96882  0.76768  1.0000
  C   C195      1.0  0.90725  0.16886  0.81531  1.0000
  C   C196      1.0  0.92362  0.19490999999999997  0.8327  1.0000
  C   C197      1.0  0.9527300000000001  0.22920999999999997  0.8532  1.0000
  C   C198      1.0  0.07624  0.32824  0.85844  1.0000
  C   C199      1.0  0.10802999999999999  0.35570999999999997  0.87829  1.0000
  C   C200      1.0  0.015080000000000001  0.2907  0.89319  1.0000
  C   C201      1.0  0.89334  0.18105  0.88798  1.0000
  C   C202      1.0  0.86148  0.15358  0.86799  1.0000
  H   H100      1.0  0.05766999999999999  0.35117  0.78641  1.0000
  H   H101      1.0  0.7242600000000002  0.92808  0.79759  1.0000
  H   H102      1.0  0.72248  0.86161  0.76261  1.0000
  H   H103      1.0  0.14813  0.38296  0.84709  1.0000
  H   H104      1.0  0.20391999999999993  0.4339499999999998  0.88208  1.0000
  H   H105      1.0  0.8219000000000002  0.12340000000000001  0.89929  1.0000
  H   H106      1.0  0.7664500000000001  0.07317999999999998  0.86405  1.0000
  H   H107      1.0  0.97635  0.5447  0.84812  1.0000
  H   H108      1.0  0.86529  0.45976  0.81656  1.0000
  C   C203      1.0  0.9672399999999999  0.9196099999999999  0.8866  1.0000
  C   C204      1.0  0.05718999999999999  0.007500000000000003  0.8722  1.0000
  C   C205      1.0  0.031539999999999985  0.9783799999999999  0.8522499999999998  1.0000
  C   C206      1.0  0.91325  0.8676199999999996  0.84639  1.0000
  C   C207      1.0  0.8173799999999999  0.7941799999999998  0.86057  1.0000
  C   C208      1.0  0.8444500000000003  0.8196199999999999  0.88073  1.0000
  C   C209      1.0  0.89956  0.8116300000000001  0.82673  1.0000
  C   C210      1.0  0.90243  0.77522  0.80998  1.0000
  C   C211      1.0  0.92177  0.7376699999999999  0.7904  1.0000
  C   C212      1.0  0.82001  0.6459399999999998  0.7786  1.0000
  C   C213      1.0  0.84076  0.61079  0.7594999999999998  1.0000
  C   C214      1.0  0.96382  0.67002  0.75201  1.0000
  C   C215      1.0  0.06522000000000003  0.75471  0.76441  1.0000
  C   C216      1.0  0.044090000000000004  0.78935  0.78343  1.0000
  H   H109      1.0  0.15124999999999997  0.08837  0.87656  1.0000
  H   H110      1.0  0.10537999999999999  0.03813999999999999  0.84133  1.0000
  H   H111      1.0  0.72477  0.7098799999999997  0.8561  1.0000
  H   H112      1.0  0.72511  0.60486  0.784  1.0000
  H   H113      1.0  0.7614  0.54309  0.75027  1.0000
  H   H114      1.0  0.12313999999999996  0.8583399999999998  0.79267  1.0000
