data_image0
_chemical_formula_structural       O2CO3NiOC3HCHC5NiONiO2NiO7NiH2COC5ONiONiO3NiO6NiH2COC4OC2HC2HCHC2HC5HF3C5HCFC2H3CF2C4HF3C6HF3HC2H3CF2O3CH2C2OC6HC2F2NiOCHFOHF2OHCFOC2HCNiCFCNiHOF3C3H2F3ONiCHCOHONiOHOF2COCFOH2CFCFHCNiOH3CFHC2HC4O4C2ONiOC2O2COCHCHC4H2CHCFC7HF2C2
_chemical_formula_sum              "O56 C112 Ni16 H48 F36"
_cell_length_a       13.25911
_cell_length_b       13.091930000000001
_cell_length_c       33.35391
_cell_angle_alpha    91.0475
_cell_angle_beta     91.13911000000002
_cell_angle_gamma    113.10074999999999

_space_group_name_H-M_alt    "P 1"
_space_group_IT_number       1

loop_
  _space_group_symop_operation_xyz
  'x, y, z'

loop_
  _atom_site_type_symbol
  _atom_site_label
  _atom_site_symmetry_multiplicity
  _atom_site_fract_x
  _atom_site_fract_y
  _atom_site_fract_z
  _atom_site_occupancy
  O   O1        1.0  0.48080000000000006  0.17033000000000006  0.88465  1.0000
  O   O2        1.0  0.50749  0.34427  0.94308  1.0000
  C   C1        1.0  0.47884999999999994  0.11305  0.8512  1.0000
  O   O3        1.0  0.56643  0.09809000000000002  0.83844  1.0000
  O   O4        1.0  0.4203199999999999  0.08903  0.62065  1.0000
  O   O5        1.0  0.4626399999999998  0.41413  0.62767  1.0000
  Ni  Ni1       1.0  0.45966  0.25475  0.62633  1.0000
  O   O6        1.0  0.45020999999999994  0.24589000000000005  0.6868  1.0000
  C   C2        1.0  0.4583599999999999  0.16142000000000004  0.70512  1.0000
  C   C3        1.0  0.4882199999999999  0.05286999999999999  0.6033199999999997  1.0000
  C   C4        1.0  0.06299999999999996  0.99091  0.74366  1.0000
  H   H1        1.0  0.05023999999999999  0.9931999999999999  0.71068  1.0000
  C   C5        1.0  0.09591000000000009  0.98267  0.82231  1.0000
  H   H2        1.0  0.1098000000000001  0.9797200000000003  0.8552  1.0000
  C   C6        1.0  0.01648  0.05937  0.76964  1.0000
  C   C7        1.0  0.011250000000000121  0.8746600000000002  0.76102  1.0000
  C   C8        1.0  0.18453999999999995  0.03369999999999999  0.7574299999999998  1.0000
  C   C9        1.0  0.02693000000000002  0.8700400000000001  0.80171  1.0000
  C   C10       1.0  0.20115999999999995  0.028609999999999993  0.7981999999999998  1.0000
  Ni  Ni2       1.0  0.2903599999999999  0.65418  0.4066899999999999  1.0000
  O   O7        1.0  0.38136999999999993  0.8142200000000002  0.42698999999999987  1.0000
  Ni  Ni3       1.0  0.32116000000000006  0.9006200000000001  0.39113999999999993  1.0000
  O   O8        1.0  0.36541  0.58775  0.44664  1.0000
  O   O9        1.0  0.18571000000000001  0.6552900000000002  0.45065  1.0000
  Ni  Ni4       1.0  0.5399999999999999  0.8652800000000002  0.42173  1.0000
  O   O10       1.0  0.09397999999999994  0.5414  0.33858  1.0000
  O   O11       1.0  0.51998  0.8335200000000001  0.3615799999999999  1.0000
  O   O12       1.0  0.4072699999999999  0.05349  0.41702  1.0000
  O   O13       1.0  0.24514999999999995  0.74304  0.36749  1.0000
  O   O14       1.0  0.18918999999999997  0.49427  0.38897  1.0000
  O   O15       1.0  0.21802  0.96088  0.36164  1.0000
  O   O16       1.0  0.07049000000000005  0.82084  0.38664  1.0000
  Ni  Ni5       1.0  0.08465000000000004  0.6789800000000001  0.36356  1.0000
  H   H3        1.0  0.3653099999999999  0.82538  0.45522  1.0000
  H   H4        1.0  0.27503  0.7368800000000002  0.34100999999999987  1.0000
  C   C11       1.0  0.5093599999999999  0.9087500000000001  0.3383  1.0000
  O   O17       1.0  0.023570000000000025  0.5930700000000001  0.41476  1.0000
  C   C12       1.0  0.46819  0.6411400000000002  0.45862  1.0000
  C   C13       1.0  0.50519  0.07106  0.43231  1.0000
  C   C14       1.0  0.07948  0.59844  0.44833  1.0000
  C   C15       1.0  0.11132000000000002  0.9142200000000003  0.3673399999999999  1.0000
  C   C16       1.0  0.11298000000000002  0.4661000000000001  0.3598099999999999  1.0000
  O   O18       1.0  0.4288100000000001  0.9432300000000001  0.34377  1.0000
  Ni  Ni6       1.0  0.33440000000000003  0.7271300000000003  0.14324999999999993  1.0000
  O   O19       1.0  0.17494  0.63897  0.12359  1.0000
  Ni  Ni7       1.0  0.09513000000000006  0.7057400000000003  0.15988  1.0000
  O   O20       1.0  0.39761999999999986  0.64381  0.1057  1.0000
  O   O21       1.0  0.2711199999999999  0.47227  0.11927999999999997  1.0000
  O   O22       1.0  0.33951999999999993  0.8264200000000002  0.09644  1.0000
  Ni  Ni8       1.0  0.11829000000000005  0.4773400000000001  0.1271  1.0000
  O   O23       1.0  0.45524000000000003  0.95503  0.20784999999999995  1.0000
  O   O24       1.0  0.14163000000000003  0.49094000000000004  0.18777  1.0000
  O   O25       1.0  0.25316999999999995  0.78456  0.18065  1.0000
  O   O26       1.0  0.4910900000000001  0.8277000000000001  0.16215  1.0000
  O   O27       1.0  0.043429999999999934  0.81423  0.18856  1.0000
  O   O28       1.0  0.17316000000000004  0.9578600000000002  0.15714  1.0000
  Ni  Ni9       1.0  0.31703999999999993  0.9476500000000001  0.17876  1.0000
  H   H5        1.0  0.16430999999999998  0.65743  0.0956  1.0000
  H   H6        1.0  0.2616  0.76125  0.20815  1.0000
  C   C17       1.0  0.07108999999999997  0.50954  0.21069  1.0000
  O   O29       1.0  0.39967  0.99807  0.12598  1.0000
  C   C18       1.0  0.3409799999999999  0.54  0.09471999999999997  1.0000
  C   C19       1.0  0.4039299999999999  0.93132  0.09665  1.0000
  C   C20       1.0  0.0835400000000001  0.9184700000000001  0.17818  1.0000
  C   C21       1.0  0.51781  0.8942200000000001  0.19757  1.0000
  O   O30       1.0  0.057660000000000024  0.6040600000000002  0.20892999999999998  1.0000
  C   C22       1.0  0.007030000000000019  0.42430000000000007  0.23903  1.0000
  C   C23       1.0  0.022890000000000025  0.32482000000000005  0.24176  1.0000
  H   H7        1.0  0.08713  0.31467  0.22445999999999997  1.0000
  C   C24       1.0  0.03744000000000007  0.9936300000000001  0.19474  1.0000
  C   C25       1.0  0.06037  0.028809999999999995  0.23495999999999995  1.0000
  H   H8        1.0  0.12398  0.01146  0.25086  1.0000
  C   C26       1.0  0.05664999999999998  0.34844  0.34795  1.0000
  H   H9        1.0  0.095  0.29089  0.35486  1.0000
  C   C27       1.0  0.06814999999999999  0.04242000000000001  0.32338  1.0000
  C   C28       1.0  0.035149999999999994  0.9605700000000001  0.34982  1.0000
  H   H10       1.0  0.15492999999999998  0.08584000000000003  0.3178  1.0000
  C   C29       1.0  0.45778999999999986  0.13169000000000006  0.53905  1.0000
  C   C30       1.0  0.49861999999999984  0.06145999999999999  0.5592199999999998  1.0000
  C   C31       1.0  0.5240999999999999  0.09055000000000003  0.47608  1.0000
  C   C32       1.0  0.47484  0.15097  0.49803  1.0000
  C   C33       1.0  0.44018000000000007  0.23594000000000007  0.4782  1.0000
  H   H11       1.0  0.4147699999999999  0.17349  0.55554  1.0000
  F   F1        1.0  0.50794  0.28543  0.44699  1.0000
  F   F2        1.0  0.4459299999999999  0.31905000000000006  0.50551  1.0000
  F   F3        1.0  0.3332099999999999  0.18466  0.46365  1.0000
  C   C34       1.0  0.02003999999999995  0.56027  0.48603999999999997  1.0000
  C   C35       1.0  0.5019199999999999  0.6217200000000002  0.49938000000000005  1.0000
  C   C36       1.0  0.5883399999999998  0.58517  0.5059899999999999  1.0000
  C   C37       1.0  0.6048300000000001  0.5509900000000001  0.54456  1.0000
  C   C38       1.0  0.53435  0.54833  0.57574  1.0000
  H   H12       1.0  0.67023  0.52252  0.55008  1.0000
  C   C39       1.0  0.6638  0.5837900000000001  0.47244999999999987  1.0000
  F   F4        1.0  0.60307  0.52624  0.43907  1.0000
  C   C40       1.0  0.37262  0.09584000000000002  0.73278  1.0000
  C   C41       1.0  0.26789999999999997  0.09911  0.73183  1.0000
  H   H13       1.0  0.38762999999999986  0.034760000000000006  0.75078  1.0000
  H   H14       1.0  0.24589999999999992  0.14129  0.70751  1.0000
  H   H15       1.0  0.048849999999999984  0.6950200000000001  0.74346  1.0000
  C   C42       1.0  0.004510000000000091  0.8034200000000002  0.0050399999999999985  1.0000
  F   F5        1.0  0.08033999999999994  0.83242  0.9750899999999999  1.0000
  F   F6        1.0  0.04934999999999998  0.8776500000000002  0.03701  1.0000
  C   C43       1.0  0.39371  0.9654500000000003  0.02393  1.0000
  C   C44       1.0  0.45882000000000006  0.9788300000000001  0.05894  1.0000
  C   C45       1.0  0.4416799999999999  0.9900300000000001  0.9861399999999999  1.0000
  C   C46       1.0  0.36889000000000005  0.9547000000000002  0.94858  1.0000
  H   H16       1.0  0.30507999999999996  0.9308600000000001  0.0259  1.0000
  F   F7        1.0  0.28021  0.85641  0.9546899999999998  1.0000
  F   F8        1.0  0.4240399999999999  0.93588  0.9164  1.0000
  F   F9        1.0  0.3308399999999999  0.03597  0.9393  1.0000
  C   C47       1.0  0.38147  0.49198  0.9860500000000001  1.0000
  C   C48       1.0  0.47733000000000003  0.4718400000000001  0.98901  1.0000
  C   C49       1.0  0.4652199999999999  0.46953  0.06163  1.0000
  C   C50       1.0  0.3728599999999999  0.49554  0.05886  1.0000
  C   C51       1.0  0.3278  0.50303  0.02073  1.0000
  C   C52       1.0  0.22671999999999998  0.52967  0.01703  1.0000
  H   H17       1.0  0.3487199999999999  0.49891  0.9566599999999997  1.0000
  F   F10       1.0  0.17933  0.50405  0.9788500000000001  1.0000
  F   F11       1.0  0.25533  0.64169  0.025079999999999995  1.0000
  F   F12       1.0  0.14948  0.4686400000000001  0.04388  1.0000
  H   H18       1.0  0.09495  0.26622  0.83554  1.0000
  C   C53       1.0  0.37241  0.046830000000000004  0.83195  1.0000
  C   C54       1.0  0.30648999999999993  0.09542  0.81898  1.0000
  H   H19       1.0  0.35065999999999997  0.95879  0.82578  1.0000
  H   H20       1.0  0.3300399999999999  0.18435  0.82347  1.0000
  H   H21       1.0  0.03804000000000009  0.7631800000000002  0.84848  1.0000
  C   C55       1.0  0.4361699999999999  0.62562  0.53142  1.0000
  F   F13       1.0  0.3283  0.66794  0.59508  1.0000
  F   F14       1.0  0.30155  0.4930400000000001  0.61002  1.0000
  O   O31       1.0  0.5707299999999998  0.05083  0.6248799999999998  1.0000
  O   O32       1.0  0.53982  0.70975  0.43444  1.0000
  O   O33       1.0  0.56511  0.02715  0.4132899999999999  1.0000
  C   C56       1.0  0.4529099999999999  0.5916  0.56984  1.0000
  H   H22       1.0  0.3701  0.65329  0.52605  1.0000
  H   H23       1.0  0.49694  0.46089  0.09101  1.0000
  C   C57       1.0  0.3806599999999999  0.59769  0.60383  1.0000
  C   C58       1.0  0.5238499999999999  0.44743000000000005  0.95236  1.0000
  O   O34       1.0  0.54832  0.14148000000000002  0.7029  1.0000
  C   C59       1.0  0.5570699999999998  0.008879999999999992  0.5374999999999998  1.0000
  C   C60       1.0  0.57622  0.03164  0.49683  1.0000
  C   C61       1.0  0.5747999999999999  0.020050000000000002  0.05607  1.0000
  C   C62       1.0  0.5569499999999998  0.044700000000000004  0.9840899999999999  1.0000
  C   C63       1.0  0.52239  0.4649400000000001  0.027199999999999995  1.0000
  C   C64       1.0  0.5458699999999999  0.49775000000000014  0.61388  1.0000
  H   H24       1.0  0.5746  0.90197  0.21038999999999994  1.0000
  C   C65       1.0  0.60808  0.11232  0.94911  1.0000
  C   C66       1.0  0.62226  0.050450000000000016  0.01828  1.0000
  F   F15       1.0  0.09766999999999997  0.60583  0.62206  1.0000
  F   F16       1.0  0.6225799999999998  0.07486000000000001  0.12471999999999998  1.0000
  Ni  Ni10      1.0  0.6113799999999998  0.30823  0.9062  1.0000
  O   O35       1.0  0.5785299999999999  0.5279600000000002  0.92839  1.0000
  C   C67       1.0  0.05218000000000001  0.63188  0.51993  1.0000
  H   H25       1.0  0.11167000000000007  0.7161300000000002  0.51678  1.0000
  F   F17       1.0  0.15628  0.75916  0.58591  1.0000
  O   O36       1.0  0.62129  0.30177000000000004  0.62765  1.0000
  H   H26       1.0  0.5948  0.04193  0.29577  1.0000
  F   F18       1.0  0.52494  0.8602700000000001  0.58274  1.0000
  F   F19       1.0  0.6313199999999999  0.91532  0.10169  1.0000
  O   O37       1.0  0.6403399999999998  0.06714  0.91909  1.0000
  H   H27       1.0  0.6480499999999998  0.30729  0.59994  1.0000
  C   C68       1.0  0.6010299999999998  0.9738100000000002  0.31234  1.0000
  F   F20       1.0  0.44272  0.63782  0.63882  1.0000
  O   O38       1.0  0.63845  0.21977000000000002  0.95183  1.0000
  C   C69       1.0  0.6473  0.02275  0.09220999999999997  1.0000
  C   C70       1.0  0.6325399999999998  0.9152300000000001  0.22444999999999998  1.0000
  H   H28       1.0  0.6258499999999999  0.99694  0.48058  1.0000
  C   C71       1.0  0.06463  0.66623  0.59505  1.0000
  Ni  Ni11      1.0  0.6622899999999998  0.18904000000000007  0.65807  1.0000
  C   C72       1.0  0.6008099999999998  0.9299700000000001  0.55722  1.0000
  F   F21       1.0  0.62444  0.3534  0.01837  1.0000
  C   C73       1.0  0.63322  0.4574300000000001  0.03135  1.0000
  Ni  Ni12      1.0  0.7138599999999999  0.14853  0.868  1.0000
  H   H29       1.0  0.71352  0.32562  0.84297  1.0000
  O   O39       1.0  0.6374499999999999  0.54142  0.63522  1.0000
  F   F22       1.0  0.6229999999999999  0.86369  0.52887  1.0000
  F   F23       1.0  0.6973400000000001  0.9903700000000001  0.57841  1.0000
  F   F24       1.0  0.6721199999999998  0.47436  0.07076  1.0000
  C   C74       1.0  0.0358  0.057150000000000006  0.81015  1.0000
  C   C75       1.0  0.012320000000000072  0.5943900000000002  0.55796  1.0000
  C   C76       1.0  0.6946499999999998  0.9560100000000001  0.31144  1.0000
  H   H30       1.0  0.7099199999999998  0.0774  0.01531  1.0000
  H   H31       1.0  0.7029699999999998  0.89058  0.32901  1.0000
  F   F25       1.0  0.7086699999999999  0.5378400000000001  0.00872  1.0000
  F   F26       1.0  0.7274599999999999  0.6916100000000001  0.4623699999999999  1.0000
  F   F27       1.0  0.73334  0.53279  0.48375999999999997  1.0000
  O   O40       1.0  0.7272199999999999  0.30336  0.87008  1.0000
  Ni  Ni13      1.0  0.70818  0.44388000000000005  0.66144  1.0000
  C   C77       1.0  0.71485  0.01519  0.22454  1.0000
  H   H32       1.0  0.71774  0.07113000000000001  0.20043  1.0000
  C   C78       1.0  0.020450000000000003  0.21015000000000006  0.8491699999999998  1.0000
  O   O41       1.0  0.7338499999999998  0.09725000000000003  0.68789  1.0000
  H   H33       1.0  0.73759  0.32961  0.7180199999999998  1.0000
  O   O42       1.0  0.7478399999999997  0.43739  0.92912  1.0000
  Ni  Ni14      1.0  0.7483299999999998  0.58696  0.92687  1.0000
  O   O43       1.0  0.7457499999999998  0.58397  0.86609  1.0000
  H   H34       1.0  0.76064  0.42238000000000014  0.95725  1.0000
  O   O44       1.0  0.7538  0.33286  0.68911  1.0000
  F   F28       1.0  0.75733  0.07995  0.08469  1.0000
  F   F29       1.0  0.7810799999999998  0.32393000000000005  0.08139  1.0000
  C   C79       1.0  0.7934399999999998  0.03402  0.2911  1.0000
  O   O45       1.0  0.80162  0.57713  0.69674  1.0000
  C   C80       1.0  0.80214  0.042020000000000016  0.24997  1.0000
  F   F30       1.0  0.8144199999999998  0.27829  0.01974  1.0000
  O   O46       1.0  0.82238  0.50396  0.61734  1.0000
  H   H35       1.0  0.82411  0.33691000000000004  0.52968  1.0000
  H   H36       1.0  0.81999  0.71296  0.80095  1.0000
  C   C81       1.0  0.83568  0.60008  0.84685  1.0000
  F   F31       1.0  0.8371899999999998  0.2633  0.46532  1.0000
  C   C82       1.0  0.83954  0.1362  0.69651  1.0000
  F   F32       1.0  0.8501699999999998  0.40330999999999995  0.42541  1.0000
  H   H37       1.0  0.8623599999999998  0.98184  0.70981  1.0000
  C   C83       1.0  0.8623099999999999  0.34248  0.053679999999999985  1.0000
  Ni  Ni15      1.0  0.8668699999999998  0.42156000000000005  0.89604  1.0000
  O   O47       1.0  0.8705699999999998  0.19118000000000002  0.89239  1.0000
  H   H38       1.0  0.8717599999999999  0.7806700000000002  0.7196  1.0000
  H   H39       1.0  0.9085299999999996  0.04354000000000001  0.85406  1.0000
  H   H40       1.0  0.9527299999999997  0.1881  0.76753  1.0000
  C   C84       1.0  0.9818999999999998  0.10085000000000001  0.84023  1.0000
  F   F33       1.0  0.9974  0.36123  0.43776  1.0000
  H   H41       1.0  0.9481799999999998  0.9190000000000003  0.35555  1.0000
  C   C85       1.0  0.9723999999999998  0.6924  0.7300699999999998  1.0000
  C   C86       1.0  0.9763399999999999  0.6848000000000002  0.01787  1.0000
  H   H42       1.0  0.9471799999999998  0.72171  0.07862  1.0000
  C   C87       1.0  0.9055900000000001  0.36878  0.45415  1.0000
  C   C88       1.0  0.9392799999999994  0.45069  0.48963999999999996  1.0000
  C   C89       1.0  0.9483899999999997  0.65774  0.0578  1.0000
  C   C90       1.0  0.8904299999999998  0.41760000000000014  0.5270099999999998  1.0000
  O   O48       1.0  0.9708899999999998  0.36196000000000006  0.8686699999999998  1.0000
  O   O49       1.0  0.8825500000000001  0.52784  0.84899  1.0000
  O   O50       1.0  0.9146999999999997  0.666  0.93084  1.0000
  O   O51       1.0  0.9972100000000002  0.54561  0.92344  1.0000
  C   C91       1.0  0.95551  0.25725  0.87275  1.0000
  C   C92       1.0  0.97496  0.6162200000000001  0.9464  1.0000
  O   O52       1.0  0.9074399999999998  0.21848  0.67625  1.0000
  Ni  Ni16      1.0  0.9114  0.37825  0.68034  1.0000
  O   O53       1.0  0.8951899999999999  0.37271000000000004  0.6191  1.0000
  C   C93       1.0  0.8748199999999999  0.44925  0.5999  1.0000
  C   C94       1.0  0.90532  0.59596  0.70478  1.0000
  O   O54       1.0  0.9556199999999998  0.54586  0.68327  1.0000
  O   O55       1.0  0.9395599999999997  0.6176400000000001  0.13906  1.0000
  C   C95       1.0  0.9257599999999999  0.5325  0.11527  1.0000
  O   O56       1.0  0.9578699999999998  0.45584000000000013  0.12884  1.0000
  C   C96       1.0  0.9164799999999997  0.11761000000000003  0.23613  1.0000
  H   H43       1.0  0.9221899999999997  0.12740000000000004  0.20315999999999995  1.0000
  C   C97       1.0  0.8998199999999997  0.10226000000000002  0.31521  1.0000
  H   H44       1.0  0.8925299999999998  0.09632000000000002  0.34833  1.0000
  C   C98       1.0  0.9935799999999999  0.07031  0.25658  1.0000
  C   C99       1.0  0.9441099999999998  0.22927000000000006  0.25833  1.0000
  C   C100      1.0  0.9862799999999998  0.06431  0.29751  1.0000
  C   C101      1.0  0.9318  0.22016  0.29914  1.0000
  H   H45       1.0  0.93985  0.4342900000000001  0.25435  1.0000
  H   H46       1.0  0.97211  0.004449999999999999  0.17779  1.0000
  C   C102      1.0  0.9596399999999999  0.3128000000000001  0.32485  1.0000
  H   H47       1.0  0.9186699999999999  0.36926  0.3203999999999999  1.0000
  C   C103      1.0  0.9272799999999999  0.48758000000000007  0.56117  1.0000
  F   F34       1.0  0.9904099999999998  0.70205  0.61272  1.0000
  C   C104      1.0  0.9518199999999998  0.11247999999999998  0.7532299999999997  1.0000
  C   C105      1.0  0.8836199999999999  0.06775  0.71935  1.0000
  C   C106      1.0  0.94295  0.7782200000000001  0.73558  1.0000
  C   C107      1.0  0.9487199999999999  0.49205000000000004  0.00397  1.0000
  C   C108      1.0  0.9720399999999998  0.59958  0.9902  1.0000
  C   C109      1.0  0.9251199999999999  0.5498  0.07141  1.0000
  C   C110      1.0  0.9144199999999998  0.46404  0.04319  1.0000
  H   H48       1.0  0.9492399999999998  0.42767000000000005  0.98318  1.0000
  F   F35       1.0  0.94151  0.30854  0.06888999999999999  1.0000
  F   F36       1.0  0.9101299999999999  0.8142800000000002  0.9914199999999999  1.0000
  C   C111      1.0  0.8782499999999999  0.69396  0.81952  1.0000
  C   C112      1.0  0.98785  0.77078  0.82347  1.0000
