data_image0
_chemical_formula_structural       CFO2FCFOCOCOFCoCOCoO3COCHFCoFCO2HFC2HFCoCCoO5CoCO2C4HF2C5HC2FC6H3C6H3C6H3C6H3Co3O2C3O6CO3Co3O2C4O7CO3C3HCF3C7H2CF6C4HF4C3F3C7H2CF6C4HCF3C7H2CF6C7H2CF6C7H2CF6C7H2CF6C7H2CF6C7H2CF6
_chemical_formula_sum              "C136 F72 O42 Co12 H36"
_cell_length_a       19.92147
_cell_length_b       21.59721
_cell_length_c       22.76037
_cell_angle_alpha    61.10607000000001
_cell_angle_beta     118.58683
_cell_angle_gamma    133.21953000000002

_symmetry_space_group_name_H-M    'P 1'
_symmetry_Int_Tables_number       1

loop_
  _symmetry_equiv_pos_as_xyz
  'x,y,z'

loop_
  _atom_site_type_symbol
  _atom_site_label
  _atom_site_symmetry_multiplicity
  _atom_site_fract_x
  _atom_site_fract_y
  _atom_site_fract_z
  _atom_site_occupancy
  C   C1        1.0  0.017359999999999792  0.9530599999999999  0.9446799999999999  1.0000
  F   F1        1.0  0.004059999999999973  0.73029  0.25118  1.0000
  O   O1        1.0  0.041699999999999696  0.9856699999999997  0.33518  1.0000
  O   O2        1.0  0.024919999999999744  0.9480299999999997  0.84743  1.0000
  F   F2        1.0  0.008079999999999934  0.46523999999999993  0.7292599999999999  1.0000
  C   C2        1.0  0.028169999999999994  0.67444  0.27377  1.0000
  F   F3        1.0  0.029109999999999813  0.6361799999999997  0.34321  1.0000
  O   O3        1.0  0.03191999999999998  0.018469999999999986  0.13765  1.0000
  C   C3        1.0  0.01671000000000001  0.004289999999999997  0.36633  1.0000
  O   O4        1.0  0.04049999999999995  0.79779  0.11786  1.0000
  C   C4        1.0  0.03344999999999974  0.9815899999999997  0.44328999999999996  1.0000
  O   O5        1.0  0.02953999999999998  0.99932  0.64955  1.0000
  F   F4        1.0  0.04465999999999993  0.4505399999999999  0.058839999999999996  1.0000
  Co  Co1       1.0  0.06262999999999999  0.05346  0.23264999999999997  1.0000
  C   C5        1.0  0.06185999999999992  0.20296999999999993  0.22232999999999997  1.0000
  O   O6        1.0  0.06499000000000016  0.9195  0.9841500000000001  1.0000
  Co  Co2       1.0  0.06715  0.02406000000000001  0.75187  1.0000
  O   O7        1.0  0.0629099999999999  0.13770000000000002  0.8003299999999999  1.0000
  O   O8        1.0  0.05779  0.92835  0.61083  1.0000
  O   O9        1.0  0.0515599999999997  0.7748099999999997  0.6570399999999998  1.0000
  C   C6        1.0  0.0492799999999999  0.5524900000000001  0.69482  1.0000
  O   O10       1.0  0.08951999999999997  0.96282  0.11075  1.0000
  C   C7        1.0  0.05706000000000012  0.6365899999999998  0.74842  1.0000
  H   H1        1.0  0.07814  0.34186  0.12086  1.0000
  F   F5        1.0  0.08412000000000001  0.52686  0.12401  1.0000
  Co  Co3       1.0  0.08631999999999997  0.87837  0.57246  1.0000
  F   F6        1.0  0.07479999999999998  0.18157999999999996  0.38514  1.0000
  C   C8        1.0  0.09695999999999994  0.7826999999999998  0.72067  1.0000
  O   O11       1.0  0.10075999999999989  0.83035  0.74528  1.0000
  O   O12       1.0  0.10542999999999975  0.9774199999999996  0.48335  1.0000
  H   H2        1.0  0.09117999999999983  0.6231599999999998  0.23197999999999996  1.0000
  F   F7        1.0  0.10865000000000005  0.29084  0.61302  1.0000
  C   C9        1.0  0.10019999999999998  0.60731  0.74557  1.0000
  C   C10       1.0  0.10423  0.35312  0.17136  1.0000
  H   H3        1.0  0.9831299999999998  0.6088599999999997  0.72318  1.0000
  F   F8        1.0  0.9785199999999997  0.5601299999999997  0.64475  1.0000
  Co  Co4       1.0  0.15258000000000002  0.007629999999999997  0.17969  1.0000
  C   C11       1.0  0.19916999999999982  0.8822499999999998  0.23701999999999998  1.0000
  Co  Co5       1.0  0.14589999999999984  0.9269099999999998  0.08514  1.0000
  O   O13       1.0  0.9688600000000002  0.15770000000000003  0.19936  1.0000
  O   O14       1.0  0.17935  0.06420999999999999  0.24646  1.0000
  O   O15       1.0  0.11090999999999995  0.18107999999999994  0.22207  1.0000
  O   O16       1.0  0.23435999999999998  0.9279399999999999  0.18257  1.0000
  O   O17       1.0  0.15513999999999986  0.9006299999999998  0.24729  1.0000
  Co  Co6       1.0  0.1188299999999999  0.95087  0.68986  1.0000
  C   C12       1.0  0.13487999999999997  0.18936999999999998  0.7724  1.0000
  O   O18       1.0  0.15625  0.9971999999999999  0.76847  1.0000
  O   O19       1.0  0.15752999999999998  0.15617  0.7548399999999998  1.0000
  C   C13       1.0  0.1994199999999998  0.4101499999999998  0.71425  1.0000
  C   C14       1.0  0.19993999999999998  0.28210999999999997  0.77466  1.0000
  C   C15       1.0  0.19972000000000018  0.34564  0.71339  1.0000
  C   C16       1.0  0.20018999999999998  0.3452799999999999  0.64725  1.0000
  H   H4        1.0  0.18918999999999997  0.45355  0.6661099999999999  1.0000
  F   F9        1.0  0.24129000000000003  0.42878  0.60435  1.0000
  F   F10       1.0  0.25175  0.31643  0.66133  1.0000
  C   C17       1.0  0.11362999999999981  0.7146799999999998  0.7685799999999999  1.0000
  C   C18       1.0  0.1648099999999999  0.3791099999999999  0.30178  1.0000
  C   C19       1.0  0.1125899999999999  0.29119999999999996  0.23031999999999997  1.0000
  C   C20       1.0  0.14615999999999993  0.3058899999999999  0.29656  1.0000
  C   C21       1.0  0.15755999999999995  0.24220999999999998  0.36232999999999993  1.0000
  H   H5        1.0  0.18944999999999995  0.3900099999999999  0.3521699999999999  1.0000
  C   C22       1.0  0.20005  0.80465  0.28085  1.0000
  C   C23       1.0  0.12462999999999984  0.7230199999999998  0.26364  1.0000
  F   F11       1.0  0.9600100000000001  0.60925  0.23821999999999996  1.0000
  C   C24       1.0  0.7765300000000002  0.3420999999999999  0.01684  1.0000
  C   C25       1.0  0.8317700000000001  0.4265199999999999  0.02739  1.0000
  C   C26       1.0  0.7866199999999999  0.4622499999999999  0.01629  1.0000
  C   C27       1.0  0.6880599999999999  0.41293999999999975  0.99604  1.0000
  C   C28       1.0  0.6347299999999999  0.32418999999999987  0.0009099999999999999  1.0000
  C   C29       1.0  0.67729  0.29152  0.0031699999999999996  1.0000
  H   H6        1.0  0.90759  0.46157  0.04712  1.0000
  H   H7        1.0  0.65328  0.4395699999999999  0.9885299999999999  1.0000
  H   H8        1.0  0.6346000000000002  0.22332999999999995  0.00318  1.0000
  C   C30       1.0  0.7432400000000001  0.3294799999999999  0.51941  1.0000
  C   C31       1.0  0.6442900000000001  0.27834000000000003  0.49562999999999996  1.0000
  C   C32       1.0  0.59146  0.2901799999999999  0.50734  1.0000
  C   C33       1.0  0.6348400000000001  0.37028  0.51738  1.0000
  C   C34       1.0  0.7333500000000001  0.4302099999999999  0.53099  1.0000
  C   C35       1.0  0.78875  0.40708999999999995  0.53733  1.0000
  H   H9        1.0  0.60832  0.21931000000000003  0.48111  1.0000
  H   H10       1.0  0.5925600000000001  0.38308  0.52019  1.0000
  H   H11       1.0  0.8645999999999999  0.44727999999999996  0.55709  1.0000
  C   C36       1.0  0.2654899999999999  0.6575499999999997  0.27144  1.0000
  C   C37       1.0  0.35462999999999995  0.71053  0.25638  1.0000
  C   C38       1.0  0.38249  0.67307  0.24516  1.0000
  C   C39       1.0  0.31762000000000007  0.58708  0.23879  1.0000
  C   C40       1.0  0.22729999999999986  0.5348399999999998  0.2492  1.0000
  C   C41       1.0  0.20199999999999985  0.5683599999999998  0.26868  1.0000
  H   H12       1.0  0.40172999999999986  0.7800199999999998  0.25337  1.0000
  H   H13       1.0  0.33846  0.5598  0.22722  1.0000
  H   H14       1.0  0.1339799999999998  0.5258499999999998  0.2812  1.0000
  C   C42       1.0  0.24884999999999982  0.61675  0.7800599999999999  1.0000
  C   C43       1.0  0.33631000000000005  0.68686  0.76152  1.0000
  C   C44       1.0  0.38558999999999954  0.6708999999999996  0.74974  1.0000
  C   C45       1.0  0.3481799999999997  0.5857899999999998  0.75567  1.0000
  C   C46       1.0  0.2629899999999998  0.5150499999999998  0.7755299999999999  1.0000
  C   C47       1.0  0.2141499999999999  0.52977  0.7902899999999999  1.0000
  H   H15       1.0  0.3653399999999998  0.7536399999999998  0.7554999999999998  1.0000
  H   H16       1.0  0.38675  0.5743599999999998  0.74585  1.0000
  H   H17       1.0  0.1501399999999998  0.47481999999999985  0.8087399999999999  1.0000
  Co  Co7       1.0  0.88649  0.9751499999999997  0.12481999999999999  1.0000
  Co  Co8       1.0  0.9779400000000003  0.93292  0.07084999999999998  1.0000
  Co  Co9       1.0  0.8813100000000003  0.024459999999999982  0.23655999999999996  1.0000
  O   O20       1.0  0.94883  0.01639  0.19552  1.0000
  O   O21       1.0  0.8648800000000001  0.9304299999999998  0.05174  1.0000
  C   C48       1.0  0.8029300000000001  0.06484  0.0908  1.0000
  C   C49       1.0  0.30358000000000007  0.11039000000000002  0.09650999999999998  1.0000
  C   C50       1.0  0.9512699999999998  0.7674799999999999  0.08882999999999999  1.0000
  O   O22       1.0  0.24026  0.05943  0.05325  1.0000
  O   O23       1.0  0.28047  0.10596  0.14557  1.0000
  O   O24       1.0  0.77777  0.007409999999999998  0.14723  1.0000
  O   O25       1.0  0.8524800000000001  0.06559  0.06703  1.0000
  O   O26       1.0  0.9780500000000001  0.04549  0.3298  1.0000
  O   O27       1.0  0.91438  0.7983499999999998  0.09284  1.0000
  C   C51       1.0  0.7474299999999998  0.8442399999999998  0.22148  1.0000
  O   O28       1.0  0.8058399999999997  0.8906199999999997  0.26830999999999994  1.0000
  O   O29       1.0  0.7783999999999999  0.8552999999999997  0.17413  1.0000
  O   O30       1.0  0.99873  0.98258  0.97085  1.0000
  Co  Co10      1.0  0.9004999999999999  0.9879499999999999  0.6335799999999999  1.0000
  Co  Co11      1.0  0.9592199999999997  0.9243299999999997  0.5687999999999999  1.0000
  Co  Co12      1.0  0.9267800000000002  0.057500000000000016  0.7487899999999998  1.0000
  O   O31       1.0  0.9705400000000001  0.024540000000000006  0.70684  1.0000
  O   O32       1.0  0.8626300000000001  0.94017  0.55597  1.0000
  C   C52       1.0  0.8879300000000004  0.13789  0.60085  1.0000
  C   C53       1.0  0.9901299999999996  0.9603899999999996  0.87562  1.0000
  C   C54       1.0  0.27268000000000003  0.026539999999999984  0.62855  1.0000
  C   C55       1.0  0.8790899999999999  0.7552299999999997  0.5492699999999999  1.0000
  O   O33       1.0  0.2268799999999998  0.9470799999999997  0.62458  1.0000
  O   O34       1.0  0.24765999999999994  0.04173  0.66158  1.0000
  O   O35       1.0  0.94588  0.1556599999999999  0.66035  1.0000
  O   O36       1.0  0.8756200000000001  0.08515999999999997  0.5758  1.0000
  O   O37       1.0  0.9173099999999998  0.9632699999999995  0.83925  1.0000
  O   O38       1.0  0.9487100000000003  0.80585  0.51913  1.0000
  O   O39       1.0  0.8711500000000001  0.78832  0.57982  1.0000
  C   C56       1.0  0.7513200000000001  0.89225  0.70607  1.0000
  O   O40       1.0  0.7864700000000001  0.97122  0.70422  1.0000
  O   O41       1.0  0.79019  0.8814799999999999  0.6818399999999999  1.0000
  O   O42       1.0  0.9879099999999998  0.9853999999999999  0.46897999999999995  1.0000
  C   C57       1.0  0.22435999999999995  0.42643  0.7770899999999998  1.0000
  C   C58       1.0  0.24166  0.37161999999999995  0.8398099999999998  1.0000
  C   C59       1.0  0.22810999999999995  0.29933  0.8378099999999999  1.0000
  H   H18       1.0  0.2286199999999999  0.25078  0.8849899999999999  1.0000
  C   C60       1.0  0.27286999999999995  0.3890699999999998  0.9088  1.0000
  F   F12       1.0  0.20467000000000007  0.38447  0.9164399999999999  1.0000
  F   F13       1.0  0.35760000000000003  0.4713899999999998  0.91221  1.0000
  F   F14       1.0  0.28611000000000003  0.32856  0.96363  1.0000
  C   C61       1.0  0.5571100000000001  0.7497  0.7943399999999999  1.0000
  C   C62       1.0  0.48125999999999997  0.74172  0.7379599999999998  1.0000
  C   C63       1.0  0.49483  0.7787899999999999  0.67027  1.0000
  C   C64       1.0  0.57977  0.8119699999999997  0.6606  1.0000
  C   C65       1.0  0.6556999999999998  0.8205899999999999  0.71708  1.0000
  C   C66       1.0  0.64089  0.78097  0.78455  1.0000
  C   C67       1.0  0.7110999999999998  0.76751  0.8463299999999999  1.0000
  H   H19       1.0  0.54663  0.72168  0.84624  1.0000
  H   H20       1.0  0.5892600000000001  0.8366  0.6088999999999999  1.0000
  C   C68       1.0  0.4168299999999999  0.77825  0.60826  1.0000
  F   F15       1.0  0.7569600000000001  0.82415  0.88632  1.0000
  F   F16       1.0  0.7773199999999998  0.7808999999999996  0.8272999999999999  1.0000
  F   F17       1.0  0.66344  0.6824699999999998  0.88585  1.0000
  F   F18       1.0  0.37131  0.7963499999999998  0.62117  1.0000
  F   F19       1.0  0.3518400000000001  0.69687  0.59367  1.0000
  F   F20       1.0  0.45306  0.84115  0.55091  1.0000
  C   C69       1.0  0.24060999999999969  0.6967499999999995  0.82491  1.0000
  C   C70       1.0  0.19341999999999987  0.6359499999999998  0.78648  1.0000
  C   C71       1.0  0.20231000000000002  0.73832  0.8148399999999999  1.0000
  C   C72       1.0  0.25515999999999994  0.8061100000000001  0.8538499999999999  1.0000
  H   H21       1.0  0.30977999999999983  0.7159799999999995  0.85873  1.0000
  F   F21       1.0  0.32740999999999965  0.8047099999999996  0.90799  1.0000
  F   F22       1.0  0.1936399999999999  0.7895199999999999  0.88086  1.0000
  F   F23       1.0  0.2938599999999997  0.8886299999999997  0.80975  1.0000
  F   F24       1.0  0.11045000000000006  0.57971  0.66075  1.0000
  C   C73       1.0  0.16196999999999995  0.4432399999999999  0.24286999999999997  1.0000
  C   C74       1.0  0.12414999999999998  0.4266999999999999  0.17708  1.0000
  C   C75       1.0  0.11241999999999996  0.49121999999999993  0.11236999999999998  1.0000
  F   F25       1.0  0.23062999999999995  0.28601999999999994  0.41327  1.0000
  F   F26       1.0  0.17890999999999993  0.19961999999999988  0.35253  1.0000
  F   F27       1.0  0.19753999999999983  0.5577799999999998  0.09258  1.0000
  C   C76       1.0  0.6254100000000001  0.7328399999999998  0.28886  1.0000
  C   C77       1.0  0.64668  0.77752  0.22387  1.0000
  C   C78       1.0  0.57598  0.7798799999999998  0.16540999999999997  1.0000
  C   C79       1.0  0.49825  0.7610199999999998  0.17476999999999998  1.0000
  C   C80       1.0  0.4801799999999999  0.7226499999999998  0.24061999999999997  1.0000
  C   C81       1.0  0.5449200000000001  0.70872  0.29859  1.0000
  C   C82       1.0  0.52818  0.6681699999999998  0.3707  1.0000
  H   H22       1.0  0.67616  0.7240799999999997  0.3328  1.0000
  H   H23       1.0  0.44718000000000013  0.76901  0.13029  1.0000
  C   C83       1.0  0.5787099999999998  0.7946699999999998  0.09408999999999998  1.0000
  F   F28       1.0  0.6050599999999999  0.6710499999999998  0.4208299999999999  1.0000
  F   F29       1.0  0.44998  0.58152  0.37649  1.0000
  F   F30       1.0  0.51306  0.71355  0.3836  1.0000
  F   F31       1.0  0.60819  0.7504999999999997  0.09745  1.0000
  F   F32       1.0  0.64005  0.88296  0.06691  1.0000
  F   F33       1.0  0.48995999999999984  0.7639099999999998  0.04972  1.0000
  C   C84       1.0  0.1460899999999998  0.6764299999999996  0.25751999999999997  1.0000
  C   C85       1.0  0.23740000000000003  0.69642  0.28748  1.0000
  C   C86       1.0  0.30351999999999985  0.7595499999999997  0.32774  1.0000
  C   C87       1.0  0.28802999999999995  0.8189899999999998  0.31813  1.0000
  H   H24       1.0  0.34500999999999993  0.8771899999999999  0.33792999999999995  1.0000
  C   C88       1.0  0.38369999999999993  0.7584199999999998  0.3854  1.0000
  F   F34       1.0  0.46719000000000005  0.82184  0.36332  1.0000
  F   F35       1.0  0.3657000000000001  0.67724  0.40747999999999995  1.0000
  F   F36       1.0  0.3946600000000002  0.77632  0.44135  1.0000
  C   C89       1.0  0.8889800000000001  0.2692599999999999  0.52522  1.0000
  C   C90       1.0  0.8383800000000001  0.18028  0.56092  1.0000
  C   C91       1.0  0.75817  0.14473999999999992  0.57976  1.0000
  C   C92       1.0  0.74894  0.20139  0.58339  1.0000
  C   C93       1.0  0.7916700000000002  0.2879  0.54266  1.0000
  C   C94       1.0  0.86072  0.3215699999999999  0.5105  1.0000
  C   C95       1.0  0.9081300000000002  0.41351  0.46435  1.0000
  H   H25       1.0  0.95155  0.2983099999999999  0.51089  1.0000
  H   H26       1.0  0.6959900000000001  0.1743099999999999  0.60813  1.0000
  C   C96       1.0  0.67518  0.049279999999999984  0.58505  1.0000
  F   F37       1.0  0.95888  0.42663999999999996  0.42894999999999994  1.0000
  F   F38       1.0  0.97001  0.47396999999999995  0.50402  1.0000
  F   F39       1.0  0.8413799999999997  0.4279499999999998  0.41592  1.0000
  F   F40       1.0  0.6624  0.009339999999999956  0.65163  1.0000
  F   F41       1.0  0.6877700000000001  0.005809999999999993  0.5669  1.0000
  F   F42       1.0  0.5940400000000002  0.0428  0.54081  1.0000
  C   C97       1.0  0.7817599999999999  0.6490499999999997  0.47980999999999996  1.0000
  C   C98       1.0  0.8078500000000001  0.66319  0.5437  1.0000
  C   C99       1.0  0.7986800000000002  0.5945800000000001  0.6032699999999999  1.0000
  C   C100      1.0  0.7879000000000003  0.52412  0.6002  1.0000
  C   C101      1.0  0.7763900000000001  0.5171799999999998  0.537  1.0000
  C   C102      1.0  0.7758299999999998  0.5820799999999997  0.47629  1.0000
  C   C103      1.0  0.76442  0.57777  0.40714999999999996  1.0000
  H   H27       1.0  0.77988  0.69795  0.43335999999999997  1.0000
  H   H28       1.0  0.7835099999999999  0.47234000000000004  0.6460999999999999  1.0000
  C   C104      1.0  0.79135  0.59233  0.66764  1.0000
  F   F43       1.0  0.78953  0.6567299999999998  0.35865  1.0000
  F   F44       1.0  0.6711000000000001  0.51347  0.38293  1.0000
  F   F45       1.0  0.8217900000000002  0.5586900000000001  0.41394999999999993  1.0000
  F   F46       1.0  0.7282699999999999  0.6101199999999999  0.64987  1.0000
  F   F47       1.0  0.8786899999999996  0.6544499999999998  0.70014  1.0000
  F   F48       1.0  0.7593399999999999  0.5110799999999998  0.71381  1.0000
  C   C105      1.0  0.34368  0.14012  0.5294799999999998  1.0000
  C   C106      1.0  0.35636  0.09794000000000001  0.59968  1.0000
  C   C107      1.0  0.44498000000000004  0.11275  0.63749  1.0000
  C   C108      1.0  0.51904  0.1693999999999999  0.60381  1.0000
  C   C109      1.0  0.50662  0.21283999999999997  0.53403  1.0000
  C   C110      1.0  0.41625000000000006  0.19253  0.4951499999999999  1.0000
  C   C111      1.0  0.39695  0.22780999999999996  0.4175499999999999  1.0000
  H   H29       1.0  0.27591  0.12932  0.5009999999999999  1.0000
  H   H30       1.0  0.58812  0.18325999999999998  0.63245  1.0000
  C   C112      1.0  0.4595099999999999  0.06573999999999999  0.71295  1.0000
  F   F49       1.0  0.3039400000000001  0.16938000000000003  0.38745  1.0000
  F   F50       1.0  0.45391  0.24001999999999993  0.3889  1.0000
  F   F51       1.0  0.4133300000000001  0.30682000000000004  0.40224999999999994  1.0000
  F   F52       1.0  0.5541100000000001  0.09982  0.7434799999999999  1.0000
  F   F53       1.0  0.4099499999999999  0.9779799999999998  0.71823  1.0000
  F   F54       1.0  0.42755000000000004  0.07403000000000001  0.74909  1.0000
  C   C113      1.0  0.81496  0.24022999999999997  0.10584  1.0000
  C   C114      1.0  0.8198100000000003  0.2962499999999999  0.04014  1.0000
  C   C115      1.0  0.83269  0.2833600000000001  0.9916199999999998  1.0000
  C   C116      1.0  0.8291300000000001  0.20839999999999995  0.00875  1.0000
  C   C117      1.0  0.80394  0.14331999999999995  0.07022  1.0000
  C   C118      1.0  0.78431  0.15611  0.11468999999999999  1.0000
  C   C119      1.0  0.7157000000000001  0.07967999999999999  0.16123  1.0000
  H   H31       1.0  0.8137499999999999  0.2540599999999999  0.14508  1.0000
  H   H32       1.0  0.84158  0.19917999999999988  0.97316  1.0000
  C   C120      1.0  0.8437099999999996  0.34521999999999986  0.9207199999999999  1.0000
  F   F55       1.0  0.6747900000000002  0.10332  0.17331  1.0000
  F   F56       1.0  0.7633000000000001  0.05401  0.22419999999999998  1.0000
  F   F57       1.0  0.64256  0.009749999999999997  0.13071  1.0000
  F   F58       1.0  0.89967  0.43076999999999993  0.925  1.0000
  F   F59       1.0  0.75551  0.32322999999999996  0.87894  1.0000
  F   F60       1.0  0.8859900000000002  0.3406299999999998  0.89071  1.0000
  C   C121      1.0  0.81259  0.5350599999999998  0.0901  1.0000
  C   C122      1.0  0.8387500000000001  0.54309  0.03774999999999999  1.0000
  C   C123      1.0  0.8901400000000002  0.6269899999999998  0.99418  1.0000
  C   C124      1.0  0.9179099999999997  0.7006899999999998  0.00647  1.0000
  C   C125      1.0  0.8908200000000001  0.6916399999999998  0.05862  1.0000
  C   C126      1.0  0.8274200000000002  0.60691  0.09415  1.0000
  C   C127      1.0  0.76517  0.59184  0.12699  1.0000
  H   H33       1.0  0.7717499999999999  0.4707499999999999  0.12267  1.0000
  H   H34       1.0  0.9635899999999997  0.7654699999999995  0.9772199999999999  1.0000
  C   C128      1.0  0.91715  0.63854  0.93558  1.0000
  F   F61       1.0  0.6956400000000001  0.50352  0.14779  1.0000
  F   F62       1.0  0.7210400000000001  0.63184  0.07961999999999998  1.0000
  F   F63       1.0  0.81874  0.6267999999999998  0.18389  1.0000
  F   F64       1.0  0.83702  0.5867099999999996  0.8914699999999999  1.0000
  F   F65       1.0  0.9774200000000001  0.6149699999999999  0.96214  1.0000
  F   F66       1.0  0.96281  0.7244799999999997  0.89716  1.0000
  C   C129      1.0  0.39785999999999994  0.23213999999999996  0.01112  1.0000
  C   C130      1.0  0.39686  0.18470999999999996  0.08023  1.0000
  C   C131      1.0  0.47816000000000003  0.18767000000000003  0.12428999999999998  1.0000
  C   C132      1.0  0.5506899999999999  0.22429999999999994  0.09551  1.0000
  C   C133      1.0  0.5464599999999998  0.26384999999999986  0.02463  1.0000
  C   C134      1.0  0.4663399999999999  0.2629899999999998  0.98136  1.0000
  C   C135      1.0  0.45378999999999997  0.29600999999999983  0.9036199999999999  1.0000
  H   H35       1.0  0.33836000000000005  0.23471999999999998  0.97856  1.0000
  H   H36       1.0  0.61258  0.22545  0.12856  1.0000
  C   C136      1.0  0.4867  0.14980999999999994  0.20147  1.0000
  F   F67       1.0  0.35874999999999996  0.25012999999999996  0.87111  1.0000
  F   F68       1.0  0.49732000000000004  0.28497999999999996  0.88071  1.0000
  F   F69       1.0  0.49198000000000003  0.38386  0.88471  1.0000
  F   F70       1.0  0.4307200000000001  0.059499999999999977  0.21567999999999998  1.0000
  F   F71       1.0  0.45823000000000014  0.17452000000000004  0.22577999999999998  1.0000
  F   F72       1.0  0.57926  0.17938  0.23666  1.0000
