data_image0
_chemical_formula_structural       NHCHCOHC3OC3HC7H3C2HC2H3C2NHCOC2NO2CONiHOCOC2NiCH2OHO4H2CO2C3H2C2OHOC2NiCHC3H2COC2HCHC4NiHNC5NOH2OHC3HOC3HCOHC4HOCHC6OCHNOCHC3OC5HC5HNHC3NOCNCHCOH2C2H2C2H3C2OC2HC8OCHCNiCHCHCO2HNHOC2OC2OC10OC2HOH3ONiHOCOC2H2ONiH2ONOCHCHCHC5O2COC2NiOHCOCHC2OH2C2HNC3HC3HOCHC4HCOC3HC3O
_chemical_formula_sum              "N12 H76 C168 O52 Ni8"
_cell_length_a       12.97035
_cell_length_b       9.10979
_cell_length_c       42.85529
_cell_angle_alpha    96.17847000000002
_cell_angle_beta     81.59983999999999
_cell_angle_gamma    113.27796

_space_group_name_H-M_alt    "P 1"
_space_group_IT_number       1

loop_
  _space_group_symop_operation_xyz
  'x, y, z'

loop_
  _atom_site_type_symbol
  _atom_site_label
  _atom_site_symmetry_multiplicity
  _atom_site_fract_x
  _atom_site_fract_y
  _atom_site_fract_z
  _atom_site_occupancy
  N   N1        1.0  0.08308  0.14726000000000003  0.06775000000000002  1.0000
  H   H1        1.0  0.07870999999999997  0.4127  0.10058  1.0000
  C   C1        1.0  0.19855000000000006  0.225  0.06567  1.0000
  H   H2        1.0  0.42586  0.36917  0.05376000000000001  1.0000
  C   C2        1.0  0.04417999999999998  0.31763000000000013  0.62226  1.0000
  O   O1        1.0  0.08005999999999996  0.06731000000000002  0.5640100000000001  1.0000
  H   H3        1.0  0.15838999999999998  0.47918  0.65363  1.0000
  C   C3        1.0  0.26243  0.25838  0.03594  1.0000
  C   C4        1.0  0.030560000000000004  0.08024000000000002  0.04119  1.0000
  C   C5        1.0  0.38106  0.3352100000000001  0.03301  1.0000
  O   O2        1.0  0.9243800000000001  0.9790200000000001  0.0438  1.0000
  C   C6        1.0  0.967  0.16137000000000012  0.6165400000000001  1.0000
  C   C7        1.0  0.09698000000000001  0.3587900000000001  0.64985  1.0000
  C   C8        1.0  0.4429100000000001  0.36192  0.0030700000000000002  1.0000
  H   H4        1.0  0.5342599999999998  0.41738  0.00125  1.0000
  C   C9        1.0  0.2065  0.21063000000000007  0.00868  1.0000
  C   C10       1.0  0.08987  0.11898  0.011220000000000003  1.0000
  C   C11       1.0  0.9401399999999995  0.04726  0.63917  1.0000
  C   C12       1.0  0.38653999999999994  0.31813  0.9757300000000001  1.0000
  C   C13       1.0  0.07329000000000001  0.24397  0.67208  1.0000
  C   C14       1.0  0.2679499999999999  0.24731000000000009  0.9787500000000002  1.0000
  C   C15       1.0  0.03440999999999997  0.06900000000000003  0.9838200000000001  1.0000
  H   H5        1.0  0.3864  0.06814000000000008  0.8741800000000002  1.0000
  H   H6        1.0  0.9453599999999999  0.9931600000000002  0.98524  1.0000
  H   H7        1.0  0.88055  0.9262600000000002  0.6348900000000001  1.0000
  C   C16       1.0  0.9929300000000001  0.08873000000000003  0.66698  1.0000
  C   C17       1.0  0.13241  0.28897  0.70058  1.0000
  H   H8        1.0  0.39043  0.11178000000000003  0.8183700000000002  1.0000
  C   C18       1.0  0.09357999999999995  0.11856000000000004  0.9544400000000001  1.0000
  C   C19       1.0  0.98785  0.08844000000000005  0.56055  1.0000
  H   H9        1.0  0.9726799999999998  0.9999  0.6842200000000002  1.0000
  H   H10       1.0  0.10945999999999999  0.06479  0.50486  1.0000
  H   H11       1.0  0.06523999999999994  0.40602  0.6048900000000001  1.0000
  C   C20       1.0  0.21104999999999988  0.20612000000000008  0.9517000000000002  1.0000
  C   C21       1.0  0.4243499999999999  0.18838000000000005  0.86608  1.0000
  N   N2        1.0  0.9216099999999999  0.11619000000000004  0.5866600000000001  1.0000
  H   H12       1.0  0.048489999999999964  0.08459999999999997  0.93376  1.0000
  C   C22       1.0  0.4465899999999999  0.3383800000000001  0.9453100000000002  1.0000
  O   O3        1.0  0.55774  0.3902800000000001  0.94191  1.0000
  C   C23       1.0  0.42893999999999993  0.21266000000000007  0.8342700000000001  1.0000
  C   C24       1.0  0.2734399999999999  0.2457  0.92218  1.0000
  N   N3        1.0  0.38926  0.30034000000000005  0.91915  1.0000
  O   O4        1.0  0.21645000000000003  0.24211000000000002  0.70173  1.0000
  O   O5        1.0  0.12835999999999997  0.4143900000000001  0.71774  1.0000
  C   C25       1.0  0.45023999999999986  0.31947000000000003  0.8880900000000003  1.0000
  O   O6        1.0  0.22076000000000004  0.23099000000000008  0.89721  1.0000
  Ni  Ni1       1.0  0.3186899999999999  0.29476000000000013  0.73763  1.0000
  H   H13       1.0  0.2664  0.48702000000000006  0.77603  1.0000
  O   O7        1.0  0.41222999999999993  0.27747  0.77204  1.0000
  C   C26       1.0  0.4761  0.36850000000000005  0.8236700000000001  1.0000
  O   O8        1.0  0.31906  0.5021700000000001  0.7563600000000001  1.0000
  C   C27       1.0  0.46826999999999996  0.3980700000000001  0.7910900000000001  1.0000
  C   C28       1.0  0.5098900000000001  0.4735  0.87734  1.0000
  Ni  Ni2       1.0  0.27417  0.60251  0.7244100000000001  1.0000
  C   C29       1.0  0.52306  0.4983700000000001  0.8451900000000002  1.0000
  H   H14       1.0  0.11367000000000009  0.8505600000000003  0.6632000000000001  1.0000
  H   H15       1.0  0.5377899999999998  0.57469  0.89409  1.0000
  O   O9        1.0  0.9749599999999997  0.6159300000000001  0.9459600000000001  1.0000
  H   H16       1.0  0.8925400000000001  0.5719200000000002  0.00278  1.0000
  O   O10       1.0  0.4581900000000001  0.4120000000000001  0.70792  1.0000
  O   O11       1.0  0.41467  0.7431900000000004  0.8041800000000002  1.0000
  O   O12       1.0  0.23695999999999998  0.73445  0.69564  1.0000
  O   O13       1.0  0.35891999999999996  0.5258200000000001  0.6858400000000001  1.0000
  H   H17       1.0  0.30591999999999997  0.54827  0.8495000000000001  1.0000
  H   H18       1.0  0.13419000000000003  0.9634900000000001  0.61182  1.0000
  C   C30       1.0  0.32014  0.76869  0.80929  1.0000
  O   O14       1.0  0.29403999999999997  0.8412500000000003  0.7884000000000001  1.0000
  O   O15       1.0  0.5368799999999998  0.53459  0.7795700000000001  1.0000
  C   C31       1.0  0.19505  0.93633  0.65396  1.0000
  C   C32       1.0  0.26212  0.62516  0.85937  1.0000
  C   C33       1.0  0.25165999999999994  0.7344900000000001  0.8404900000000001  1.0000
  H   H19       1.0  0.5627  0.61937  0.83737  1.0000
  H   H20       1.0  0.27448999999999996  0.56916  0.56896  1.0000
  C   C34       1.0  0.28075  0.8913700000000002  0.69826  1.0000
  C   C35       1.0  0.45410999999999996  0.50718  0.68744  1.0000
  O   O16       1.0  0.3187600000000001  0.40714  0.60509  1.0000
  H   H21       1.0  0.1761  0.90689  0.8389  1.0000
  O   O17       1.0  0.29245  0.9665300000000001  0.72651  1.0000
  C   C36       1.0  0.20650999999999994  0.00015999999999999955  0.62486  1.0000
  C   C37       1.0  0.18810999999999986  0.8255000000000002  0.8533100000000001  1.0000
  Ni  Ni3       1.0  0.4771599999999999  0.67631  0.76045  1.0000
  C   C38       1.0  0.22300999999999982  0.62261  0.8915600000000002  1.0000
  H   H22       1.0  0.24049999999999994  0.54842  0.9064500000000001  1.0000
  C   C39       1.0  0.28897  0.9795000000000001  0.67069  1.0000
  C   C40       1.0  0.97307  0.63517  0.01194  1.0000
  C   C41       1.0  0.14844999999999997  0.82202  0.88558  1.0000
  H   H23       1.0  0.90104  0.58511  0.05998  1.0000
  H   H24       1.0  0.25789  0.6463800000000003  0.51736  1.0000
  C   C42       1.0  0.07050999999999992  0.69541  0.95823  1.0000
  O   O18       1.0  0.42582  0.7818600000000002  0.7316700000000002  1.0000
  C   C43       1.0  0.17224999999999993  0.72816  0.90518  1.0000
  C   C44       1.0  0.28733999999999993  0.49845000000000006  0.54789  1.0000
  H   H25       1.0  0.10600999999999998  0.89995  0.89571  1.0000
  C   C45       1.0  0.97781  0.64361  0.04461  1.0000
  H   H26       1.0  0.5101800000000001  0.7760600000000002  0.65614  1.0000
  C   C46       1.0  0.31747  0.31256  0.57949  1.0000
  C   C47       1.0  0.27870999999999996  0.54324  0.51844  1.0000
  C   C48       1.0  0.31200999999999995  0.10684  0.61208  1.0000
  C   C49       1.0  0.0718699999999999  0.70851  0.9913600000000002  1.0000
  Ni  Ni4       1.0  0.41429  0.9726500000000001  0.7542900000000001  1.0000
  H   H27       1.0  0.47952  0.811  0.71231  1.0000
  N   N4        1.0  0.16874000000000006  0.7654600000000001  0.93876  1.0000
  C   C50       1.0  0.5498799999999998  0.57319  0.6630200000000002  1.0000
  C   C51       1.0  0.39484  0.08539000000000002  0.65778  1.0000
  C   C52       1.0  0.31025  0.36136  0.55007  1.0000
  C   C53       1.0  0.56225  0.7086500000000001  0.64768  1.0000
  C   C54       1.0  0.4064699999999999  0.14734000000000008  0.6283600000000001  1.0000
  N   N5        1.0  0.32426  0.16737  0.58154  1.0000
  O   O19       1.0  0.27568  0.6327  0.45826  1.0000
  H   H28       1.0  0.46882999999999997  0.11365000000000003  0.6698  1.0000
  H   H29       1.0  0.7562300000000002  0.85545  0.80294  1.0000
  O   O20       1.0  0.62607  0.86318  0.76491  1.0000
  H   H30       1.0  0.61704  0.3917000000000001  0.6648300000000001  1.0000
  C   C55       1.0  0.2961  0.45431000000000016  0.49063  1.0000
  C   C56       1.0  0.6210899999999997  0.49111000000000005  0.6522700000000001  1.0000
  C   C57       1.0  0.29245  0.50109  0.46065  1.0000
  H   H31       1.0  0.16785999999999998  0.27382  0.38934  1.0000
  O   O21       1.0  0.99729  0.6663900000000003  0.10952  1.0000
  C   C58       1.0  0.32288999999999995  0.26857000000000003  0.5225500000000001  1.0000
  C   C59       1.0  0.08082000000000006  0.7296100000000002  0.05728  1.0000
  C   C60       1.0  0.62656  0.99264  0.78196  1.0000
  H   H32       1.0  0.48912999999999995  0.22192000000000003  0.6176700000000002  1.0000
  C   C61       1.0  0.17411000000000007  0.7968600000000002  0.00398  1.0000
  O   O22       1.0  0.5403299999999999  0.038890000000000036  0.7835400000000001  1.0000
  H   H33       1.0  0.44827  0.68921  0.94116  1.0000
  C   C62       1.0  0.33555  0.07452  0.55488  1.0000
  C   C63       1.0  0.31800999999999996  0.31679000000000007  0.4927600000000001  1.0000
  C   C64       1.0  0.26656  0.86318  0.95104  1.0000
  C   C65       1.0  0.7475  0.95397  0.8180800000000001  1.0000
  H   H34       1.0  0.79423  0.88274  0.85835  1.0000
  O   O23       1.0  0.54496  0.8624100000000002  0.8954500000000002  1.0000
  C   C66       1.0  0.63486  0.7494600000000002  0.6198400000000001  1.0000
  H   H35       1.0  0.6358700000000003  0.8450500000000001  0.60678  1.0000
  C   C67       1.0  0.33583999999999997  0.12421000000000001  0.52485  1.0000
  C   C68       1.0  0.08724000000000004  0.74335  0.09017  1.0000
  C   C69       1.0  0.70102  0.05310000000000004  0.8075500000000001  1.0000
  C   C70       1.0  0.24247000000000002  0.37563  0.38149  1.0000
  C   C71       1.0  0.17852000000000007  0.8079000000000002  0.03693  1.0000
  C   C72       1.0  0.76966  0.96974  0.84951  1.0000
  O   O24       1.0  0.34354  0.9365800000000001  0.5574500000000001  1.0000
  C   C73       1.0  0.27132999999999996  0.87857  0.9838200000000001  1.0000
  H   H36       1.0  0.40813  0.63716  0.99745  1.0000
  N   N6        1.0  0.31024000000000007  0.4131100000000001  0.43382  1.0000
  O   O25       1.0  0.3570399999999999  0.9411300000000002  0.9319600000000002  1.0000
  C   C74       1.0  0.6893699999999999  0.52688  0.62346  1.0000
  H   H37       1.0  0.22101  0.31557  0.33225  1.0000
  C   C75       1.0  0.5079500000000001  0.7643400000000004  0.9571700000000001  1.0000
  C   C76       1.0  0.69132  0.65066  0.60621  1.0000
  C   C77       1.0  0.31685  0.4706  0.40322  1.0000
  O   O26       1.0  0.5483  0.60308  0.56174  1.0000
  C   C78       1.0  0.33133999999999997  0.22439  0.46525  1.0000
  C   C79       1.0  0.27208  0.40031  0.34913  1.0000
  C   C80       1.0  0.6227  0.93792  0.9146400000000002  1.0000
  C   C81       1.0  0.48663  0.7314300000000002  0.9891200000000001  1.0000
  C   C82       1.0  0.33024  0.2770500000000001  0.4356800000000001  1.0000
  H   H38       1.0  0.73427  0.45160000000000006  0.6134900000000001  1.0000
  C   C83       1.0  0.3447299999999999  0.029059999999999992  0.49727000000000005  1.0000
  C   C84       1.0  0.74534  0.08412000000000004  0.8705000000000002  1.0000
  C   C85       1.0  0.69983  0.18766000000000005  0.8268500000000001  1.0000
  C   C86       1.0  0.60292  0.89783  0.94633  1.0000
  C   C87       1.0  0.34385  0.0796  0.46769  1.0000
  H   H39       1.0  0.67375  0.27356  0.81821  1.0000
  N   N7        1.0  0.18663  0.83846  0.10208  1.0000
  H   H40       1.0  0.3530100000000001  0.9163800000000001  0.49862  1.0000
  C   C88       1.0  0.71895  0.20075999999999997  0.85851  1.0000
  C   C89       1.0  0.40932  0.60744  0.39305  1.0000
  C   C90       1.0  0.2801100000000001  0.9008800000000002  0.04949  1.0000
  N   N8        1.0  0.7213299999999999  0.05854  0.90379  1.0000
  O   O27       1.0  0.44782  0.68327  0.05396  1.0000
  C   C91       1.0  0.37168  0.9751100000000001  0.9966800000000002  1.0000
  N   N9        1.0  0.73048  0.65564  0.57295  1.0000
  C   C92       1.0  0.65502  0.63179  0.55165  1.0000
  H   H41       1.0  0.53006  0.6105500000000003  0.50519  1.0000
  C   C93       1.0  0.37492  0.5221  0.33864  1.0000
  O   O28       1.0  0.3523  0.19844000000000003  0.40961000000000003  1.0000
  H   H42       1.0  0.46532000000000007  0.68483  0.40972  1.0000
  H   H43       1.0  0.25687  0.69135  0.14089000000000002  1.0000
  C   C94       1.0  0.5614400000000002  0.8289300000000001  0.01058  1.0000
  C   C95       1.0  0.18959  0.86838  0.1357  1.0000
  H   H44       1.0  0.7195999999999999  0.68374  0.06659  1.0000
  H   H45       1.0  0.35148  0.004830000000000043  0.44676000000000005  1.0000
  C   C96       1.0  0.43593  0.63552  0.36091  1.0000
  C   C97       1.0  0.2826900000000001  0.9145000000000002  0.08234  1.0000
  H   H46       1.0  0.12582  0.055360000000000006  0.1389  1.0000
  H   H47       1.0  0.4466899999999999  0.04225999999999998  0.9815500000000001  1.0000
  H   H48       1.0  0.7038799999999998  0.29314  0.8743  1.0000
  C   C98       1.0  0.37643  0.9846700000000002  0.02918  1.0000
  C   C99       1.0  0.24350999999999998  0.79671  0.15152  1.0000
  O   O29       1.0  0.37907  0.45138  0.28252000000000005  1.0000
  C   C100      1.0  0.5418000000000001  0.7978100000000002  0.04283  1.0000
  C   C101      1.0  0.1685  0.0003300000000000024  0.15055  1.0000
  H   H49       1.0  0.7012199999999998  0.53034  0.11245000000000001  1.0000
  C   C102      1.0  0.67803  0.9952400000000001  0.9676300000000002  1.0000
  C   C103      1.0  0.61518  0.61893  0.4972500000000001  1.0000
  C   C104      1.0  0.6903700000000003  0.63523  0.51916  1.0000
  C   C105      1.0  0.4350999999999999  0.50064  0.30771  1.0000
  C   C106      1.0  0.84126  0.6797399999999999  0.56288  1.0000
  C   C107      1.0  0.67515  0.7066400000000003  0.08880000000000002  1.0000
  C   C108      1.0  0.79651  0.15377000000000002  0.9242100000000001  1.0000
  C   C109      1.0  0.6560999999999999  0.96255  0.9999000000000001  1.0000
  O   O30       1.0  0.91314  0.70761  0.58371  1.0000
  C   C110      1.0  0.2944300000000001  0.8742100000000003  0.17862000000000003  1.0000
  H   H50       1.0  0.5114  0.7351000000000002  0.35308  1.0000
  C   C111      1.0  0.66435  0.61949  0.11479000000000002  1.0000
  Ni  Ni5       1.0  0.45052000000000003  0.4672300000000001  0.23485000000000006  1.0000
  C   C112      1.0  0.21845000000000003  0.07675  0.17775  1.0000
  H   H51       1.0  0.34497  0.8263800000000002  0.18902  1.0000
  C   C113      1.0  0.29138  0.02319  0.18986  1.0000
  H   H52       1.0  0.45482  0.06003000000000001  0.038520000000000006  1.0000
  C   C114      1.0  0.77404  0.12675  0.95678  1.0000
  O   O31       1.0  0.48452  0.48701000000000005  0.18655000000000002  1.0000
  O   O32       1.0  0.36825  0.22476  0.23045  1.0000
  H   H53       1.0  0.21174999999999997  0.18856000000000006  0.18697000000000003  1.0000
  N   N10       1.0  0.62012  0.8871800000000001  0.06277  1.0000
  H   H54       1.0  0.5907200000000001  0.60269  0.44845000000000007  1.0000
  O   O33       1.0  0.37703999999999993  0.005440000000000001  0.09434  1.0000
  C   C115      1.0  0.65015  0.61599  0.46493000000000007  1.0000
  C   C116      1.0  0.62462  0.81838  0.09094  1.0000
  O   O34       1.0  0.8902900000000002  0.2696400000000001  0.91331  1.0000
  C   C117      1.0  0.80232  0.655  0.50844  1.0000
  C   C118      1.0  0.87858  0.6768299999999999  0.53034  1.0000
  O   O35       1.0  0.53423  0.4932000000000001  0.30746  1.0000
  C   C119      1.0  0.38737  0.14099  0.20507  1.0000
  C   C120      1.0  0.60353  0.6442900000000003  0.14342000000000002  1.0000
  C   C121      1.0  0.72697  0.06589  0.02163  1.0000
  C   C122      1.0  0.58678  0.54559  0.17034  1.0000
  C   C123      1.0  0.70468  0.02846  0.05365  1.0000
  C   C124      1.0  0.5677299999999998  0.84822  0.11981  1.0000
  C   C125      1.0  0.8457799999999999  0.22882000000000008  0.97855  1.0000
  C   C126      1.0  0.7615400000000002  0.6319400000000002  0.45402  1.0000
  C   C127      1.0  0.5575599999999998  0.7618300000000001  0.14602000000000004  1.0000
  C   C128      1.0  0.8381800000000001  0.6542300000000001  0.47580000000000006  1.0000
  O   O36       1.0  0.59445  0.46070000000000005  0.24128  1.0000
  C   C129      1.0  0.9912599999999999  0.6989100000000003  0.5194  1.0000
  C   C130      1.0  0.82126  0.20031000000000004  0.01082  1.0000
  H   H55       1.0  0.0517099999999999  0.71803  0.5359200000000001  1.0000
  O   O37       1.0  0.48765  0.18709000000000006  0.18871000000000002  1.0000
  H   H56       1.0  0.6536199999999999  0.56996  0.24274  1.0000
  H   H57       1.0  0.52988  0.93598  0.12176  1.0000
  H   H58       1.0  0.92182  0.32800000000000007  0.9705300000000002  1.0000
  O   O38       1.0  0.7229599999999999  0.5882100000000001  0.40112  1.0000
  Ni  Ni6       1.0  0.57948  0.33121  0.27849  1.0000
  H   H59       1.0  0.51431  0.7863  0.16827000000000003  1.0000
  O   O39       1.0  0.76702  0.12695  0.07468  1.0000
  C   C131      1.0  0.79702  0.62392  0.42162000000000005  1.0000
  O   O40       1.0  0.6610499999999999  0.4808700000000001  0.17167  1.0000
  C   C132      1.0  0.95065  0.67662  0.46496  1.0000
  C   C133      1.0  0.02728999999999994  0.70071  0.4869800000000001  1.0000
  H   H60       1.0  0.61491  0.2887400000000001  0.37251000000000006  1.0000
  H   H61       1.0  0.87817  0.27927000000000013  0.027120000000000002  1.0000
  O   O41       1.0  0.57162  0.20675000000000004  0.31647  1.0000
  Ni  Ni7       1.0  0.6383  0.32912  0.20566000000000004  1.0000
  H   H62       1.0  0.5367599999999998  0.09003  0.24066  1.0000
  H   H63       1.0  0.93912  0.84309  0.3649  1.0000
  O   O42       1.0  0.60678  0.18668  0.24242  1.0000
  N   N11       1.0  0.9069800000000001  0.6446900000000002  0.41123  1.0000
  O   O43       1.0  0.7444  0.4760900000000001  0.28303  1.0000
  C   C134      1.0  0.9845  0.6749  0.43219000000000013  1.0000
  H   H64       1.0  0.11515000000000007  0.7245200000000003  0.47914000000000007  1.0000
  C   C135      1.0  0.9325200000000002  0.7233400000000002  0.35681  1.0000
  H   H65       1.0  0.8845599999999998  0.73796  0.31164  1.0000
  C   C136      1.0  0.6477999999999998  0.19829000000000002  0.37454000000000004  1.0000
  H   H66       1.0  0.67059  0.26358  0.4234800000000001  1.0000
  C   C137      1.0  0.63223  0.11982000000000001  0.31716000000000005  1.0000
  C   C138      1.0  0.93775  0.62023  0.37808  1.0000
  C   C139      1.0  0.9013799999999998  0.6636300000000003  0.3266800000000001  1.0000
  C   C140      1.0  0.67904  0.18394000000000005  0.4035200000000001  1.0000
  C   C141      1.0  0.66126  0.09875  0.34812  1.0000
  O   O44       1.0  0.6491  0.03015999999999999  0.292  1.0000
  O   O45       1.0  0.09046  0.70011  0.42161000000000004  1.0000
  C   C142      1.0  0.8170400000000001  0.4231  0.2908  1.0000
  O   O46       1.0  0.70707  0.19502000000000005  0.17505  1.0000
  C   C143      1.0  0.88393  0.50406  0.31709  1.0000
  C   C144      1.0  0.94041  0.4716700000000001  0.36653000000000013  1.0000
  Ni  Ni8       1.0  0.7289099999999998  0.12226  0.24968000000000004  1.0000
  O   O47       1.0  0.56371  0.9817700000000003  0.45975000000000005  1.0000
  H   H67       1.0  0.94972  0.3938100000000001  0.38237  1.0000
  C   C145      1.0  0.9147499999999998  0.4143  0.33591  1.0000
  O   O48       1.0  0.84252  0.31396000000000013  0.27271  1.0000
  C   C146      1.0  0.71991  0.06586000000000002  0.40689  1.0000
  H   H68       1.0  0.54469  0.03283000000000002  0.5189200000000002  1.0000
  C   C147      1.0  0.70716  0.9853800000000001  0.35118  1.0000
  C   C148      1.0  0.7985899999999999  0.17806000000000002  0.18035  1.0000
  O   O49       1.0  0.83289  0.2132  0.2086  1.0000
  H   H69       1.0  0.90823  0.29427000000000003  0.32800000000000007  1.0000
  H   H70       1.0  0.81685  0.91198  0.15042  1.0000
  C   C149      1.0  0.67119  0.02497999999999999  0.46323000000000003  1.0000
  C   C150      1.0  0.7319199999999999  0.9648100000000001  0.38071  1.0000
  H   H71       1.0  0.7203000000000002  0.9097  0.3310100000000001  1.0000
  N   N12       1.0  0.7501099999999998  0.04961000000000004  0.4370900000000001  1.0000
  C   C151      1.0  0.63006  0.04649000000000005  0.5209300000000001  1.0000
  C   C152      1.0  0.70474  0.04392999999999999  0.49368  1.0000
  C   C153      1.0  0.87373  0.021180000000000015  0.13953  1.0000
  H   H72       1.0  0.6088299999999998  0.07661000000000003  0.57159  1.0000
  C   C154      1.0  0.8789499999999999  0.16985000000000003  0.15336000000000002  1.0000
  C   C155      1.0  0.6668299999999999  0.07182000000000002  0.55094  1.0000
  C   C156      1.0  0.8591999999999997  0.06922000000000002  0.43986  1.0000
  H   H73       1.0  0.7615100000000002  0.8718300000000002  0.3832  1.0000
  O   O50       1.0  0.9344700000000001  0.09478  0.41469  1.0000
  C   C157      1.0  0.8155100000000001  0.06354000000000003  0.4968  1.0000
  H   H74       1.0  0.9336100000000002  0.8980000000000002  0.10023  1.0000
  C   C158      1.0  0.94079  0.013240000000000005  0.11133000000000001  1.0000
  C   C159      1.0  0.89202  0.06898000000000003  0.46973  1.0000
  C   C160      1.0  0.7774999999999999  0.08850999999999998  0.55412  1.0000
  C   C161      1.0  0.9544099999999999  0.31093  0.13954  1.0000
  H   H75       1.0  0.95894  0.42632  0.15024000000000004  1.0000
  C   C162      1.0  0.8499799999999998  0.07766  0.52704  1.0000
  O   O51       1.0  0.75762  0.1517600000000001  0.6090100000000002  1.0000
  C   C163      1.0  0.8177500000000002  0.11734000000000006  0.5839300000000001  1.0000
  C   C164      1.0  0.9998699999999999  0.07432000000000004  0.4729500000000001  1.0000
  C   C165      1.0  0.01587  0.15446000000000001  0.09726000000000001  1.0000
  H   H76       1.0  0.05867999999999996  0.07272000000000003  0.45230000000000004  1.0000
  C   C166      1.0  0.02207000000000003  0.3033200000000001  0.11149000000000002  1.0000
  C   C167      1.0  0.9566699999999997  0.08023000000000002  0.5301600000000001  1.0000
  C   C168      1.0  0.030279999999999994  0.07408  0.50293  1.0000
  O   O52       1.0  0.24925  0.2711299999999999  0.09159  1.0000
