data_image0
_chemical_formula_structural       Zn6H108C168N48O36
_chemical_formula_sum              "Zn6 H108 C168 N48 O36"
_cell_length_a       16.34138657
_cell_length_b       16.341386840000002
_cell_length_c       25.67836145
_cell_angle_alpha    90.0
_cell_angle_beta     90.0
_cell_angle_gamma    119.99986174999998

_space_group_name_H-M_alt    "P 1"
_space_group_IT_number       1

loop_
  _space_group_symop_operation_xyz
  'x, y, z'

loop_
  _atom_site_type_symbol
  _atom_site_label
  _atom_site_symmetry_multiplicity
  _atom_site_fract_x
  _atom_site_fract_y
  _atom_site_fract_z
  _atom_site_occupancy
  Zn  Zn1       1.0  0.5752243200000001  0.2876125000000001  0.83333291  1.0000
  Zn  Zn2       1.0  0.7123874999999998  0.4247756800000001  0.16666709000000002  1.0000
  Zn  Zn3       1.0  0.71238884  0.28761116  0.5  1.0000
  Zn  Zn4       1.0  0.42477568  0.7123875  0.83333291  1.0000
  Zn  Zn5       1.0  0.2876125000000001  0.5752243200000002  0.16666709000000002  1.0000
  Zn  Zn6       1.0  0.28761116  0.71238884  0.5  1.0000
  H   H1        1.0  0.35620373000000005  0.42402454000000006  0.79576996  1.0000
  H   H2        1.0  0.28833912999999994  0.46867333  0.8597568800000002  1.0000
  H   H3        1.0  0.46441405  0.36391229  0.7732404200000002  1.0000
  H   H4        1.0  0.50470761  0.32644283  0.92930076  1.0000
  H   H5        1.0  0.39804553000000004  0.3834266900000001  0.95807103  1.0000
  H   H6        1.0  0.17471461  0.47731597  0.85507695  1.0000
  H   H7        1.0  0.18073656999999993  0.46185178  0.02288961  1.0000
  H   H8        1.0  0.78860948  0.18008867  0.91652951  1.0000
  H   H9        1.0  0.06782062000000012  0.6437973100000002  0.12910100000000002  1.0000
  H   H10       1.0  0.18033367999999994  0.71166254  0.19308804000000004  1.0000
  H   H11       1.0  0.89949885  0.53558644  0.10657175  1.0000
  H   H12       1.0  0.82173623  0.49529172  0.26263257  1.0000
  H   H13       1.0  0.9853822799999999  0.60195498  0.29140271000000006  1.0000
  H   H14       1.0  0.3026001  0.82528504  0.18840766000000006  1.0000
  H   H15       1.0  0.2811173200000001  0.8192636900000002  0.35622041  1.0000
  H   H16       1.0  0.3914802499999999  0.21139193000000006  0.24986123  1.0000
  H   H17       1.0  0.57597564  0.93217821  0.4624387800000001  1.0000
  H   H18       1.0  0.5313273200000002  0.8196669200000001  0.52642592  1.0000
  H   H19       1.0  0.6360882899999998  0.10049989  0.4399080400000001  1.0000
  H   H20       1.0  0.6735582  0.17826665  0.59596771  1.0000
  H   H21       1.0  0.61657345  0.014621370000000002  0.6247392500000002  1.0000
  H   H22       1.0  0.52268132  0.69739839  0.52174547  1.0000
  H   H23       1.0  0.53815027  0.71888461  0.689558  1.0000
  H   H24       1.0  0.81991584  0.60852795  0.5831980000000001  1.0000
  H   H25       1.0  0.6437962700000001  0.5759754600000002  0.79576996  1.0000
  H   H26       1.0  0.71166087  0.53132667  0.8597568800000002  1.0000
  H   H27       1.0  0.53558595  0.63608771  0.7732404200000002  1.0000
  H   H28       1.0  0.49529239  0.67355717  0.92930076  1.0000
  H   H29       1.0  0.6019544699999998  0.61657331  0.95807103  1.0000
  H   H30       1.0  0.82528539  0.52268403  0.85507695  1.0000
  H   H31       1.0  0.81926343  0.53814822  0.02288961  1.0000
  H   H32       1.0  0.21139051999999994  0.81991133  0.91652951  1.0000
  H   H33       1.0  0.9321793800000001  0.3562026900000001  0.12910100000000002  1.0000
  H   H34       1.0  0.81966632  0.28833746  0.19308804000000004  1.0000
  H   H35       1.0  0.10050115000000007  0.4644135600000001  0.10657175  1.0000
  H   H36       1.0  0.17826377  0.50470828  0.26263257  1.0000
  H   H37       1.0  0.014617719999999992  0.39804502  0.29140271000000006  1.0000
  H   H38       1.0  0.6973999  0.17471496  0.18840766000000006  1.0000
  H   H39       1.0  0.71888268  0.18073631  0.35622041  1.0000
  H   H40       1.0  0.6085197500000001  0.7886080700000001  0.24986123  1.0000
  H   H41       1.0  0.42402436  0.06782179  0.4624387800000001  1.0000
  H   H42       1.0  0.46867268  0.18033308  0.52642592  1.0000
  H   H43       1.0  0.36391171  0.89950011  0.4399080400000001  1.0000
  H   H44       1.0  0.3264417999999999  0.82173335  0.59596771  1.0000
  H   H45       1.0  0.38342655  0.98537863  0.6247392500000002  1.0000
  H   H46       1.0  0.47731868000000005  0.30260161000000013  0.52174547  1.0000
  H   H47       1.0  0.46184973  0.28111539  0.689558  1.0000
  H   H48       1.0  0.18008416  0.39147205  0.5831980000000001  1.0000
  H   H49       1.0  0.93217821  0.57597564  0.53756122  1.0000
  H   H50       1.0  0.8196669199999999  0.53132732  0.4735740800000001  1.0000
  H   H51       1.0  0.1004998900000001  0.6360882900000002  0.56009196  1.0000
  H   H52       1.0  0.1782666500000001  0.6735582000000002  0.4040322900000001  1.0000
  H   H53       1.0  0.01462137000000002  0.61657345  0.37526075  1.0000
  H   H54       1.0  0.69739839  0.52268132  0.47825453  1.0000
  H   H55       1.0  0.71888461  0.53815027  0.310442  1.0000
  H   H56       1.0  0.60852795  0.81991584  0.416802  1.0000
  H   H57       1.0  0.42402454  0.35620373  0.20423004  1.0000
  H   H58       1.0  0.46867332999999994  0.28833913  0.14024312  1.0000
  H   H59       1.0  0.36391229  0.46441405000000013  0.22675958000000004  1.0000
  H   H60       1.0  0.32644283  0.50470761  0.07069924  1.0000
  H   H61       1.0  0.38342669000000007  0.39804553000000004  0.04192897000000002  1.0000
  H   H62       1.0  0.47731597000000003  0.17471461000000005  0.14492305000000003  1.0000
  H   H63       1.0  0.46185178  0.18073657  0.97711039  1.0000
  H   H64       1.0  0.18008867000000006  0.78860948  0.08347049  1.0000
  H   H65       1.0  0.64379731  0.06782062  0.870899  1.0000
  H   H66       1.0  0.71166254  0.18033368  0.80691196  1.0000
  H   H67       1.0  0.5355864400000002  0.8994988500000002  0.8934282500000003  1.0000
  H   H68       1.0  0.49529172  0.82173623  0.73736743  1.0000
  H   H69       1.0  0.6019549800000001  0.9853822800000003  0.7085972900000003  1.0000
  H   H70       1.0  0.8252850400000002  0.3026001000000001  0.8115923400000002  1.0000
  H   H71       1.0  0.81926369  0.28111732  0.6437795900000001  1.0000
  H   H72       1.0  0.21139193  0.39148025  0.75013877  1.0000
  H   H73       1.0  0.06782179  0.42402436  0.53756122  1.0000
  H   H74       1.0  0.18033308000000003  0.46867268000000006  0.4735740800000001  1.0000
  H   H75       1.0  0.8995001100000001  0.3639117100000001  0.56009196  1.0000
  H   H76       1.0  0.82173335  0.3264418  0.4040322900000001  1.0000
  H   H77       1.0  0.98537863  0.38342655  0.37526075  1.0000
  H   H78       1.0  0.30260161  0.47731868  0.47825453  1.0000
  H   H79       1.0  0.28111539  0.46184973  0.310442  1.0000
  H   H80       1.0  0.39147205  0.18008416  0.416802  1.0000
  H   H81       1.0  0.57597546  0.64379627  0.20423004  1.0000
  H   H82       1.0  0.53132667  0.71166087  0.14024312  1.0000
  H   H83       1.0  0.63608771  0.53558595  0.22675958000000004  1.0000
  H   H84       1.0  0.6735571700000001  0.4952923900000001  0.07069924  1.0000
  H   H85       1.0  0.6165733100000002  0.6019544700000002  0.04192897000000002  1.0000
  H   H86       1.0  0.52268403  0.8252853900000001  0.14492305000000003  1.0000
  H   H87       1.0  0.53814822  0.81926343  0.97711039  1.0000
  H   H88       1.0  0.81991133  0.21139052  0.08347049  1.0000
  H   H89       1.0  0.35620269000000016  0.9321793800000002  0.870899  1.0000
  H   H90       1.0  0.28833746  0.81966632  0.80691196  1.0000
  H   H91       1.0  0.46441356  0.10050115  0.8934282500000003  1.0000
  H   H92       1.0  0.50470828  0.17826377  0.73736743  1.0000
  H   H93       1.0  0.39804502  0.014617720000000004  0.7085972900000003  1.0000
  H   H94       1.0  0.17471495999999995  0.6973999  0.8115923400000002  1.0000
  H   H95       1.0  0.18073631000000007  0.71888268  0.6437795900000001  1.0000
  H   H96       1.0  0.78860807  0.60851975  0.75013877  1.0000
  H   H97       1.0  0.6730016900000001  0.32699831  0.0  1.0000
  H   H98       1.0  0.84899671  0.15100329  0.0  1.0000
  H   H99       1.0  0.65399339  0.3269971  0.33333562  1.0000
  H   H100      1.0  0.30200437  0.15100192  0.3333303200000001  1.0000
  H   H101      1.0  0.6730029  0.34600661  0.6666643800000002  1.0000
  H   H102      1.0  0.84899808  0.69799563  0.6666696800000002  1.0000
  H   H103      1.0  0.32699831  0.67300169  0.0  1.0000
  H   H104      1.0  0.15100329  0.84899671  0.0  1.0000
  H   H105      1.0  0.34600661  0.6730029  0.33333562  1.0000
  H   H106      1.0  0.6979956299999998  0.84899808  0.3333303200000001  1.0000
  H   H107      1.0  0.3269971  0.65399339  0.6666643800000002  1.0000
  H   H108      1.0  0.15100192  0.30200437  0.6666696800000002  1.0000
  C   C1        1.0  0.36675614  0.40806573  0.8793357  1.0000
  C   C2        1.0  0.38689038  0.40183792  0.82645636  1.0000
  C   C3        1.0  0.04222420999999999  0.49355985  0.94424012  1.0000
  C   C4        1.0  0.26797717  0.44173397  0.9393094200000002  1.0000
  C   C5        1.0  0.44708735999999993  0.36824125  0.8138113600000002  1.0000
  C   C6        1.0  0.19025651000000005  0.4646695700000001  0.93892569  1.0000
  C   C7        1.0  0.4696316  0.34759835  0.9007096900000002  1.0000
  C   C8        1.0  0.4104074300000001  0.38032862000000006  0.9169586100000002  1.0000
  C   C9        1.0  0.14906948999999992  0.47800552  0.89423845  1.0000
  C   C10       1.0  0.68517215  0.26393807  0.9033230600000001  1.0000
  C   C11       1.0  0.15064053  0.46967403  0.98652127  1.0000
  C   C12       1.0  0.72548941  0.25330595  0.9533556500000002  1.0000
  C   C13       1.0  0.77657048  0.20526253  0.95343552  1.0000
  C   C14       1.0  0.041309120000000005  0.63324426  0.21266717  1.0000
  C   C15       1.0  0.01494753000000006  0.6131104500000001  0.15978757  1.0000
  C   C16       1.0  0.45133559  0.95777602  0.27757032  1.0000
  C   C17       1.0  0.17375648999999996  0.73202299  0.27264206  1.0000
  C   C18       1.0  0.9211533999999999  0.55291265  0.14714296  1.0000
  C   C19       1.0  0.27441362999999996  0.80974383  0.27225614000000004  1.0000
  C   C20       1.0  0.8779672500000001  0.53036831  0.23404123  1.0000
  C   C21       1.0  0.96992172  0.589593  0.2502901900000001  1.0000
  C   C22       1.0  0.3289363  0.85093029  0.22756904000000006  1.0000
  C   C23       1.0  0.57876648  0.31482883  0.23665638000000006  1.0000
  C   C24       1.0  0.3190347599999999  0.84935955  0.31985191000000013  1.0000
  C   C25       1.0  0.52781609  0.27451072  0.28668895000000005  1.0000
  C   C26       1.0  0.42869167  0.22343013000000003  0.2867676800000001  1.0000
  C   C27       1.0  0.59193427  0.95869147  0.5460044500000001  1.0000
  C   C28       1.0  0.59816227  0.98505157  0.4931247000000001  1.0000
  C   C29       1.0  0.50644016  0.54866431  0.61090803  1.0000
  C   C30       1.0  0.55826582  0.82624504  0.60598006  1.0000
  C   C31       1.0  0.63175937  0.07884526  0.4804789500000001  1.0000
  C   C32       1.0  0.5353297900000001  0.7255869400000001  0.60559411  1.0000
  C   C33       1.0  0.65240228  0.12203418000000003  0.56737711  1.0000
  C   C34       1.0  0.61967155  0.03007996  0.5836266100000002  1.0000
  C   C35       1.0  0.52199252  0.67106396  0.56090718  1.0000
  C   C36       1.0  0.7360665  0.42124251  0.56998822  1.0000
  C   C37       1.0  0.53032742  0.68096667  0.65318989  1.0000
  C   C38       1.0  0.7466964  0.47218865  0.62002205  1.0000
  C   C39       1.0  0.79474054  0.57131335  0.62010329  1.0000
  C   C40       1.0  0.63324386  0.5919342700000001  0.8793357  1.0000
  C   C41       1.0  0.61310962  0.59816208  0.82645636  1.0000
  C   C42       1.0  0.95777579  0.50644015  0.94424012  1.0000
  C   C43       1.0  0.73202283  0.55826603  0.9393094200000002  1.0000
  C   C44       1.0  0.55291264  0.63175875  0.8138113600000002  1.0000
  C   C45       1.0  0.8097434900000001  0.53533043  0.93892569  1.0000
  C   C46       1.0  0.5303684  0.65240165  0.9007096900000002  1.0000
  C   C47       1.0  0.58959257  0.6196713800000002  0.9169586100000002  1.0000
  C   C48       1.0  0.8509305100000001  0.52199448  0.89423845  1.0000
  C   C49       1.0  0.31482785000000013  0.7360619300000002  0.9033230600000001  1.0000
  C   C50       1.0  0.84935947  0.53032597  0.98652127  1.0000
  C   C51       1.0  0.27451059  0.74669405  0.9533556500000002  1.0000
  C   C52       1.0  0.22342952  0.79473747  0.95343552  1.0000
  C   C53       1.0  0.95869088  0.36675574  0.21266717  1.0000
  C   C54       1.0  0.98505247  0.38688955  0.15978757  1.0000
  C   C55       1.0  0.54866441  0.04222398  0.27757032  1.0000
  C   C56       1.0  0.8262435099999995  0.26797701  0.27264206  1.0000
  C   C57       1.0  0.07884660000000004  0.44708735000000005  0.14714296  1.0000
  C   C58       1.0  0.72558637  0.19025617000000003  0.27225614000000004  1.0000
  C   C59       1.0  0.12203275000000001  0.46963169  0.23404123  1.0000
  C   C60       1.0  0.03007828000000002  0.4104070000000001  0.2502901900000001  1.0000
  C   C61       1.0  0.6710637000000002  0.14906971000000002  0.22756904000000006  1.0000
  C   C62       1.0  0.42123352  0.68517117  0.23665638000000006  1.0000
  C   C63       1.0  0.6809652399999999  0.15064045  0.31985191000000013  1.0000
  C   C64       1.0  0.47218391  0.72548928  0.28668895000000005  1.0000
  C   C65       1.0  0.57130833  0.77656987  0.2867676800000001  1.0000
  C   C66       1.0  0.40806573  0.04130853000000001  0.5460044500000001  1.0000
  C   C67       1.0  0.40183773  0.014948430000000004  0.4931247000000001  1.0000
  C   C68       1.0  0.49355984  0.45133569000000007  0.61090803  1.0000
  C   C69       1.0  0.44173418000000003  0.17375496000000007  0.60598006  1.0000
  C   C70       1.0  0.36824063  0.92115474  0.4804789500000001  1.0000
  C   C71       1.0  0.46467021  0.27441306  0.60559411  1.0000
  C   C72       1.0  0.3475977200000001  0.8779658200000002  0.56737711  1.0000
  C   C73       1.0  0.38032845  0.96992004  0.5836266100000002  1.0000
  C   C74       1.0  0.47800747999999993  0.32893604  0.56090718  1.0000
  C   C75       1.0  0.26393350000000004  0.5787574900000001  0.56998822  1.0000
  C   C76       1.0  0.46967257999999995  0.31903333  0.65318989  1.0000
  C   C77       1.0  0.2533036  0.52781135  0.62002205  1.0000
  C   C78       1.0  0.20525946  0.42868665  0.62010329  1.0000
  C   C79       1.0  0.9586914699999997  0.5919342700000001  0.45399555  1.0000
  C   C80       1.0  0.9850515699999999  0.59816227  0.5068753  1.0000
  C   C81       1.0  0.54866431  0.50644016  0.38909197000000006  1.0000
  C   C82       1.0  0.82624504  0.55826582  0.39401994  1.0000
  C   C83       1.0  0.0788452600000001  0.6317593700000003  0.51952105  1.0000
  C   C84       1.0  0.7255869399999998  0.53532979  0.39440589  1.0000
  C   C85       1.0  0.12203418000000012  0.6524022800000002  0.4326228900000001  1.0000
  C   C86       1.0  0.030079960000000055  0.6196715500000001  0.41637339  1.0000
  C   C87       1.0  0.67106396  0.52199252  0.4390928200000001  1.0000
  C   C88       1.0  0.42124250999999996  0.7360665  0.43001178000000007  1.0000
  C   C89       1.0  0.68096667  0.53032742  0.34681011  1.0000
  C   C90       1.0  0.4721886499999999  0.7466964  0.37997795000000006  1.0000
  C   C91       1.0  0.57131335  0.7947405400000002  0.37989671000000014  1.0000
  C   C92       1.0  0.40806573  0.36675614  0.12066430000000002  1.0000
  C   C93       1.0  0.40183792  0.38689038  0.17354364  1.0000
  C   C94       1.0  0.49355985  0.04222421  0.05575988000000001  1.0000
  C   C95       1.0  0.44173397  0.26797717  0.06069058000000001  1.0000
  C   C96       1.0  0.36824125  0.44708736  0.18618864  1.0000
  C   C97       1.0  0.46466957  0.19025651000000005  0.06107431000000001  1.0000
  C   C98       1.0  0.3475983499999999  0.4696316  0.09929031000000002  1.0000
  C   C99       1.0  0.38032862  0.41040743  0.08304139  1.0000
  C   C100      1.0  0.47800552  0.14906949  0.10576155  1.0000
  C   C101      1.0  0.2639380700000001  0.68517215  0.09667694  1.0000
  C   C102      1.0  0.46967403  0.15064053  0.01347873  1.0000
  C   C103      1.0  0.25330595000000006  0.72548941  0.04664435  1.0000
  C   C104      1.0  0.20526253  0.77657048  0.04656448  1.0000
  C   C105      1.0  0.6332442599999998  0.04130912  0.78733283  1.0000
  C   C106      1.0  0.61311045  0.01494753  0.8402124300000002  1.0000
  C   C107      1.0  0.95777602  0.45133559  0.7224296800000001  1.0000
  C   C108      1.0  0.73202299  0.17375649  0.72735794  1.0000
  C   C109      1.0  0.55291265  0.9211534  0.85285704  1.0000
  C   C110      1.0  0.80974383  0.27441363  0.7277438600000001  1.0000
  C   C111      1.0  0.53036831  0.8779672500000002  0.76595877  1.0000
  C   C112      1.0  0.589593  0.96992172  0.7497098100000003  1.0000
  C   C113      1.0  0.85093029  0.3289363  0.77243096  1.0000
  C   C114      1.0  0.3148288300000001  0.5787664800000002  0.76334362  1.0000
  C   C115      1.0  0.84935955  0.31903476  0.6801480900000001  1.0000
  C   C116      1.0  0.27451072  0.52781609  0.71331105  1.0000
  C   C117      1.0  0.22343013000000003  0.4286916700000001  0.71323232  1.0000
  C   C118      1.0  0.04130853  0.40806573  0.45399555  1.0000
  C   C119      1.0  0.014948429999999997  0.40183773  0.5068753  1.0000
  C   C120      1.0  0.45133569000000007  0.4935598400000001  0.38909197000000006  1.0000
  C   C121      1.0  0.17375496  0.44173418  0.39401994  1.0000
  C   C122      1.0  0.92115474  0.36824063  0.51952105  1.0000
  C   C123      1.0  0.27441306  0.46467021  0.39440589  1.0000
  C   C124      1.0  0.8779658199999998  0.3475977200000001  0.4326228900000001  1.0000
  C   C125      1.0  0.96992004  0.38032845  0.41637339  1.0000
  C   C126      1.0  0.32893604  0.47800748  0.4390928200000001  1.0000
  C   C127      1.0  0.57875749  0.2639335  0.43001178000000007  1.0000
  C   C128      1.0  0.31903333  0.46967258  0.34681011  1.0000
  C   C129      1.0  0.52781135  0.2533036  0.37997795000000006  1.0000
  C   C130      1.0  0.42868665000000006  0.20525946000000003  0.37989671000000014  1.0000
  C   C131      1.0  0.59193427  0.63324386  0.12066430000000002  1.0000
  C   C132      1.0  0.5981620800000002  0.6131096200000001  0.17354364  1.0000
  C   C133      1.0  0.50644015  0.95777579  0.05575988000000001  1.0000
  C   C134      1.0  0.55826603  0.73202283  0.06069058000000001  1.0000
  C   C135      1.0  0.63175875  0.55291264  0.18618864  1.0000
  C   C136      1.0  0.53533043  0.8097434900000001  0.06107431000000001  1.0000
  C   C137      1.0  0.65240165  0.5303684  0.09929031000000002  1.0000
  C   C138      1.0  0.61967138  0.58959257  0.08304139  1.0000
  C   C139      1.0  0.52199448  0.85093051  0.10576155  1.0000
  C   C140      1.0  0.73606193  0.31482785  0.09667694  1.0000
  C   C141      1.0  0.53032597  0.84935947  0.01347873  1.0000
  C   C142      1.0  0.74669405  0.27451059  0.04664435  1.0000
  C   C143      1.0  0.79473747  0.22342952  0.04656448  1.0000
  C   C144      1.0  0.36675574  0.95869088  0.78733283  1.0000
  C   C145      1.0  0.3868895499999999  0.98505247  0.8402124300000002  1.0000
  C   C146      1.0  0.042223980000000036  0.54866441  0.7224296800000001  1.0000
  C   C147      1.0  0.26797701  0.8262435100000001  0.72735794  1.0000
  C   C148      1.0  0.44708735  0.0788466  0.85285704  1.0000
  C   C149      1.0  0.19025617000000006  0.72558637  0.7277438600000001  1.0000
  C   C150      1.0  0.46963169  0.12203275  0.76595877  1.0000
  C   C151      1.0  0.410407  0.03007828  0.7497098100000003  1.0000
  C   C152      1.0  0.14906971000000005  0.6710637000000002  0.77243096  1.0000
  C   C153      1.0  0.6851711699999998  0.42123352  0.76334362  1.0000
  C   C154      1.0  0.15064044999999995  0.68096524  0.6801480900000001  1.0000
  C   C155      1.0  0.7254892800000001  0.47218391000000004  0.71331105  1.0000
  C   C156      1.0  0.7765698699999998  0.57130833  0.71323232  1.0000
  C   C157      1.0  0.71141998  0.28858002  0.0  1.0000
  C   C158      1.0  0.81043676  0.18956324  0.0  1.0000
  C   C159      1.0  0.57715688  0.28857876  0.33333426  1.0000
  C   C160      1.0  0.37912424  0.18956186  0.3333314  1.0000
  C   C161      1.0  0.7114212399999998  0.42284312  0.66666574  1.0000
  C   C162      1.0  0.81043814  0.62087576  0.6666686  1.0000
  C   C163      1.0  0.28858001999999994  0.7114199800000001  0.0  1.0000
  C   C164      1.0  0.18956324  0.81043676  0.0  1.0000
  C   C165      1.0  0.42284311999999996  0.71142124  0.33333426  1.0000
  C   C166      1.0  0.62087576  0.8104381400000001  0.3333314  1.0000
  C   C167      1.0  0.28857876  0.57715688  0.66666574  1.0000
  C   C168      1.0  0.18956186  0.3791242400000001  0.6666686  1.0000
  N   N1        1.0  0.48831529000000007  0.34090957  0.8501724800000001  1.0000
  N   N2        1.0  0.30473906  0.44010589  0.8911073700000002  1.0000
  N   N3        1.0  0.07646832999999999  0.49320489  0.8967367800000001  1.0000
  N   N4        1.0  0.07677150000000003  0.48342408000000003  0.9899927500000002  1.0000
  N   N5        1.0  0.85259445  0.51168417  0.18350414000000007  1.0000
  N   N6        1.0  0.13536706000000012  0.6952627400000002  0.22443864000000005  1.0000
  N   N7        1.0  0.4167358800000001  0.9235318400000002  0.23006676000000006  1.0000
  N   N8        1.0  0.4066533599999999  0.92322841  0.32332284000000006  1.0000
  N   N9        1.0  0.65909069  0.14740521  0.51683956  1.0000
  N   N10       1.0  0.55989379  0.86463337  0.5577761900000001  1.0000
  N   N11       1.0  0.50679386  0.58326391  0.56340483  1.0000
  N   N12       1.0  0.51657769  0.5933479  0.65666061  1.0000
  N   N13       1.0  0.51168471  0.65909043  0.8501724800000001  1.0000
  N   N14       1.0  0.69526094  0.55989411  0.8911073700000002  1.0000
  N   N15       1.0  0.9235316700000001  0.50679511  0.8967367800000001  1.0000
  N   N16       1.0  0.9232284999999998  0.51657592  0.9899927500000002  1.0000
  N   N17       1.0  0.14740555000000008  0.4883158300000001  0.18350414000000007  1.0000
  N   N18       1.0  0.86463294  0.30473726000000007  0.22443864000000005  1.0000
  N   N19       1.0  0.5832641199999998  0.07646816  0.23006676000000006  1.0000
  N   N20       1.0  0.59334664  0.07677159  0.32332284000000006  1.0000
  N   N21       1.0  0.34090931000000013  0.8525947900000003  0.51683956  1.0000
  N   N22       1.0  0.44010621  0.13536663  0.5577761900000001  1.0000
  N   N23       1.0  0.49320614  0.41673609000000006  0.56340483  1.0000
  N   N24       1.0  0.48342231  0.4066521  0.65666061  1.0000
  N   N25       1.0  0.14740521  0.65909069  0.4831604400000001  1.0000
  N   N26       1.0  0.8646333699999998  0.55989379  0.44222381  1.0000
  N   N27       1.0  0.58326391  0.50679386  0.43659517  1.0000
  N   N28       1.0  0.5933479  0.51657769  0.34333939000000013  1.0000
  N   N29       1.0  0.34090957  0.48831529  0.14982752  1.0000
  N   N30       1.0  0.44010589  0.30473906  0.10889263000000003  1.0000
  N   N31       1.0  0.49320488999999995  0.07646833  0.10326322000000002  1.0000
  N   N32       1.0  0.48342408  0.07677150000000003  0.01000725  1.0000
  N   N33       1.0  0.51168417  0.85259445  0.81649586  1.0000
  N   N34       1.0  0.69526274  0.13536706  0.77556136  1.0000
  N   N35       1.0  0.92353184  0.41673588  0.76993324  1.0000
  N   N36       1.0  0.92322841  0.40665336  0.67667716  1.0000
  N   N37       1.0  0.8525947899999998  0.34090931  0.4831604400000001  1.0000
  N   N38       1.0  0.1353666299999999  0.44010621  0.44222381  1.0000
  N   N39       1.0  0.41673609  0.49320614  0.43659517  1.0000
  N   N40       1.0  0.4066521  0.48342231  0.34333939000000013  1.0000
  N   N41       1.0  0.65909043  0.51168471  0.14982752  1.0000
  N   N42       1.0  0.55989411  0.69526094  0.10889263000000003  1.0000
  N   N43       1.0  0.50679511  0.92353167  0.10326322000000002  1.0000
  N   N44       1.0  0.51657592  0.9232285  0.01000725  1.0000
  N   N45       1.0  0.48831583  0.14740555  0.81649586  1.0000
  N   N46       1.0  0.30473726  0.86463294  0.77556136  1.0000
  N   N47       1.0  0.07646815999999998  0.58326412  0.76993324  1.0000
  N   N48       1.0  0.07677159000000007  0.5933466400000001  0.67667716  1.0000
  O   O1        1.0  0.6285814  0.29764483  0.90503564  1.0000
  O   O2        1.0  0.70583359  0.23844482000000003  0.8614036800000001  1.0000
  O   O3        1.0  0.29352362  0.4224932  0.9806033700000001  1.0000
  O   O4        1.0  0.66906369  0.37142016  0.23836932000000005  1.0000
  O   O5        1.0  0.53261227  0.29416672  0.19473691000000007  1.0000
  O   O6        1.0  0.12897253  0.70647621  0.31393449  1.0000
  O   O7        1.0  0.70235505  0.33094417  0.5716993600000001  1.0000
  O   O8        1.0  0.76156592  0.46740042  0.52807057  1.0000
  O   O9        1.0  0.57750175  0.87102712  0.64727129  1.0000
  O   O10       1.0  0.3714186  0.70235517  0.90503564  1.0000
  O   O11       1.0  0.29416641  0.76155518  0.8614036800000001  1.0000
  O   O12       1.0  0.70647638  0.5775068  0.9806033700000001  1.0000
  O   O13       1.0  0.3309363099999998  0.62857984  0.23836932000000005  1.0000
  O   O14       1.0  0.46738773  0.70583328  0.19473691000000007  1.0000
  O   O15       1.0  0.87102747  0.29352379  0.31393449  1.0000
  O   O16       1.0  0.29764495  0.66905583  0.5716993600000001  1.0000
  O   O17       1.0  0.23843408000000005  0.53259958  0.52807057  1.0000
  O   O18       1.0  0.42249825  0.12897288  0.64727129  1.0000
  O   O19       1.0  0.33094417  0.70235505  0.42830064  1.0000
  O   O20       1.0  0.46740042  0.76156592  0.4719294300000001  1.0000
  O   O21       1.0  0.87102712  0.57750175  0.35272871000000006  1.0000
  O   O22       1.0  0.29764483  0.6285814  0.09496436000000003  1.0000
  O   O23       1.0  0.23844482  0.70583359  0.13859632  1.0000
  O   O24       1.0  0.4224932  0.29352362  0.01939663  1.0000
  O   O25       1.0  0.37142016  0.66906369  0.7616306800000002  1.0000
  O   O26       1.0  0.29416672  0.53261227  0.80526309  1.0000
  O   O27       1.0  0.7064762099999998  0.12897253  0.6860655100000003  1.0000
  O   O28       1.0  0.66905583  0.29764495  0.42830064  1.0000
  O   O29       1.0  0.53259958  0.23843408000000005  0.4719294300000001  1.0000
  O   O30       1.0  0.12897288  0.42249825  0.35272871000000006  1.0000
  O   O31       1.0  0.70235517  0.3714186  0.09496436000000003  1.0000
  O   O32       1.0  0.7615551799999999  0.2941664100000001  0.13859632  1.0000
  O   O33       1.0  0.5775068  0.70647638  0.01939663  1.0000
  O   O34       1.0  0.62857984  0.33093631  0.7616306800000002  1.0000
  O   O35       1.0  0.7058332800000001  0.46738773000000006  0.80526309  1.0000
  O   O36       1.0  0.29352379  0.87102747  0.6860655100000003  1.0000
