data_image0
_chemical_formula_structural       Co4B4H48C48N32
_chemical_formula_sum              "Co4 B4 H48 C48 N32"
_cell_length_a       8.309021
_cell_length_b       15.194405219999998
_cell_length_c       17.296136
_cell_angle_alpha    90.00004879
_cell_angle_beta     89.99990393
_cell_angle_gamma    101.77156459999999

_space_group_name_H-M_alt    "P 1"
_space_group_IT_number       1

loop_
  _space_group_symop_operation_xyz
  'x, y, z'

loop_
  _atom_site_type_symbol
  _atom_site_label
  _atom_site_symmetry_multiplicity
  _atom_site_fract_x
  _atom_site_fract_y
  _atom_site_fract_z
  _atom_site_occupancy
  Co  Co1       1.0  0.5987561899999998  0.29270593  0.05624541  1.0000
  Co  Co2       1.0  0.90481838  0.20560909  0.55554148  1.0000
  Co  Co3       1.0  0.3952779099999999  0.7086657199999998  0.9402862099999999  1.0000
  Co  Co4       1.0  0.10923044999999995  0.78603024  0.44071449  1.0000
  B   B1        1.0  0.37805837  0.14065876  0.34554999  1.0000
  B   B2        1.0  0.12469114000000002  0.3554615  0.84546527  1.0000
  B   B3        1.0  0.63791399  0.85162709  0.65114551  1.0000
  B   B4        1.0  0.8673869400000002  0.6457451  0.15196606  1.0000
  H   H1        1.0  0.14312865  0.20703921  0.2565787  1.0000
  H   H2        1.0  0.62002348  0.03217706  0.31900538000000006  1.0000
  H   H3        1.0  0.12211358  0.04849935  0.24247238999999998  1.0000
  H   H4        1.0  0.24301926  0.26019631  0.10801597  1.0000
  H   H5        1.0  0.13434195  0.08888769  0.46476645999999994  1.0000
  H   H6        1.0  0.37639910999999987  0.3313492099999999  0.36066748  1.0000
  H   H7        1.0  0.9701079  0.87985012  0.29454164  1.0000
  H   H8        1.0  0.87486928  0.06117496999999999  0.42432657  1.0000
  H   H9        1.0  0.15719318999999995  0.36796375999999986  0.47217112000000006  1.0000
  H   H10       1.0  0.63695867  0.18335275  0.22500706  1.0000
  H   H11       1.0  0.56079765  0.24013647  0.47197759  1.0000
  H   H12       1.0  0.36545398  0.98249049  0.44256609  1.0000
  H   H13       1.0  0.35766171  0.28717293999999993  0.7570687100000001  1.0000
  H   H14       1.0  0.8847986399999997  0.46549019  0.81955509  1.0000
  H   H15       1.0  0.3735421  0.4479686499999999  0.73872228  1.0000
  H   H16       1.0  0.2597596399999999  0.23716507999999994  0.60752737  1.0000
  H   H17       1.0  0.37110957  0.40865349  0.96302929  1.0000
  H   H18       1.0  0.12437619  0.16454014  0.86329612  1.0000
  H   H19       1.0  0.53267444  0.61522344  0.7909922900000002  1.0000
  H   H20       1.0  0.6316982  0.43836219  0.9257473  1.0000
  H   H21       1.0  0.34411942  0.12947048  0.9749061000000001  1.0000
  H   H22       1.0  0.86584287  0.31410709  0.7245088  1.0000
  H   H23       1.0  0.94143067  0.25682409  0.9722972000000001  1.0000
  H   H24       1.0  0.14519488  0.51231491  0.9435344600000001  1.0000
  H   H25       1.0  0.8634438499999999  0.7834464099999999  0.74512936  1.0000
  H   H26       1.0  0.3983680199999999  0.9620920499999998  0.67376511  1.0000
  H   H27       1.0  0.88700687  0.94521106  0.75719516  1.0000
  H   H28       1.0  0.7541725899999998  0.73727841  0.89375161  1.0000
  H   H29       1.0  0.8833565399999997  0.9020028699999998  0.53337704  1.0000
  H   H30       1.0  0.64161041  0.65990406  0.63869401  1.0000
  H   H31       1.0  0.042495259999999986  0.11332417  0.70549289  1.0000
  H   H32       1.0  0.14372713999999995  0.93045126  0.5681774  1.0000
  H   H33       1.0  0.8652064699999997  0.62332629  0.53015435  1.0000
  H   H34       1.0  0.37170968  0.8146566199999998  0.76804248  1.0000
  H   H35       1.0  0.45838014999999993  0.7509489499999998  0.52424376  1.0000
  H   H36       1.0  0.65870177  0.00792223  0.55184302  1.0000
  H   H37       1.0  0.63964692  0.71376489  0.24558519  1.0000
  H   H38       1.0  0.11005893  0.53764236  0.17773209  1.0000
  H   H39       1.0  0.60745188  0.55547208  0.25420765  1.0000
  H   H40       1.0  0.74697723  0.75785117  0.3952564  1.0000
  H   H41       1.0  0.62447659  0.5936588899999998  0.03343281  1.0000
  H   H42       1.0  0.8611529099999998  0.8369926699999998  0.13789809  1.0000
  H   H43       1.0  0.44977259999999986  0.3885094  0.20059503  1.0000
  H   H44       1.0  0.36206460999999995  0.5652950799999997  0.07104178  1.0000
  H   H45       1.0  0.6406630799999999  0.8720963099999998  0.0266852  1.0000
  H   H46       1.0  0.13235228999999993  0.68451418  0.26883933  1.0000
  H   H47       1.0  0.046468719999999956  0.7433645  0.02323148  1.0000
  H   H48       1.0  0.85355576  0.48751802  0.05598883  1.0000
  C   C1        1.0  0.2936944899999998  0.2870757599999999  0.39897378  1.0000
  C   C2        1.0  0.25895592  0.20878328999999995  0.2272762  1.0000
  C   C3        1.0  0.30957579  0.23503778999999994  0.15397501  1.0000
  C   C4        1.0  0.5163170099999999  0.19623021  0.21190857  1.0000
  C   C5        1.0  0.16765593  0.16001891  0.45179219  1.0000
  C   C6        1.0  0.6142155299999998  0.18820527  0.44540224  1.0000
  C   C7        1.0  0.14974371  0.009929809999999997  0.29158194000000004  1.0000
  C   C8        1.0  0.07461949  0.9266098  0.31811265000000005  1.0000
  C   C9        1.0  0.77289579  0.09508123  0.41888901  1.0000
  C   C10       1.0  0.6478345  0.080534  0.36562731  1.0000
  C   C11       1.0  0.1845916  0.30422698  0.4541012  1.0000
  C   C12       1.0  0.2776041199999999  0.9768564499999998  0.3955894  1.0000
  C   C13       1.0  0.20802701000000004  0.20948242  0.90070527  1.0000
  C   C14       1.0  0.24252920999999994  0.2864389999999999  0.72745497  1.0000
  C   C15       1.0  0.19302022  0.26196337  0.65363652  1.0000
  C   C16       1.0  0.98630196  0.3008668499999999  0.71158737  1.0000
  C   C17       1.0  0.3365297  0.33728425  0.9513242700000001  1.0000
  C   C18       1.0  0.8888548  0.30909796  0.9457833800000001  1.0000
  C   C19       1.0  0.35076846999999994  0.4860038699999999  0.78907031  1.0000
  C   C20       1.0  0.42835305  0.56900596  0.81543186  1.0000
  C   C21       1.0  0.73232722  0.40350404  0.9198609400000002  1.0000
  C   C22       1.0  0.85663275  0.41719149  0.86619884  1.0000
  C   C23       1.0  0.31753013  0.19303877999999994  0.9559193900000001  1.0000
  C   C24       1.0  0.2297522999999999  0.5186202799999999  0.89521581  1.0000
  C   C25       1.0  0.72528425  0.70439699  0.6008847  1.0000
  C   C26       1.0  0.74658785  0.7841843099999998  0.77260924  1.0000
  C   C27       1.0  0.69134572  0.76153472  0.8459856900000001  1.0000
  C   C28       1.0  0.49043027  0.80074982  0.78354317  1.0000
  C   C29       1.0  0.85043697  0.83105769  0.54707341  1.0000
  C   C30       1.0  0.4045627  0.80341612  0.54975864  1.0000
  C   C31       1.0  0.8638792600000001  0.98289705  0.7067291600000001  1.0000
  C   C32       1.0  0.93974973  0.0663441  0.68064801  1.0000
  C   C33       1.0  0.24591831999999997  0.8970342299999999  0.57454481  1.0000
  C   C34       1.0  0.37058630999999975  0.9126608699999997  0.62793092  1.0000
  C   C35       1.0  0.8361067599999997  0.68715609  0.54664044  1.0000
  C   C36       1.0  0.74296499  0.014685059999999996  0.60031274  1.0000
  C   C37       1.0  0.7792550799999998  0.7922109099999998  0.09968632000000001  1.0000
  C   C38       1.0  0.7558246099999998  0.7123132799999998  0.27357674  1.0000
  C   C39       1.0  0.8101913299999999  0.73418567  0.3472938  1.0000
  C   C40       1.0  0.012629519999999894  0.6968457099999997  0.28456468  1.0000
  C   C41       1.0  0.6559906899999999  0.6647671599999999  0.04667404  1.0000
  C   C42       1.0  0.10070971999999995  0.6919272399999998  0.05008627  1.0000
  C   C43       1.0  0.63422647  0.51680973  0.20498893000000004  1.0000
  C   C44       1.0  0.5572433699999999  0.4339788699999999  0.17798317  1.0000
  C   C45       1.0  0.26024933999999983  0.5993038599999998  0.07665968  1.0000
  C   C46       1.0  0.13648617999999993  0.5853617399999997  0.13057517  1.0000
  C   C47       1.0  0.6693943299999999  0.8086273099999998  0.04460483  1.0000
  C   C48       1.0  0.76450254  0.4822391399999999  0.10237009  1.0000
  N   N1        1.0  0.28169777  0.19486961  0.3973233800000001  1.0000
  N   N2        1.0  0.54663867  0.13989333  0.38237204  1.0000
  N   N3        1.0  0.27998039999999985  0.04210638999999999  0.34085840000000006  1.0000
  N   N4        1.0  0.47273426  0.22826077  0.14456521  1.0000
  N   N5        1.0  0.39056910999999994  0.18374815999999994  0.26438739  1.0000
  N   N6        1.0  0.75143912  0.16319948  0.46922779000000003  1.0000
  N   N7        1.0  0.10475278999999998  0.22368658999999994  0.48665096  1.0000
  N   N8        1.0  0.15482813000000006  0.9060203  0.38392767  1.0000
  N   N9        1.0  0.22125673  0.30171334  0.89760072  1.0000
  N   N10       1.0  0.95654923  0.35704132  0.88258108  1.0000
  N   N11       1.0  0.22353684999999995  0.45374884999999987  0.83991168  1.0000
  N   N12       1.0  0.03046028999999996  0.2698077599999999  0.64394985  1.0000
  N   N13       1.0  0.11103196  0.31161809  0.76458528  1.0000
  N   N14       1.0  0.7528122599999999  0.3350447299999999  0.9700452800000001  1.0000
  N   N15       1.0  0.39886364999999996  0.2740263199999999  0.9871153199999999  1.0000
  N   N16       1.0  0.3521224499999998  0.5893746099999998  0.88261609  1.0000
  N   N17       1.0  0.7358778499999998  0.7965229699999998  0.60141169  1.0000
  N   N18       1.0  0.47162128  0.85294005  0.61230551  1.0000
  N   N19       1.0  0.73760282  0.9498973299999999  0.65565669  1.0000
  N   N20       1.0  0.5289046799999998  0.77080801  0.85262498  1.0000
  N   N21       1.0  0.61877465  0.8095425399999999  0.7326321700000002  1.0000
  N   N22       1.0  0.26743689  0.8280012199999999  0.52528141  1.0000
  N   N23       1.0  0.9148359999999998  0.76737932  0.51324319  1.0000
  N   N24       1.0  0.8635863399999999  0.08619654  0.61331816  1.0000
  N   N25       1.0  0.7695075  0.70019801  0.10123241  1.0000
  N   N26       1.0  0.034585019999999925  0.6443645299999998  0.11379398  1.0000
  N   N27       1.0  0.7671814099999998  0.5476426199999997  0.15688936  1.0000
  N   N28       1.0  0.97305642  0.72550838  0.35390074  1.0000
  N   N29       1.0  0.88464338  0.68808539  0.23347207000000003  1.0000
  N   N30       1.0  0.23767200999999996  0.66684325  0.02592906  1.0000
  N   N31       1.0  0.5915122999999999  0.7278342599999997  0.01185766  1.0000
  N   N32       1.0  0.63946409  0.41235403  0.11309369  1.0000
