data_image0
_chemical_formula_structural       Co4B4H48C48N32
_chemical_formula_sum              "Co4 B4 H48 C48 N32"
_cell_length_a       8.378
_cell_length_b       14.9589
_cell_length_c       17.572
_cell_angle_alpha    90.0
_cell_angle_beta     90.0
_cell_angle_gamma    98.3475

_symmetry_space_group_name_H-M    'P 1'
_symmetry_Int_Tables_number       1

loop_
  _symmetry_equiv_pos_as_xyz
  'x,y,z'

loop_
  _atom_site_type_symbol
  _atom_site_label
  _atom_site_symmetry_multiplicity
  _atom_site_fract_x
  _atom_site_fract_y
  _atom_site_fract_z
  _atom_site_occupancy
  Co  Co1       1.0  0.63013  0.27524  0.07816  1.0000
  Co  Co2       1.0  0.86987  0.22476000000000004  0.57816  1.0000
  Co  Co3       1.0  0.36987  0.72476  0.92184  1.0000
  Co  Co4       1.0  0.13013  0.77524  0.42184  1.0000
  B   B1        1.0  0.3410999999999999  0.14950000000000005  0.36409999999999987  1.0000
  B   B2        1.0  0.1589  0.3505  0.8641  1.0000
  B   B3        1.0  0.6589  0.8505000000000003  0.6359  1.0000
  B   B4        1.0  0.8411  0.6495  0.1359  1.0000
  H   H1        1.0  0.14110000000000003  0.22900000000000006  0.25809999999999994  1.0000
  H   H2        1.0  0.619  0.0538  0.3403  1.0000
  H   H3        1.0  0.046  0.08  0.297  1.0000
  H   H4        1.0  0.254  0.268  0.129  1.0000
  H   H5        1.0  0.127  0.11600000000000003  0.48399999999999993  1.0000
  H   H6        1.0  0.303  0.34300000000000014  0.38  1.0000
  H   H7        1.0  0.937  0.9200000000000003  0.32  1.0000
  H   H8        1.0  0.852  0.08600000000000002  0.4279999999999999  1.0000
  H   H9        1.0  0.101  0.377  0.479  1.0000
  H   H10       1.0  0.59  0.182  0.248  1.0000
  H   H11       1.0  0.503  0.234  0.492  1.0000
  H   H12       1.0  0.3539999999999999  0.9710000000000002  0.424  1.0000
  H   H13       1.0  0.3589  0.271  0.7581  1.0000
  H   H14       1.0  0.881  0.4462000000000001  0.8403  1.0000
  H   H15       1.0  0.45400000000000007  0.4200000000000001  0.797  1.0000
  H   H16       1.0  0.246  0.23200000000000007  0.629  1.0000
  H   H17       1.0  0.373  0.38400000000000006  0.984  1.0000
  H   H18       1.0  0.197  0.15700000000000006  0.88  1.0000
  H   H19       1.0  0.563  0.5800000000000001  0.82  1.0000
  H   H20       1.0  0.648  0.414  0.928  1.0000
  H   H21       1.0  0.399  0.12300000000000003  0.9789999999999999  1.0000
  H   H22       1.0  0.91  0.318  0.748  1.0000
  H   H23       1.0  0.997  0.26600000000000007  0.992  1.0000
  H   H24       1.0  0.146  0.529  0.924  1.0000
  H   H25       1.0  0.8589  0.771  0.7419  1.0000
  H   H26       1.0  0.381  0.9462000000000003  0.6597  1.0000
  H   H27       1.0  0.9539999999999998  0.9200000000000003  0.703  1.0000
  H   H28       1.0  0.746  0.7320000000000002  0.871  1.0000
  H   H29       1.0  0.873  0.884  0.516  1.0000
  H   H30       1.0  0.6970000000000001  0.6570000000000003  0.62  1.0000
  H   H31       1.0  0.063  0.08  0.6799999999999999  1.0000
  H   H32       1.0  0.148  0.914  0.572  1.0000
  H   H33       1.0  0.899  0.623  0.521  1.0000
  H   H34       1.0  0.41000000000000003  0.8180000000000002  0.752  1.0000
  H   H35       1.0  0.49699999999999994  0.7660000000000002  0.5079999999999999  1.0000
  H   H36       1.0  0.646  0.02900000000000001  0.576  1.0000
  H   H37       1.0  0.6411  0.729  0.24190000000000003  1.0000
  H   H38       1.0  0.11900000000000002  0.5538000000000002  0.1597  1.0000
  H   H39       1.0  0.546  0.5800000000000001  0.203  1.0000
  H   H40       1.0  0.754  0.7680000000000001  0.371  1.0000
  H   H41       1.0  0.627  0.616  0.016  1.0000
  H   H42       1.0  0.803  0.8430000000000002  0.12  1.0000
  H   H43       1.0  0.43699999999999994  0.4200000000000001  0.17999999999999997  1.0000
  H   H44       1.0  0.3519999999999999  0.586  0.072  1.0000
  H   H45       1.0  0.601  0.8770000000000001  0.021  1.0000
  H   H46       1.0  0.09000000000000005  0.6820000000000003  0.252  1.0000
  H   H47       1.0  0.0030000000000000517  0.7340000000000002  0.008  1.0000
  H   H48       1.0  0.854  0.471  0.076  1.0000
  C   C1        1.0  0.2396  0.2995000000000001  0.4126999999999999  1.0000
  C   C2        1.0  0.2451  0.2241  0.24179999999999996  1.0000
  C   C3        1.0  0.3068000000000001  0.24640000000000006  0.17189999999999994  1.0000
  C   C4        1.0  0.49429999999999996  0.1984  0.237  1.0000
  C   C5        1.0  0.1384  0.1759  0.46979999999999994  1.0000
  C   C6        1.0  0.5665000000000002  0.19170000000000006  0.46559999999999996  1.0000
  C   C7        1.0  0.0946  0.034000000000000016  0.3211  1.0000
  C   C8        1.0  0.033700000000000035  0.9470000000000002  0.3376  1.0000
  C   C9        1.0  0.7471  0.11120000000000001  0.4312  1.0000
  C   C10       1.0  0.6238  0.09310000000000003  0.3816  1.0000
  C   C11       1.0  0.1328  0.3181  0.46709999999999996  1.0000
  C   C12       1.0  0.2617  0.9766  0.3942  1.0000
  C   C13       1.0  0.26039999999999996  0.2005  0.9127  1.0000
  C   C14       1.0  0.2549  0.2759000000000001  0.7417999999999998  1.0000
  C   C15       1.0  0.1932  0.2536  0.6719  1.0000
  C   C16       1.0  0.005700000000000011  0.30160000000000003  0.737  1.0000
  C   C17       1.0  0.3615999999999999  0.3241000000000001  0.9698  1.0000
  C   C18       1.0  0.9335  0.3083000000000001  0.9655999999999999  1.0000
  C   C19       1.0  0.4054  0.466  0.8211  1.0000
  C   C20       1.0  0.4663  0.5530000000000002  0.8376  1.0000
  C   C21       1.0  0.7529000000000001  0.3888000000000001  0.9311999999999999  1.0000
  C   C22       1.0  0.8762  0.4069  0.8816  1.0000
  C   C23       1.0  0.36719999999999997  0.1819  0.9670999999999998  1.0000
  C   C24       1.0  0.23830000000000004  0.5234000000000001  0.8942  1.0000
  C   C25       1.0  0.7604  0.7005000000000001  0.5873  1.0000
  C   C26       1.0  0.7549  0.7759  0.7582  1.0000
  C   C27       1.0  0.6932  0.7536  0.8281  1.0000
  C   C28       1.0  0.5057000000000001  0.8016000000000002  0.7629999999999998  1.0000
  C   C29       1.0  0.8616  0.8241  0.5302  1.0000
  C   C30       1.0  0.4335  0.8083000000000002  0.5344  1.0000
  C   C31       1.0  0.9054  0.966  0.6789  1.0000
  C   C32       1.0  0.9663  0.05300000000000001  0.6624  1.0000
  C   C33       1.0  0.2529  0.8888  0.5688  1.0000
  C   C34       1.0  0.3762  0.9069000000000002  0.6184  1.0000
  C   C35       1.0  0.8672000000000001  0.6819000000000002  0.5329  1.0000
  C   C36       1.0  0.7383  0.0234  0.6058  1.0000
  C   C37       1.0  0.7396  0.7995000000000002  0.0873  1.0000
  C   C38       1.0  0.7451  0.7241  0.2582  1.0000
  C   C39       1.0  0.8068  0.7464  0.3281  1.0000
  C   C40       1.0  0.9942999999999999  0.6984000000000002  0.263  1.0000
  C   C41       1.0  0.6384  0.6759  0.0302  1.0000
  C   C42       1.0  0.06650000000000006  0.6917000000000002  0.03439999999999999  1.0000
  C   C43       1.0  0.5946  0.534  0.1789  1.0000
  C   C44       1.0  0.5337  0.4470000000000001  0.1624  1.0000
  C   C45       1.0  0.24709999999999996  0.6112  0.06879999999999999  1.0000
  C   C46       1.0  0.1238  0.5931  0.1184  1.0000
  C   C47       1.0  0.6328  0.8181000000000003  0.0329  1.0000
  C   C48       1.0  0.7617  0.4766  0.1058  1.0000
  N   N1        1.0  0.24210000000000004  0.2075  0.414  1.0000
  N   N2        1.0  0.5053  0.1441  0.40329999999999994  1.0000
  N   N3        1.0  0.2422  0.05370000000000001  0.3578  1.0000
  N   N4        1.0  0.4657  0.22980000000000006  0.1687  1.0000
  N   N5        1.0  0.3647  0.19270000000000007  0.2847  1.0000
  N   N6        1.0  0.7133  0.1743  0.4841  1.0000
  N   N7        1.0  0.06880000000000001  0.23890000000000006  0.5029  1.0000
  N   N8        1.0  0.1393  0.9101  0.3832  1.0000
  N   N9        1.0  0.2579  0.2925  0.9140000000000001  1.0000
  N   N10       1.0  0.9946999999999999  0.3559000000000001  0.9033  1.0000
  N   N11       1.0  0.2578  0.4463  0.8577999999999998  1.0000
  N   N12       1.0  0.03429999999999998  0.2702  0.6687  1.0000
  N   N13       1.0  0.13530000000000003  0.30730000000000013  0.7847  1.0000
  N   N14       1.0  0.7867  0.32570000000000005  0.9840999999999999  1.0000
  N   N15       1.0  0.4312  0.2611  0.0028999999999999994  1.0000
  N   N16       1.0  0.3607  0.5899  0.8831999999999999  1.0000
  N   N17       1.0  0.7578999999999999  0.7925  0.586  1.0000
  N   N18       1.0  0.4947  0.8559  0.5967  1.0000
  N   N19       1.0  0.7578000000000001  0.9463000000000003  0.6422  1.0000
  N   N20       1.0  0.5343  0.7702  0.8312999999999998  1.0000
  N   N21       1.0  0.6353  0.8073000000000002  0.7152999999999998  1.0000
  N   N22       1.0  0.2867000000000001  0.8257000000000002  0.5159  1.0000
  N   N23       1.0  0.9312  0.7611000000000002  0.4971  1.0000
  N   N24       1.0  0.8607  0.0899  0.6168  1.0000
  N   N25       1.0  0.7421  0.7075  0.086  1.0000
  N   N26       1.0  0.005299999999999997  0.6441  0.09669999999999998  1.0000
  N   N27       1.0  0.7422000000000001  0.5537000000000002  0.1422  1.0000
  N   N28       1.0  0.9656999999999999  0.7298  0.3313  1.0000
  N   N29       1.0  0.8647  0.6927000000000002  0.2153  1.0000
  N   N30       1.0  0.2133000000000001  0.6743000000000002  0.0159  1.0000
  N   N31       1.0  0.5688  0.7389000000000002  0.9971  1.0000
  N   N32       1.0  0.6393  0.4101  0.11679999999999999  1.0000
