data_image0
_chemical_formula_structural       Cu6H30C78O24
_chemical_formula_sum              "Cu6 H30 C78 O24"
_cell_length_a       18.87078122
_cell_length_b       18.87097144
_cell_length_c       21.14471812
_cell_angle_alpha    63.526423220000005
_cell_angle_beta     63.52492018
_cell_angle_gamma    59.90601871

_symmetry_space_group_name_H-M    'P 1'
_symmetry_Int_Tables_number       1

loop_
  _symmetry_equiv_pos_as_xyz
  'x,y,z'

loop_
  _atom_site_type_symbol
  _atom_site_label
  _atom_site_symmetry_multiplicity
  _atom_site_fract_x
  _atom_site_fract_y
  _atom_site_fract_z
  _atom_site_occupancy
  Cu  Cu1       1.0  0.06107858999999997  0.49739281  0.94392961  1.0000
  Cu  Cu2       1.0  0.4975929900000001  0.4975963  0.9440918499999998  1.0000
  Cu  Cu3       1.0  0.49738799  0.061123549999999964  0.94388748  1.0000
  Cu  Cu4       1.0  0.938899  0.50261122  0.056093  1.0000
  Cu  Cu5       1.0  0.5026087000000001  0.93891907  0.05607071999999999  1.0000
  Cu  Cu6       1.0  0.50240428  0.50240713  0.055905010000000005  1.0000
  H   H1        1.0  0.02187408  0.53189385  0.19503051  1.0000
  H   H2        1.0  0.9145852199999999  0.50958726  0.43255945  1.0000
  H   H3        1.0  0.53180565  0.25087603  0.19514822  1.0000
  H   H4        1.0  0.50955747  0.14319006000000004  0.43268089  1.0000
  H   H5        1.0  0.25121599  0.021862209999999997  0.1951073  1.0000
  H   H6        1.0  0.14336812000000002  0.91439759  0.43265287  1.0000
  H   H7        1.0  0.9781381899999999  0.7487857599999999  0.80489147  1.0000
  H   H8        1.0  0.08560259  0.85663276  0.56734555  1.0000
  H   H9        1.0  0.46810473000000014  0.97812546  0.80496954  1.0000
  H   H10       1.0  0.4904121600000001  0.08541365999999997  0.56744173  1.0000
  H   H11       1.0  0.74912172  0.46819394999999997  0.80485199  1.0000
  H   H12       1.0  0.8568074599999999  0.49044273000000005  0.56732038  1.0000
  H   H13       1.0  0.97813331  0.46810011000000007  0.80497091  1.0000
  H   H14       1.0  0.08541681999999996  0.49041241  0.56743766  1.0000
  H   H15       1.0  0.4681897700000001  0.7491148400000001  0.80486343  1.0000
  H   H16       1.0  0.49044241999999993  0.85680805  0.56732316  1.0000
  H   H17       1.0  0.7487910299999998  0.9781345900000004  0.80488681  1.0000
  H   H18       1.0  0.85663131  0.08560286999999997  0.5673468  1.0000
  H   H19       1.0  0.021866889999999996  0.25120769  0.19511211  1.0000
  H   H20       1.0  0.91439707  0.14336738  0.43265418  1.0000
  H   H21       1.0  0.53190027  0.02186808  0.19502732  1.0000
  H   H22       1.0  0.5095876699999999  0.91458424  0.43256228  1.0000
  H   H23       1.0  0.2508855799999999  0.5318099400000003  0.19513784  1.0000
  H   H24       1.0  0.14319313000000003  0.50955694  0.43267666  1.0000
  H   H25       1.0  0.23517852999999989  0.5306938000000001  0.99870969  1.0000
  H   H26       1.0  0.5307007699999999  0.23517312  0.99871559  1.0000
  H   H27       1.0  0.23519429999999997  0.23519657000000002  0.9988364500000001  1.0000
  H   H28       1.0  0.76480361  0.76480668  0.00116193  1.0000
  H   H29       1.0  0.4693048300000001  0.7648231  0.00129101  1.0000
  H   H30       1.0  0.7648277099999999  0.4693000700000001  0.00128308  1.0000
  C   C1        1.0  0.07570134999999985  0.5267693300000003  0.055685  1.0000
  C   C2        1.0  0.12295632000000006  0.53281101  0.09295473  1.0000
  C   C3        1.0  0.08584745999999992  0.5327866600000002  0.16678766  1.0000
  C   C4        1.0  0.95173197  0.50533961  0.46233018  1.0000
  C   C5        1.0  0.52694823  0.34144868  0.05575747  1.0000
  C   C6        1.0  0.53280747  0.25093388  0.09302199  1.0000
  C   C7        1.0  0.53274466  0.21424239999999997  0.16686163  1.0000
  C   C8        1.0  0.50532276  0.0805548  0.46239326  1.0000
  C   C9        1.0  0.3417491  0.07569896  0.05577307  1.0000
  C   C10       1.0  0.25113139000000007  0.12295558  0.0930594  1.0000
  C   C11       1.0  0.21447830000000004  0.08588876  0.1668609  1.0000
  C   C12       1.0  0.08065055999999997  0.95164671  0.46236885  1.0000
  C   C13       1.0  0.9242823700000001  0.6582490800000002  0.9442443  1.0000
  C   C14       1.0  0.8770457499999997  0.7488734099999999  0.9069325900000001  1.0000
  C   C15       1.0  0.9141100299999996  0.7855233200000005  0.83313954  1.0000
  C   C16       1.0  0.04835365999999979  0.9193498700000001  0.53762975  1.0000
  C   C17       1.0  0.4732282799999999  0.9242804400000001  0.9443304899999999  1.0000
  C   C18       1.0  0.46718677  0.87705314  0.90704443  1.0000
  C   C19       1.0  0.46721311  0.9141497000000001  0.83321213  1.0000
  C   C20       1.0  0.49465985  0.04826678999999998  0.53767067  1.0000
  C   C21       1.0  0.65854848  0.47305304000000004  0.9442718999999999  1.0000
  C   C22       1.0  0.7490689099999999  0.46719203000000004  0.9069665799999999  1.0000
  C   C23       1.0  0.7857601699999999  0.46725476  0.83313705  1.0000
  C   C24       1.0  0.9194435499999999  0.49467737  0.53760758  1.0000
  C   C25       1.0  0.9242645199999999  0.47322892000000005  0.94435164  1.0000
  C   C26       1.0  0.8770571700000002  0.46718418999999994  0.90703429  1.0000
  C   C27       1.0  0.91415623  0.46720839000000003  0.83321176  1.0000
  C   C28       1.0  0.04826936000000005  0.49466080000000007  0.53766683  1.0000
  C   C29       1.0  0.4730433799999999  0.65855468  0.94428362  1.0000
  C   C30       1.0  0.46718876000000026  0.7490655600000001  0.90697747  1.0000
  C   C31       1.0  0.4672527099999998  0.7857553100000003  0.83314521  1.0000
  C   C32       1.0  0.4946764199999999  0.91944367  0.53761038  1.0000
  C   C33       1.0  0.6582482700000002  0.9243037400000002  0.94421852  1.0000
  C   C34       1.0  0.7488687300000001  0.8770443000000001  0.9069359299999998  1.0000
  C   C35       1.0  0.78552639  0.91410776  0.83313572  1.0000
  C   C36       1.0  0.9193490999999998  0.04835364  0.53763055  1.0000
  C   C37       1.0  0.07567823999999998  0.34175479  0.05579815999999999  1.0000
  C   C38       1.0  0.12296438999999999  0.25112759  0.09306095  1.0000
  C   C39       1.0  0.08589129999999998  0.21447565000000002  0.16686273  1.0000
  C   C40       1.0  0.9516462600000002  0.08065041000000002  0.46236947999999994  1.0000
  C   C41       1.0  0.52677551  0.07571818  0.05566705000000001  1.0000
  C   C42       1.0  0.5328180299999999  0.12294240000000001  0.09295545  1.0000
  C   C43       1.0  0.53279106  0.08584379  0.16678783  1.0000
  C   C44       1.0  0.50533937  0.95173135  0.4623332  1.0000
  C   C45       1.0  0.3414487500000001  0.52695751  0.05574249  1.0000
  C   C46       1.0  0.2509312699999998  0.5328108600000002  0.09301505  1.0000
  C   C47       1.0  0.21424821000000002  0.5327470699999999  0.16685527  1.0000
  C   C48       1.0  0.08055724  0.50532306  0.46238960000000007  1.0000
  C   C49       1.0  0.20563981000000003  0.53273928  0.05566804000000001  1.0000
  C   C50       1.0  0.13139735000000002  0.5320318  0.2048634  1.0000
  C   C51       1.0  0.09581328  0.52744061  0.28065532  1.0000
  C   C52       1.0  0.0663976899999998  0.5204527400000002  0.3466295  1.0000
  C   C53       1.0  0.03298379000000001  0.51078034  0.42320843  1.0000
  C   C54       1.0  0.53274193  0.20563842000000002  0.05567277  1.0000
  C   C55       1.0  0.53203329  0.13138958  0.20486584  1.0000
  C   C56       1.0  0.52744229  0.09580566  0.28065823  1.0000
  C   C57       1.0  0.5204541  0.06639438  0.34663116  1.0000
  C   C58       1.0  0.51078066  0.03298233000000002  0.42321055  1.0000
  C   C59       1.0  0.20571154999999994  0.20571409000000007  0.05575559  1.0000
  C   C60       1.0  0.13153716  0.13153039000000008  0.20490007  1.0000
  C   C61       1.0  0.0959507  0.09594411  0.28067658  1.0000
  C   C62       1.0  0.06647150999999998  0.06646842000000001  0.3466347  1.0000
  C   C63       1.0  0.033008159999999995  0.03300752  0.42320242  1.0000
  C   C64       1.0  0.79428554  0.79428524  0.94424784  1.0000
  C   C65       1.0  0.86846897  0.8684644500000004  0.79509915  1.0000
  C   C66       1.0  0.9040551799999993  0.9040512000000004  0.71932217  1.0000
  C   C67       1.0  0.93353016  0.93352947  0.65336518  1.0000
  C   C68       1.0  0.96699179  0.9669926  0.57679683  1.0000
  C   C69       1.0  0.46726047000000004  0.7943557999999997  0.9443375300000001  1.0000
  C   C70       1.0  0.4679674200000001  0.86860318  0.79513703  1.0000
  C   C71       1.0  0.4725569  0.9041872700000001  0.71934516  1.0000
  C   C72       1.0  0.47954538  0.9336017599999998  0.65337289  1.0000
  C   C73       1.0  0.48921839999999994  0.96701596  0.57679327  1.0000
  C   C74       1.0  0.7943578500000001  0.4672580499999999  0.9443336500000001  1.0000
  C   C75       1.0  0.8686105099999998  0.4679663500000002  0.79513337  1.0000
  C   C76       1.0  0.9041937799999998  0.47255816000000006  0.71934077  1.0000
  C   C77       1.0  0.9336044700000002  0.4795466700000002  0.65336834  1.0000
  C   C78       1.0  0.9670172799999999  0.4892200300000002  0.57678855  1.0000
  O   O1        1.0  0.0010261999999999127  0.5258475400000002  0.09373053  1.0000
  O   O2        1.0  0.11467122999999996  0.5205151899999999  0.9899852000000001  1.0000
  O   O3        1.0  0.52598148  0.37908656  0.09379067  1.0000
  O   O4        1.0  0.5209610900000001  0.37451058  0.98996864  1.0000
  O   O5        1.0  0.3795288500000001  0.0009451599999999965  0.09380816  1.0000
  O   O6        1.0  0.37458080000000005  0.11468986999999997  0.99010274  1.0000
  O   O7        1.0  0.9990493500000002  0.6204850999999999  0.9061866100000001  1.0000
  O   O8        1.0  0.8853203399999998  0.62543205  0.00988208  1.0000
  O   O9        1.0  0.4741544300000001  0.99899078  0.90626125  1.0000
  O   O10       1.0  0.47949095999999997  0.8853324700000003  0.01002071  1.0000
  O   O11       1.0  0.6209127999999999  0.4740154  0.90620101  1.0000
  O   O12       1.0  0.6254914799999999  0.47903829000000003  0.01001904  1.0000
  O   O13       1.0  0.9989838499999998  0.47416656000000007  0.90626153  1.0000
  O   O14       1.0  0.8853426299999999  0.4794638800000001  0.0100088  1.0000
  O   O15       1.0  0.47400148999999997  0.62091738  0.90621487  1.0000
  O   O16       1.0  0.47902891000000003  0.62549559  0.01003444  1.0000
  O   O17       1.0  0.6204811899999998  0.9990486699999999  0.9061699900000001  1.0000
  O   O18       1.0  0.6254036399999998  0.8853292400000002  0.00989301  1.0000
  O   O19       1.0  0.0009690799999999793  0.3795084300000001  0.09382219  1.0000
  O   O20       1.0  0.11467461999999992  0.37458198  0.9901099900000001  1.0000
  O   O21       1.0  0.52583047  0.001009840000000002  0.09373177  1.0000
  O   O22       1.0  0.5205293300000001  0.11467119000000003  0.9899736  1.0000
  O   O23       1.0  0.37908064  0.52599712  0.09377677  1.0000
  O   O24       1.0  0.37450669000000003  0.5209704  0.98995726  1.0000
