data_image0
_chemical_formula_structural       Cu8H48C48N64O32
_chemical_formula_sum              "Cu8 H48 C48 N64 O32"
_cell_length_a       24.10208089
_cell_length_b       24.10208106
_cell_length_c       4.2977688
_cell_angle_alpha    90.00000026
_cell_angle_beta     89.99999659
_cell_angle_gamma    89.99999973

_space_group_name_H-M_alt    "P 1"
_space_group_IT_number       1

loop_
  _space_group_symop_operation_xyz
  'x, y, z'

loop_
  _atom_site_type_symbol
  _atom_site_label
  _atom_site_symmetry_multiplicity
  _atom_site_fract_x
  _atom_site_fract_y
  _atom_site_fract_z
  _atom_site_occupancy
  Cu  Cu1       1.0  0.5  0.0  0.0  1.0000
  Cu  Cu2       1.0  0.0  0.5  0.5  1.0000
  Cu  Cu3       1.0  0.0  0.0  0.5  1.0000
  Cu  Cu4       1.0  0.5  0.5  0.0  1.0000
  Cu  Cu5       1.0  0.74999999  0.75  0.25  1.0000
  Cu  Cu6       1.0  0.74999999  0.25  0.75  1.0000
  Cu  Cu7       1.0  0.25000001  0.25  0.75  1.0000
  Cu  Cu8       1.0  0.25000001  0.75  0.25  1.0000
  H   H1        1.0  0.56014298  0.8325098400000001  0.59754625  1.0000
  H   H2        1.0  0.59621668  0.8890892799999999  0.41963946  1.0000
  H   H3        1.0  0.62467496  0.79688024  0.17223559  1.0000
  H   H4        1.0  0.06014298  0.33250984  0.09754625  1.0000
  H   H5        1.0  0.09621668  0.38908929  0.91963946  1.0000
  H   H6        1.0  0.12467496  0.29688024  0.67223559  1.0000
  H   H7        1.0  0.93985701  0.16749016  0.09754626  1.0000
  H   H8        1.0  0.90378332  0.11091071  0.91963943  1.0000
  H   H9        1.0  0.87532504  0.20311976  0.6722356  1.0000
  H   H10       1.0  0.43985702  0.6674901700000001  0.59754626  1.0000
  H   H11       1.0  0.40378332  0.61091071  0.41963938  1.0000
  H   H12       1.0  0.37532504000000005  0.70311976  0.17223561  1.0000
  H   H13       1.0  0.91749016  0.81014299  0.84754627  1.0000
  H   H14       1.0  0.8609107100000001  0.84621668  0.66963944  1.0000
  H   H15       1.0  0.9531197600000001  0.87467496  0.42223559  1.0000
  H   H16       1.0  0.41749016  0.31014298  0.34754626  1.0000
  H   H17       1.0  0.36091071  0.34621668  0.16963944  1.0000
  H   H18       1.0  0.45311976  0.37467496000000006  0.92223561  1.0000
  H   H19       1.0  0.58250984  0.18985701  0.34754626  1.0000
  H   H20       1.0  0.63908929  0.15378332  0.16963943  1.0000
  H   H21       1.0  0.54688024  0.12532504  0.92223559  1.0000
  H   H22       1.0  0.08250984  0.68985701  0.84754627  1.0000
  H   H23       1.0  0.13908929  0.65378332  0.6696394  1.0000
  H   H24       1.0  0.04688024  0.62532504  0.42223559  1.0000
  H   H25       1.0  0.43985702  0.16749016  0.40245374  1.0000
  H   H26       1.0  0.40378332  0.11091071  0.58036054  1.0000
  H   H27       1.0  0.37532504000000005  0.20311976  0.82776441  1.0000
  H   H28       1.0  0.93985702  0.66749016  0.90245375  1.0000
  H   H29       1.0  0.90378332  0.61091072  0.08036054  1.0000
  H   H30       1.0  0.87532504  0.70311976  0.32776441  1.0000
  H   H31       1.0  0.06014298  0.8325098400000001  0.90245374  1.0000
  H   H32       1.0  0.09621668  0.88908929  0.08036057  1.0000
  H   H33       1.0  0.12467496  0.79688024  0.3277644  1.0000
  H   H34       1.0  0.56014298  0.33250983  0.40245374  1.0000
  H   H35       1.0  0.59621668  0.38908929  0.58036062  1.0000
  H   H36       1.0  0.62467496  0.29688024  0.82776439  1.0000
  H   H37       1.0  0.08250984  0.18985701  0.15245374  1.0000
  H   H38       1.0  0.13908929  0.15378332  0.33036056  1.0000
  H   H39       1.0  0.04688024  0.12532504  0.5777644  1.0000
  H   H40       1.0  0.58250984  0.68985702  0.65245374  1.0000
  H   H41       1.0  0.63908929  0.65378332  0.83036057  1.0000
  H   H42       1.0  0.54688024  0.62532504  0.07776439  1.0000
  H   H43       1.0  0.41749016  0.81014299  0.65245373  1.0000
  H   H44       1.0  0.36091071  0.84621668  0.83036059  1.0000
  H   H45       1.0  0.45311976  0.87467496  0.07776442  1.0000
  H   H46       1.0  0.91749016  0.31014299  0.15245374  1.0000
  H   H47       1.0  0.8609107100000001  0.34621668  0.33036058  1.0000
  H   H48       1.0  0.9531197600000001  0.37467496000000006  0.57776441  1.0000
  C   C1        1.0  0.56510399  0.9086636  0.86814773  1.0000
  C   C2        1.0  0.58914597  0.86663259  0.64874383  1.0000
  C   C3        1.0  0.65324932  0.81263908  0.00082981  1.0000
  C   C4        1.0  0.06510398  0.40866360000000007  0.36814776  1.0000
  C   C5        1.0  0.08914597  0.36663259000000004  0.14874381  1.0000
  C   C6        1.0  0.15324931  0.31263908  0.50082982  1.0000
  C   C7        1.0  0.93489604  0.09133639  0.36814773  1.0000
  C   C8        1.0  0.91085403  0.1333674  0.14874379  1.0000
  C   C9        1.0  0.84675069  0.18736091  0.5008298  1.0000
  C   C10       1.0  0.43489604  0.5913364  0.86814768  1.0000
  C   C11       1.0  0.41085403  0.6333674  0.64874381  1.0000
  C   C12       1.0  0.34675068  0.68736091  0.00082977  1.0000
  C   C13       1.0  0.84133639  0.81510396  0.11814773  1.0000
  C   C14       1.0  0.88336741  0.83914597  0.89874379  1.0000
  C   C15       1.0  0.9373609100000001  0.90324931  0.25082979  1.0000
  C   C16       1.0  0.3413364  0.31510399  0.61814775  1.0000
  C   C17       1.0  0.3833674000000001  0.33914597  0.39874384  1.0000
  C   C18       1.0  0.43736092  0.40324931  0.7508298300000001  1.0000
  C   C19       1.0  0.65866361  0.18489605000000003  0.6181477  1.0000
  C   C20       1.0  0.61663259  0.16085403  0.39874378  1.0000
  C   C21       1.0  0.56263909  0.09675069  0.75082978  1.0000
  C   C22       1.0  0.15866361  0.68489605  0.11814769999999998  1.0000
  C   C23       1.0  0.11663259  0.66085404  0.8987437700000002  1.0000
  C   C24       1.0  0.06263908  0.59675069  0.25082978  1.0000
  C   C25       1.0  0.43489602  0.0913364  0.13185227  1.0000
  C   C26       1.0  0.41085403  0.13336741  0.35125619  1.0000
  C   C27       1.0  0.34675068  0.18736091  0.9991702  1.0000
  C   C28       1.0  0.934896  0.59133641  0.63185223  1.0000
  C   C29       1.0  0.91085403  0.63336741  0.85125617  1.0000
  C   C30       1.0  0.84675069  0.68736092  0.49917016999999997  1.0000
  C   C31       1.0  0.06510396  0.90866361  0.63185228  1.0000
  C   C32       1.0  0.08914597  0.8666326  0.8512562  1.0000
  C   C33       1.0  0.15324931  0.81263909  0.49917019  1.0000
  C   C34       1.0  0.56510396  0.40866361000000007  0.13185231  1.0000
  C   C35       1.0  0.58914597  0.36663259000000004  0.3512562  1.0000
  C   C36       1.0  0.65324931  0.31263909  0.9991702399999999  1.0000
  C   C37       1.0  0.15866361  0.18489603  0.88185226  1.0000
  C   C38       1.0  0.1166326  0.16085403  0.10125619  1.0000
  C   C39       1.0  0.06263909  0.09675069  0.7491702  1.0000
  C   C40       1.0  0.6586636  0.6848960200000002  0.38185226  1.0000
  C   C41       1.0  0.6166326  0.66085403  0.60125618  1.0000
  C   C42       1.0  0.56263908  0.59675069  0.24917018  1.0000
  C   C43       1.0  0.34133639  0.81510395  0.3818523  1.0000
  C   C44       1.0  0.3833674100000001  0.83914597  0.60125622  1.0000
  C   C45       1.0  0.43736092  0.90324931  0.24917022999999996  1.0000
  C   C46       1.0  0.84133639  0.31510395  0.88185228  1.0000
  C   C47       1.0  0.88336741  0.33914596  0.10125623  1.0000
  C   C48       1.0  0.9373609200000002  0.40324931  0.74917022  1.0000
  N   N1        1.0  0.64130679  0.84452314  0.75723978  1.0000
  N   N2        1.0  0.68920569  0.8562284900000001  0.60008267  1.0000
  N   N3        1.0  0.72880184  0.83010759  0.74782446  1.0000
  N   N4        1.0  0.70772559  0.80295637  0.9947836499999999  1.0000
  N   N5        1.0  0.14130678  0.34452315  0.25723978  1.0000
  N   N6        1.0  0.18920569  0.35622849  0.10008268  1.0000
  N   N7        1.0  0.22880184  0.33010758  0.24782445999999997  1.0000
  N   N8        1.0  0.20772558  0.30295637  0.4947836500000001  1.0000
  N   N9        1.0  0.8586932100000001  0.15547686  0.25723975  1.0000
  N   N10       1.0  0.81079432  0.1437715  0.10008265  1.0000
  N   N11       1.0  0.77119814  0.16989242  0.24782447  1.0000
  N   N12       1.0  0.7922744  0.19704364  0.49478368  1.0000
  N   N13       1.0  0.3586932  0.65547686  0.75723972  1.0000
  N   N14       1.0  0.31079431  0.64377149  0.60008253  1.0000
  N   N15       1.0  0.27119811  0.66989242  0.74782445  1.0000
  N   N16       1.0  0.29227439  0.69704364  0.9947837  1.0000
  N   N17       1.0  0.90547686  0.89130679  0.00723976  1.0000
  N   N18       1.0  0.89377151  0.93920568  0.85008269  1.0000
  N   N19       1.0  0.91989242  0.97880185  0.9978244800000001  1.0000
  N   N20       1.0  0.94704364  0.9577256  0.24478368  1.0000
  N   N21       1.0  0.40547684000000006  0.39130678  0.50723972  1.0000
  N   N22       1.0  0.39377147  0.43920569  0.35008243  1.0000
  N   N23       1.0  0.41989241  0.47880189  0.49782444  1.0000
  N   N24       1.0  0.4470436300000001  0.45772561  0.74478368  1.0000
  N   N25       1.0  0.59452313  0.10869320000000002  0.50723977  1.0000
  N   N26       1.0  0.60622848  0.060794320000000006  0.35008271  1.0000
  N   N27       1.0  0.58010758  0.021198150000000002  0.4978244700000001  1.0000
  N   N28       1.0  0.55295636  0.04227441  0.74478368  1.0000
  N   N29       1.0  0.09452313  0.6086932  0.00723976  1.0000
  N   N30       1.0  0.10622848  0.56079431  0.85008272  1.0000
  N   N31       1.0  0.08010758  0.52119815  0.9978244700000001  1.0000
  N   N32       1.0  0.05295636  0.54227441  0.24478367000000004  1.0000
  N   N33       1.0  0.35869321  0.15547686  0.24276022  1.0000
  N   N34       1.0  0.31079431  0.14377151  0.39991731  1.0000
  N   N35       1.0  0.27119816  0.16989241  0.25217553000000004  1.0000
  N   N36       1.0  0.29227441  0.19704363  0.00521634  1.0000
  N   N37       1.0  0.85869322  0.65547686  0.74276022  1.0000
  N   N38       1.0  0.81079431  0.64377151  0.89991733  1.0000
  N   N39       1.0  0.77119817  0.66989242  0.75217555  1.0000
  N   N40       1.0  0.79227442  0.69704363  0.50521635  1.0000
  N   N41       1.0  0.14130679  0.84452315  0.74276026  1.0000
  N   N42       1.0  0.18920569  0.85622851  0.8999174500000001  1.0000
  N   N43       1.0  0.22880187000000002  0.83010758  0.7521755400000001  1.0000
  N   N44       1.0  0.2077256  0.80295636  0.50521632  1.0000
  N   N45       1.0  0.6413068  0.34452313  0.24276027  1.0000
  N   N46       1.0  0.68920569  0.35622849  0.39991737  1.0000
  N   N47       1.0  0.72880188  0.33010758  0.25217555  1.0000
  N   N48       1.0  0.70772561  0.30295635  0.00521629  1.0000
  N   N49       1.0  0.09452314  0.10869321  0.99276023  1.0000
  N   N50       1.0  0.10622849000000001  0.060794320000000006  0.14991732  1.0000
  N   N51       1.0  0.08010758  0.021198150000000002  0.00217553  1.0000
  N   N52       1.0  0.05295636  0.04227441  0.75521631  1.0000
  N   N53       1.0  0.59452315  0.60869322  0.49276029000000005  1.0000
  N   N54       1.0  0.60622853  0.56079432  0.64991756  1.0000
  N   N55       1.0  0.58010758  0.52119811  0.50217555  1.0000
  N   N56       1.0  0.55295637  0.54227439  0.25521631  1.0000
  N   N57       1.0  0.40547687  0.8913068000000001  0.49276024000000007  1.0000
  N   N58       1.0  0.39377152  0.93920568  0.64991731  1.0000
  N   N59       1.0  0.41989242  0.9788018599999999  0.50217554  1.0000
  N   N60       1.0  0.44704365000000007  0.9577256  0.25521629  1.0000
  N   N61       1.0  0.90547687  0.3913068  0.99276023  1.0000
  N   N62       1.0  0.89377152  0.43920569  0.14991726  1.0000
  N   N63       1.0  0.91989242  0.47880184  0.00217552  1.0000
  N   N64       1.0  0.94704363  0.45772559  0.75521635  1.0000
  O   O1        1.0  0.51742807  0.9281415  0.78476649  1.0000
  O   O2        1.0  0.592825  0.92361065  0.09782724  1.0000
  O   O3        1.0  0.01742807  0.42814149000000007  0.28476646  1.0000
  O   O4        1.0  0.092825  0.4236106399999999  0.59782723  1.0000
  O   O5        1.0  0.98257192  0.07185852  0.28476644  1.0000
  O   O6        1.0  0.90717497  0.07638936  0.59782734  1.0000
  O   O7        1.0  0.48257196  0.57185853  0.78476625  1.0000
  O   O8        1.0  0.40717492000000005  0.57638934  0.09782767  1.0000
  O   O9        1.0  0.8218585300000002  0.76742807  0.03476641  1.0000
  O   O10       1.0  0.82638936  0.8428250200000001  0.34782733  1.0000
  O   O11       1.0  0.3218585  0.26742804  0.5347664200000001  1.0000
  O   O12       1.0  0.32638933  0.34282501000000004  0.84782735  1.0000
  O   O13       1.0  0.67814148  0.23257191  0.53476643  1.0000
  O   O14       1.0  0.6736106400000001  0.15717496  0.84782738  1.0000
  O   O15       1.0  0.17814146  0.7325719300000001  0.03476636  1.0000
  O   O16       1.0  0.17361063  0.65717495  0.34782746  1.0000
  O   O17       1.0  0.48257193  0.07185851  0.21523351  1.0000
  O   O18       1.0  0.40717499  0.07638936  0.90217274  1.0000
  O   O19       1.0  0.98257193  0.57185851  0.71523354  1.0000
  O   O20       1.0  0.907175  0.57638935  0.4021728  1.0000
  O   O21       1.0  0.01742807  0.92814149  0.71523357  1.0000
  O   O22       1.0  0.09282502  0.92361065  0.40217262  1.0000
  O   O23       1.0  0.51742805  0.42814146  0.21523374  1.0000
  O   O24       1.0  0.59282508  0.4236106499999999  0.90217237  1.0000
  O   O25       1.0  0.17814149  0.23257193  0.9652335599999999  1.0000
  O   O26       1.0  0.17361064  0.15717498  0.6521727  1.0000
  O   O27       1.0  0.67814149  0.7325719500000001  0.46523361  1.0000
  O   O28       1.0  0.67361066  0.65717498  0.15217261  1.0000
  O   O29       1.0  0.32185853  0.76742807  0.46523364  1.0000
  O   O30       1.0  0.32638936  0.84282505  0.15217252  1.0000
  O   O31       1.0  0.8218585300000002  0.26742808  0.96523358  1.0000
  O   O32       1.0  0.82638938  0.34282504  0.65217264  1.0000
