data_image0
_chemical_formula_structural       La4P4H12C12O32
_chemical_formula_sum              "La4 P4 H12 C12 O32"
_cell_length_a       7.1991
_cell_length_b       10.2926
_cell_length_c       13.3838
_cell_angle_alpha    90.0
_cell_angle_beta     90.0
_cell_angle_gamma    98.898

_symmetry_space_group_name_H-M    'P 1'
_symmetry_Int_Tables_number       1

loop_
  _symmetry_equiv_pos_as_xyz
  'x,y,z'

loop_
  _atom_site_type_symbol
  _atom_site_label
  _atom_site_symmetry_multiplicity
  _atom_site_fract_x
  _atom_site_fract_y
  _atom_site_fract_z
  _atom_site_occupancy
  La  La1       1.0  0.15928  0.28238  0.9059400000000002  1.0000
  La  La2       1.0  0.8407199999999998  0.21762000000000004  0.40594000000000013  1.0000
  La  La3       1.0  0.8407199999999998  0.71762  0.09406000000000003  1.0000
  La  La4       1.0  0.15928  0.78238  0.5940600000000003  1.0000
  P   P1        1.0  0.78502  0.0736  0.05193  1.0000
  P   P2        1.0  0.21497999999999995  0.4264  0.5519300000000001  1.0000
  P   P3        1.0  0.21498000000000003  0.9264000000000001  0.9480700000000001  1.0000
  P   P4        1.0  0.78502  0.5736  0.44807  1.0000
  H   H1        1.0  0.59  0.1928  0.0491  1.0000
  H   H2        1.0  0.8735  0.0018000000000000002  0.2559  1.0000
  H   H3        1.0  0.0602  0.0871  0.1481  1.0000
  H   H4        1.0  0.4099999999999999  0.3072  0.5491000000000001  1.0000
  H   H5        1.0  0.1265  0.4982  0.7559000000000002  1.0000
  H   H6        1.0  0.9398  0.41290000000000004  0.6481  1.0000
  H   H7        1.0  0.4099999999999999  0.8072  0.9509000000000002  1.0000
  H   H8        1.0  0.1265  0.9982  0.7441000000000002  1.0000
  H   H9        1.0  0.9398  0.9129  0.8519000000000002  1.0000
  H   H10       1.0  0.59  0.6928  0.45090000000000013  1.0000
  H   H11       1.0  0.8735  0.5018  0.24410000000000004  1.0000
  H   H12       1.0  0.06020000000000004  0.5871000000000001  0.35190000000000005  1.0000
  C   C1        1.0  0.9454  0.1263  0.156  1.0000
  C   C2        1.0  0.9974  0.2745  0.1629  1.0000
  C   C3        1.0  0.4535  0.5548  0.9740000000000002  1.0000
  C   C4        1.0  0.0546  0.3737  0.6560000000000001  1.0000
  C   C5        1.0  0.0026000000000000034  0.22550000000000003  0.6629000000000003  1.0000
  C   C6        1.0  0.5465  0.9452  0.47400000000000003  1.0000
  C   C7        1.0  0.0546  0.8737  0.844  1.0000
  C   C8        1.0  0.002600000000000011  0.7255  0.8371  1.0000
  C   C9        1.0  0.5465  0.4452  0.026000000000000002  1.0000
  C   C10       1.0  0.9454  0.6263  0.3440000000000001  1.0000
  C   C11       1.0  0.9974  0.7745  0.3371  1.0000
  C   C12       1.0  0.4535  0.0548  0.526  1.0000
  O   O1        1.0  0.6022  0.1292  0.084  1.0000
  O   O2        1.0  0.8647  0.1315  0.9552400000000002  1.0000
  O   O3        1.0  0.7430999999999998  0.9268  0.05794  1.0000
  O   O4        1.0  0.8504  0.076  0.24478000000000005  1.0000
  O   O5        1.0  0.0787  0.33270000000000005  0.08891  1.0000
  O   O6        1.0  0.9596999999999998  0.33030000000000004  0.24278  1.0000
  O   O7        1.0  0.3099  0.5207  0.9235300000000002  1.0000
  O   O8        1.0  0.5326  0.6708  0.99015  1.0000
  O   O9        1.0  0.3978  0.3708000000000001  0.5840000000000001  1.0000
  O   O10       1.0  0.1353  0.3685  0.4552400000000001  1.0000
  O   O11       1.0  0.2569  0.5732  0.55794  1.0000
  O   O12       1.0  0.1496  0.424  0.74478  1.0000
  O   O13       1.0  0.9212999999999996  0.1673  0.58891  1.0000
  O   O14       1.0  0.04030000000000001  0.16970000000000002  0.7427800000000002  1.0000
  O   O15       1.0  0.6901  0.9793000000000002  0.42353  1.0000
  O   O16       1.0  0.4674  0.8292  0.49015000000000003  1.0000
  O   O17       1.0  0.3978  0.8708  0.916  1.0000
  O   O18       1.0  0.13530000000000006  0.8685000000000002  0.044760000000000015  1.0000
  O   O19       1.0  0.2569  0.0732  0.9420600000000002  1.0000
  O   O20       1.0  0.1496  0.924  0.7552200000000002  1.0000
  O   O21       1.0  0.9213000000000001  0.6673  0.9110900000000002  1.0000
  O   O22       1.0  0.0403  0.6697000000000001  0.75722  1.0000
  O   O23       1.0  0.6901  0.4793  0.07647  1.0000
  O   O24       1.0  0.4674  0.3292  0.00985  1.0000
  O   O25       1.0  0.6022  0.6292  0.41600000000000004  1.0000
  O   O26       1.0  0.8647  0.6315  0.54476  1.0000
  O   O27       1.0  0.7430999999999998  0.42680000000000007  0.4420600000000001  1.0000
  O   O28       1.0  0.8504  0.576  0.25522  1.0000
  O   O29       1.0  0.0787  0.8327  0.41109  1.0000
  O   O30       1.0  0.9596999999999998  0.8303000000000001  0.25722000000000006  1.0000
  O   O31       1.0  0.3099  0.020700000000000003  0.57647  1.0000
  O   O32       1.0  0.5326  0.17080000000000004  0.50985  1.0000
