data_image0
_chemical_formula_structural       Nd4P4H12C12O32
_chemical_formula_sum              "Nd4 P4 H12 C12 O32"
_cell_length_a       7.2326
_cell_length_b       10.2337
_cell_length_c       13.1558
_cell_angle_alpha    90.0
_cell_angle_beta     90.0
_cell_angle_gamma    100.107

_symmetry_space_group_name_H-M    'P 1'
_symmetry_Int_Tables_number       1

loop_
  _symmetry_equiv_pos_as_xyz
  'x,y,z'

loop_
  _atom_site_type_symbol
  _atom_site_label
  _atom_site_symmetry_multiplicity
  _atom_site_fract_x
  _atom_site_fract_y
  _atom_site_fract_z
  _atom_site_occupancy
  Nd  Nd1       1.0  0.16299999999999998  0.28187  0.90549  1.0000
  Nd  Nd2       1.0  0.8369999999999997  0.21813  0.40549  1.0000
  Nd  Nd3       1.0  0.8369999999999996  0.71813  0.09451  1.0000
  Nd  Nd4       1.0  0.16299999999999995  0.7818699999999998  0.5945099999999999  1.0000
  P   P1        1.0  0.7874499999999999  0.07069  0.04946  1.0000
  P   P2        1.0  0.21254999999999993  0.42931  0.54946  1.0000
  P   P3        1.0  0.21254999999999993  0.92931  0.9505399999999999  1.0000
  P   P4        1.0  0.7874499999999999  0.57069  0.4505399999999999  1.0000
  H   H1        1.0  0.5928999999999998  0.188  0.04469999999999998  1.0000
  H   H2        1.0  0.8678999999999998  0.00039999999999999996  0.2586  1.0000
  H   H3        1.0  0.057699999999999974  0.086  0.14949999999999997  1.0000
  H   H4        1.0  0.4070999999999999  0.312  0.5447  1.0000
  H   H5        1.0  0.13209999999999997  0.49959999999999993  0.7585999999999998  1.0000
  H   H6        1.0  0.9422999999999999  0.414  0.6494999999999997  1.0000
  H   H7        1.0  0.4070999999999999  0.812  0.9552999999999998  1.0000
  H   H8        1.0  0.13209999999999997  0.9995999999999999  0.7414  1.0000
  H   H9        1.0  0.9422999999999999  0.9139999999999999  0.8505  1.0000
  H   H10       1.0  0.5928999999999998  0.688  0.45529999999999987  1.0000
  H   H11       1.0  0.8678999999999998  0.5004  0.2414  1.0000
  H   H12       1.0  0.0577  0.586  0.3505  1.0000
  C   C1        1.0  0.9441  0.1252  0.15619999999999995  1.0000
  C   C2        1.0  0.9996999999999998  0.2745  0.16339999999999996  1.0000
  C   C3        1.0  0.4531  0.5553  0.9757  1.0000
  C   C4        1.0  0.0559  0.3748  0.6562  1.0000
  C   C5        1.0  0.0003000000000000014  0.2255  0.6634  1.0000
  C   C6        1.0  0.5468999999999998  0.9446999999999999  0.4757  1.0000
  C   C7        1.0  0.05589999999999995  0.8748  0.8437999999999998  1.0000
  C   C8        1.0  0.0003000000000000014  0.7255  0.8365999999999999  1.0000
  C   C9        1.0  0.5468999999999998  0.44469999999999993  0.024299999999999995  1.0000
  C   C10       1.0  0.9441  0.6252  0.3438  1.0000
  C   C11       1.0  0.9996999999999998  0.7745  0.3366  1.0000
  C   C12       1.0  0.4531  0.0553  0.5242999999999999  1.0000
  O   O1        1.0  0.6036999999999998  0.12409999999999999  0.0804  1.0000
  O   O2        1.0  0.8695999999999998  0.1314  0.9523  1.0000
  O   O3        1.0  0.7453999999999997  0.9223  0.05439999999999998  1.0000
  O   O4        1.0  0.8461  0.0748  0.2464  1.0000
  O   O5        1.0  0.08089999999999997  0.33379999999999993  0.08739999999999999  1.0000
  O   O6        1.0  0.9608999999999998  0.3306  0.2442  1.0000
  O   O7        1.0  0.3051  0.5186  0.9269  1.0000
  O   O8        1.0  0.5327999999999999  0.6719999999999999  0.9914  1.0000
  O   O9        1.0  0.3963  0.3759  0.5804  1.0000
  O   O10       1.0  0.1304  0.3686  0.4523  1.0000
  O   O11       1.0  0.2546  0.5777  0.5544  1.0000
  O   O12       1.0  0.1539  0.4252  0.7463999999999997  1.0000
  O   O13       1.0  0.9190999999999998  0.1662  0.5873999999999999  1.0000
  O   O14       1.0  0.0391  0.1694  0.7441999999999998  1.0000
  O   O15       1.0  0.6948999999999997  0.9814  0.4268999999999999  1.0000
  O   O16       1.0  0.4672  0.828  0.49139999999999995  1.0000
  O   O17       1.0  0.3963  0.8759  0.9195999999999998  1.0000
  O   O18       1.0  0.1304  0.8686  0.047699999999999985  1.0000
  O   O19       1.0  0.2546  0.0777  0.9456  1.0000
  O   O20       1.0  0.15390000000000004  0.9252  0.7536  1.0000
  O   O21       1.0  0.9190999999999998  0.6662  0.9125999999999999  1.0000
  O   O22       1.0  0.03909999999999998  0.6693999999999999  0.7558  1.0000
  O   O23       1.0  0.6948999999999997  0.4814  0.0731  1.0000
  O   O24       1.0  0.4672  0.328  0.0086  1.0000
  O   O25       1.0  0.6036999999999998  0.6240999999999999  0.41959999999999986  1.0000
  O   O26       1.0  0.8695999999999998  0.6314  0.5477  1.0000
  O   O27       1.0  0.7453999999999997  0.42229999999999995  0.44559999999999994  1.0000
  O   O28       1.0  0.8461000000000001  0.5748  0.2536  1.0000
  O   O29       1.0  0.08089999999999996  0.8338  0.4126  1.0000
  O   O30       1.0  0.9608999999999999  0.8306  0.2558  1.0000
  O   O31       1.0  0.3051  0.018599999999999995  0.5731  1.0000
  O   O32       1.0  0.5327999999999999  0.172  0.5085999999999999  1.0000
