data_image0
_chemical_formula_structural       Mn4H32C56N8O20Mn4H32C56N8O20
_chemical_formula_sum              "Mn8 H64 C112 N16 O40"
_cell_length_a       10.2319
_cell_length_b       18.733
_cell_length_c       20.283
_cell_angle_alpha    90.0
_cell_angle_beta     90.0
_cell_angle_gamma    90.0

_symmetry_space_group_name_H-M    'P 1'
_symmetry_Int_Tables_number       1

loop_
  _symmetry_equiv_pos_as_xyz
  'x,y,z'

loop_
  _atom_site_type_symbol
  _atom_site_label
  _atom_site_symmetry_multiplicity
  _atom_site_fract_x
  _atom_site_fract_y
  _atom_site_fract_z
  _atom_site_occupancy
  Mn  Mn1       1.0  0.16315  0.9496900000000001  0.94893  1.0000
  Mn  Mn2       1.0  0.33685  0.55031  0.44893  1.0000
  Mn  Mn3       1.0  0.83685  0.05031  0.05106999999999999  1.0000
  Mn  Mn4       1.0  0.66315  0.44969  0.55107  1.0000
  H   H1        1.0  0.7266  0.6964000000000001  0.8167999999999999  1.0000
  H   H2        1.0  0.4661  0.8019000000000002  0.8341  1.0000
  H   H3        1.0  0.626  0.9547  0.9493  1.0000
  H   H4        1.0  0.8575999999999999  0.8061000000000003  0.8638  1.0000
  H   H5        1.0  0.7967999999999998  0.5159  0.6802  1.0000
  H   H6        1.0  0.7905  0.6158000000000001  0.7474999999999999  1.0000
  H   H7        1.0  0.4591  0.6748  0.6549  1.0000
  H   H8        1.0  0.47569999999999996  0.5737  0.5904  1.0000
  H   H9        1.0  0.7734  0.8036  0.3168  1.0000
  H   H10       1.0  0.0339  0.6981  0.33409999999999995  1.0000
  H   H11       1.0  0.8739999999999999  0.5453  0.4493  1.0000
  H   H12       1.0  0.6424  0.6939  0.3638  1.0000
  H   H13       1.0  0.7032  0.9841  0.18019999999999997  1.0000
  H   H14       1.0  0.7095  0.8842000000000001  0.2475  1.0000
  H   H15       1.0  0.0409  0.8252  0.1549  1.0000
  H   H16       1.0  0.0243  0.9263  0.0904  1.0000
  H   H17       1.0  0.2734  0.3036  0.1832  1.0000
  H   H18       1.0  0.5339  0.1981  0.1659  1.0000
  H   H19       1.0  0.374  0.0453  0.0507  1.0000
  H   H20       1.0  0.1424  0.1939  0.1362  1.0000
  H   H21       1.0  0.2032  0.48410000000000003  0.3198  1.0000
  H   H22       1.0  0.20949999999999996  0.38420000000000004  0.2525  1.0000
  H   H23       1.0  0.5409  0.3252  0.3451  1.0000
  H   H24       1.0  0.5243  0.4263  0.4096  1.0000
  H   H25       1.0  0.22659999999999997  0.1964  0.6832  1.0000
  H   H26       1.0  0.9660999999999998  0.3019  0.6658999999999999  1.0000
  H   H27       1.0  0.126  0.45470000000000005  0.5507  1.0000
  H   H28       1.0  0.3575999999999999  0.3061  0.6362  1.0000
  H   H29       1.0  0.2968  0.0159  0.8198  1.0000
  H   H30       1.0  0.2905  0.1158  0.7525  1.0000
  H   H31       1.0  0.9590999999999998  0.1748  0.8450999999999999  1.0000
  H   H32       1.0  0.9757  0.0737  0.9096  1.0000
  C   C1        1.0  0.6638999999999999  0.79414  0.84294  1.0000
  C   C2        1.0  0.5408  0.82329  0.8536799999999999  1.0000
  C   C3        1.0  0.5265  0.8833  0.8928099999999999  1.0000
  C   C4        1.0  0.6358  0.9140800000000001  0.9217699999999999  1.0000
  C   C5        1.0  0.7587  0.88591  0.91072  1.0000
  C   C6        1.0  0.7732  0.82563  0.87129  1.0000
  C   C7        1.0  0.6127999999999999  0.72615  0.74454  1.0000
  C   C8        1.0  0.7277999999999999  0.5493  0.6745799999999998  1.0000
  C   C9        1.0  0.7246  0.6086  0.71518  1.0000
  C   C10       1.0  0.6247  0.65691  0.7078999999999999  1.0000
  C   C11       1.0  0.5305  0.6430600000000001  0.6607699999999999  1.0000
  C   C12       1.0  0.5414  0.58268  0.62243  1.0000
  C   C13       1.0  0.3925  0.91278  0.9051  1.0000
  C   C14       1.0  0.8772  0.92158  0.9397  1.0000
  C   C15       1.0  0.8360999999999998  0.70586  0.34294  1.0000
  C   C16       1.0  0.9591999999999999  0.67671  0.35368  1.0000
  C   C17       1.0  0.9735  0.6167  0.39281  1.0000
  C   C18       1.0  0.8642  0.58592  0.42177  1.0000
  C   C19       1.0  0.7413  0.61409  0.4107199999999999  1.0000
  C   C20       1.0  0.7267999999999999  0.67437  0.37129  1.0000
  C   C21       1.0  0.8871999999999999  0.77385  0.24454  1.0000
  C   C22       1.0  0.7722  0.9507  0.17458  1.0000
  C   C23       1.0  0.7754  0.8914000000000001  0.21517999999999998  1.0000
  C   C24       1.0  0.8753  0.84309  0.20789999999999997  1.0000
  C   C25       1.0  0.9695  0.85694  0.16077  1.0000
  C   C26       1.0  0.9586  0.91732  0.12243  1.0000
  C   C27       1.0  0.1075  0.58722  0.4051  1.0000
  C   C28       1.0  0.6228  0.57842  0.4397  1.0000
  C   C29       1.0  0.33609999999999995  0.20586  0.15706  1.0000
  C   C30       1.0  0.4592  0.17671  0.14632  1.0000
  C   C31       1.0  0.4735  0.1167  0.10719  1.0000
  C   C32       1.0  0.3642  0.08592000000000002  0.07823  1.0000
  C   C33       1.0  0.2413  0.11409000000000001  0.08928  1.0000
  C   C34       1.0  0.2268  0.17437  0.12871  1.0000
  C   C35       1.0  0.3872  0.27385  0.25546  1.0000
  C   C36       1.0  0.2722  0.4507  0.32542  1.0000
  C   C37       1.0  0.2754  0.3914  0.28481999999999996  1.0000
  C   C38       1.0  0.37529999999999997  0.34309  0.2921  1.0000
  C   C39       1.0  0.4695  0.35694  0.33923  1.0000
  C   C40       1.0  0.4586  0.41732  0.37757  1.0000
  C   C41       1.0  0.6075  0.08722  0.0949  1.0000
  C   C42       1.0  0.1228  0.07842  0.06029999999999999  1.0000
  C   C43       1.0  0.1639  0.29414  0.65706  1.0000
  C   C44       1.0  0.0408  0.32329  0.64632  1.0000
  C   C45       1.0  0.0265  0.3833  0.60719  1.0000
  C   C46       1.0  0.1358  0.41408  0.57823  1.0000
  C   C47       1.0  0.2587  0.38591  0.58928  1.0000
  C   C48       1.0  0.2732  0.32563  0.62871  1.0000
  C   C49       1.0  0.11279999999999998  0.22615  0.75546  1.0000
  C   C50       1.0  0.2278  0.049300000000000004  0.8254199999999999  1.0000
  C   C51       1.0  0.22459999999999997  0.10860000000000002  0.78482  1.0000
  C   C52       1.0  0.1247  0.15691  0.7920999999999999  1.0000
  C   C53       1.0  0.030499999999999996  0.14306  0.8392299999999999  1.0000
  C   C54       1.0  0.0414  0.08268  0.8775699999999999  1.0000
  C   C55       1.0  0.8924999999999998  0.41278  0.5949  1.0000
  C   C56       1.0  0.3772  0.42158  0.5603  1.0000
  N   N1        1.0  0.6768  0.73171  0.80321  1.0000
  N   N2        1.0  0.6389  0.53653  0.62796  1.0000
  N   N3        1.0  0.8231999999999999  0.7682900000000001  0.30321  1.0000
  N   N4        1.0  0.8610999999999999  0.96347  0.12796  1.0000
  N   N5        1.0  0.3232  0.26829  0.19679  1.0000
  N   N6        1.0  0.3611  0.46347  0.37204  1.0000
  N   N7        1.0  0.1768  0.23171  0.69679  1.0000
  N   N8        1.0  0.1389  0.03653000000000001  0.87204  1.0000
  O   O1        1.0  0.5469  0.77427  0.72128  1.0000
  O   O2        1.0  0.29362  0.88186  0.88084  1.0000
  O   O3        1.0  0.38139999999999996  0.9666700000000001  0.9413299999999999  1.0000
  O   O4        1.0  0.9879799999999999  0.8964600000000003  0.92578  1.0000
  O   O5        1.0  0.86043  0.97567  0.9746499999999999  1.0000
  O   O6        1.0  0.9530999999999998  0.7257300000000001  0.22128  1.0000
  O   O7        1.0  0.20638  0.6181400000000001  0.38084  1.0000
  O   O8        1.0  0.1186  0.53333  0.44133  1.0000
  O   O9        1.0  0.51202  0.60354  0.42577999999999994  1.0000
  O   O10       1.0  0.63957  0.52433  0.47465  1.0000
  O   O11       1.0  0.45309999999999995  0.22573  0.27872  1.0000
  O   O12       1.0  0.70638  0.11814000000000001  0.11915999999999999  1.0000
  O   O13       1.0  0.6185999999999999  0.03333  0.05866999999999999  1.0000
  O   O14       1.0  0.01202  0.10354  0.07422  1.0000
  O   O15       1.0  0.13957  0.02433  0.02535  1.0000
  O   O16       1.0  0.0469  0.27427000000000007  0.77872  1.0000
  O   O17       1.0  0.79362  0.3818600000000001  0.61916  1.0000
  O   O18       1.0  0.8813999999999999  0.46667000000000003  0.55867  1.0000
  O   O19       1.0  0.48797999999999997  0.3964600000000001  0.57422  1.0000
  O   O20       1.0  0.36043  0.47567000000000004  0.52535  1.0000
  Mn  Mn5       1.0  0.16315  0.05031  0.55107  1.0000
  Mn  Mn6       1.0  0.33685  0.44969  0.05106999999999999  1.0000
  Mn  Mn7       1.0  0.83685  0.9496900000000001  0.44893  1.0000
  Mn  Mn8       1.0  0.66315  0.55031  0.94893  1.0000
  H   H33       1.0  0.7266  0.3036  0.6832  1.0000
  H   H34       1.0  0.4661  0.1981  0.6658999999999999  1.0000
  H   H35       1.0  0.626  0.0453  0.5507  1.0000
  H   H36       1.0  0.8575999999999999  0.1939  0.6362  1.0000
  H   H37       1.0  0.7967999999999998  0.48410000000000003  0.8198  1.0000
  H   H38       1.0  0.7905  0.38420000000000004  0.7525  1.0000
  H   H39       1.0  0.4591  0.3252  0.8450999999999999  1.0000
  H   H40       1.0  0.47569999999999996  0.4263  0.9096  1.0000
  H   H41       1.0  0.7734  0.1964  0.1832  1.0000
  H   H42       1.0  0.0339  0.3019  0.1659  1.0000
  H   H43       1.0  0.8739999999999999  0.45470000000000005  0.0507  1.0000
  H   H44       1.0  0.6424  0.3061  0.1362  1.0000
  H   H45       1.0  0.7032  0.0159  0.3198  1.0000
  H   H46       1.0  0.7095  0.1158  0.2525  1.0000
  H   H47       1.0  0.0409  0.1748  0.3451  1.0000
  H   H48       1.0  0.0243  0.0737  0.4096  1.0000
  H   H49       1.0  0.2734  0.6964000000000001  0.3168  1.0000
  H   H50       1.0  0.5339  0.8019000000000002  0.33409999999999995  1.0000
  H   H51       1.0  0.374  0.9547  0.4493  1.0000
  H   H52       1.0  0.1424  0.8061000000000003  0.3638  1.0000
  H   H53       1.0  0.2032  0.5159  0.18019999999999997  1.0000
  H   H54       1.0  0.20949999999999996  0.6158000000000001  0.2475  1.0000
  H   H55       1.0  0.5409  0.6748  0.1549  1.0000
  H   H56       1.0  0.5243  0.5737  0.0904  1.0000
  H   H57       1.0  0.22659999999999997  0.8036  0.8167999999999999  1.0000
  H   H58       1.0  0.9660999999999998  0.6981  0.8341  1.0000
  H   H59       1.0  0.126  0.5453  0.9493  1.0000
  H   H60       1.0  0.3575999999999999  0.6939  0.8638  1.0000
  H   H61       1.0  0.2968  0.9841  0.6802  1.0000
  H   H62       1.0  0.2905  0.8842000000000001  0.7474999999999999  1.0000
  H   H63       1.0  0.9590999999999998  0.8252  0.6549  1.0000
  H   H64       1.0  0.9757  0.9263  0.5904  1.0000
  C   C57       1.0  0.6638999999999999  0.20586  0.65706  1.0000
  C   C58       1.0  0.5408  0.17671  0.64632  1.0000
  C   C59       1.0  0.5265  0.1167  0.60719  1.0000
  C   C60       1.0  0.6358  0.08592000000000002  0.57823  1.0000
  C   C61       1.0  0.7587  0.11409000000000001  0.58928  1.0000
  C   C62       1.0  0.7732  0.17437  0.62871  1.0000
  C   C63       1.0  0.6127999999999999  0.27385  0.75546  1.0000
  C   C64       1.0  0.7277999999999999  0.4507  0.8254199999999999  1.0000
  C   C65       1.0  0.7246  0.3914  0.78482  1.0000
  C   C66       1.0  0.6247  0.34309  0.7920999999999999  1.0000
  C   C67       1.0  0.5305  0.35694  0.8392299999999999  1.0000
  C   C68       1.0  0.5414  0.41732  0.8775699999999999  1.0000
  C   C69       1.0  0.3925  0.08722  0.5949  1.0000
  C   C70       1.0  0.8772  0.07842  0.5603  1.0000
  C   C71       1.0  0.8360999999999998  0.29414  0.15706  1.0000
  C   C72       1.0  0.9591999999999999  0.32329  0.14632  1.0000
  C   C73       1.0  0.9735  0.3833  0.10719  1.0000
  C   C74       1.0  0.8642  0.41408  0.07823  1.0000
  C   C75       1.0  0.7413  0.38591  0.08928  1.0000
  C   C76       1.0  0.7267999999999999  0.32563  0.12871  1.0000
  C   C77       1.0  0.8871999999999999  0.22615  0.25546  1.0000
  C   C78       1.0  0.7722  0.049300000000000004  0.32542  1.0000
  C   C79       1.0  0.7754  0.10860000000000002  0.28481999999999996  1.0000
  C   C80       1.0  0.8753  0.15691  0.2921  1.0000
  C   C81       1.0  0.9695  0.14306  0.33923  1.0000
  C   C82       1.0  0.9586  0.08268  0.37757  1.0000
  C   C83       1.0  0.1075  0.41278  0.0949  1.0000
  C   C84       1.0  0.6228  0.42158  0.06029999999999999  1.0000
  C   C85       1.0  0.33609999999999995  0.79414  0.34294  1.0000
  C   C86       1.0  0.4592  0.82329  0.35368  1.0000
  C   C87       1.0  0.4735  0.8833  0.39281  1.0000
  C   C88       1.0  0.3642  0.9140800000000001  0.42177  1.0000
  C   C89       1.0  0.2413  0.88591  0.4107199999999999  1.0000
  C   C90       1.0  0.2268  0.82563  0.37129  1.0000
  C   C91       1.0  0.3872  0.72615  0.24454  1.0000
  C   C92       1.0  0.2722  0.5493  0.17458  1.0000
  C   C93       1.0  0.2754  0.6086  0.21517999999999998  1.0000
  C   C94       1.0  0.37529999999999997  0.65691  0.20789999999999997  1.0000
  C   C95       1.0  0.4695  0.6430600000000001  0.16077  1.0000
  C   C96       1.0  0.4586  0.58268  0.12243  1.0000
  C   C97       1.0  0.6075  0.91278  0.4051  1.0000
  C   C98       1.0  0.1228  0.92158  0.4397  1.0000
  C   C99       1.0  0.1639  0.70586  0.84294  1.0000
  C   C100      1.0  0.0408  0.67671  0.8536799999999999  1.0000
  C   C101      1.0  0.0265  0.6167  0.8928099999999999  1.0000
  C   C102      1.0  0.1358  0.58592  0.9217699999999999  1.0000
  C   C103      1.0  0.2587  0.61409  0.91072  1.0000
  C   C104      1.0  0.2732  0.67437  0.87129  1.0000
  C   C105      1.0  0.11279999999999998  0.77385  0.74454  1.0000
  C   C106      1.0  0.2278  0.9507  0.6745799999999998  1.0000
  C   C107      1.0  0.22459999999999997  0.8914000000000001  0.71518  1.0000
  C   C108      1.0  0.1247  0.84309  0.7078999999999999  1.0000
  C   C109      1.0  0.030499999999999996  0.85694  0.6607699999999999  1.0000
  C   C110      1.0  0.0414  0.91732  0.62243  1.0000
  C   C111      1.0  0.8924999999999998  0.58722  0.9051  1.0000
  C   C112      1.0  0.3772  0.57842  0.9397  1.0000
  N   N9        1.0  0.6768  0.26829  0.69679  1.0000
  N   N10       1.0  0.6389  0.46347  0.87204  1.0000
  N   N11       1.0  0.8231999999999999  0.23171  0.19679  1.0000
  N   N12       1.0  0.8610999999999999  0.03653000000000001  0.37204  1.0000
  N   N13       1.0  0.3232  0.73171  0.30321  1.0000
  N   N14       1.0  0.3611  0.53653  0.12796  1.0000
  N   N15       1.0  0.1768  0.7682900000000001  0.80321  1.0000
  N   N16       1.0  0.1389  0.96347  0.62796  1.0000
  O   O21       1.0  0.5469  0.22573  0.77872  1.0000
  O   O22       1.0  0.29362  0.11814000000000001  0.61916  1.0000
  O   O23       1.0  0.38139999999999996  0.03333  0.55867  1.0000
  O   O24       1.0  0.9879799999999999  0.10354  0.57422  1.0000
  O   O25       1.0  0.86043  0.02433  0.52535  1.0000
  O   O26       1.0  0.9530999999999998  0.27427000000000007  0.27872  1.0000
  O   O27       1.0  0.20638  0.3818600000000001  0.11915999999999999  1.0000
  O   O28       1.0  0.1186  0.46667000000000003  0.05866999999999999  1.0000
  O   O29       1.0  0.51202  0.3964600000000001  0.07422  1.0000
  O   O30       1.0  0.63957  0.47567000000000004  0.02535  1.0000
  O   O31       1.0  0.45309999999999995  0.77427  0.22128  1.0000
  O   O32       1.0  0.70638  0.88186  0.38084  1.0000
  O   O33       1.0  0.6185999999999999  0.9666700000000001  0.44133  1.0000
  O   O34       1.0  0.01202  0.8964600000000003  0.42577999999999994  1.0000
  O   O35       1.0  0.13957  0.97567  0.47465  1.0000
  O   O36       1.0  0.0469  0.7257300000000001  0.72128  1.0000
  O   O37       1.0  0.79362  0.6181400000000001  0.88084  1.0000
  O   O38       1.0  0.8813999999999999  0.53333  0.9413299999999999  1.0000
  O   O39       1.0  0.48797999999999997  0.60354  0.92578  1.0000
  O   O40       1.0  0.36043  0.52433  0.9746499999999999  1.0000
