data_image0
_chemical_formula_structural       Sr4H12C20O20
_chemical_formula_sum              "Sr4 H12 C20 O20"
_cell_length_a       8.0987
_cell_length_b       9.7728
_cell_length_c       11.180599999999998
_cell_angle_alpha    97.12689999999999
_cell_angle_beta     90.0
_cell_angle_gamma    114.47799999999998

_space_group_name_H-M_alt    "P 1"
_space_group_IT_number       1

loop_
  _space_group_symop_operation_xyz
  'x, y, z'

loop_
  _atom_site_type_symbol
  _atom_site_label
  _atom_site_symmetry_multiplicity
  _atom_site_fract_x
  _atom_site_fract_y
  _atom_site_fract_z
  _atom_site_occupancy
  Sr  Sr1       1.0  0.8925599999999999  0.51716  0.6860900000000001  1.0000
  Sr  Sr2       1.0  0.3754  0.48284  0.8139100000000001  1.0000
  Sr  Sr3       1.0  0.10744000000000001  0.48284  0.31391  1.0000
  Sr  Sr4       1.0  0.6246  0.51716  0.18609  1.0000
  H   H1        1.0  0.9952000000000001  0.2536  0.6609000000000002  1.0000
  H   H2        1.0  0.09620000000000002  0.35000000000000003  0.5885  1.0000
  H   H3        1.0  0.3605  0.0522  0.8445  1.0000
  H   H4        1.0  0.7416  0.7464  0.8391000000000001  1.0000
  H   H5        1.0  0.7462  0.65  0.9115000000000001  1.0000
  H   H6        1.0  0.3083000000000001  0.9478000000000001  0.6555  1.0000
  H   H7        1.0  0.004799999999999998  0.7464  0.33910000000000007  1.0000
  H   H8        1.0  0.9038  0.65  0.41150000000000003  1.0000
  H   H9        1.0  0.6395000000000003  0.9478000000000001  0.15550000000000003  1.0000
  H   H10       1.0  0.2584  0.2536  0.1609  1.0000
  H   H11       1.0  0.2538  0.35000000000000003  0.08850000000000001  1.0000
  H   H12       1.0  0.6917  0.0522  0.3445  1.0000
  C   C1        1.0  0.19530000000000017  0.7608000000000003  0.8556000000000001  1.0000
  C   C2        1.0  0.3493  0.884  0.9346000000000002  1.0000
  C   C3        1.0  0.43181  0.85182  0.030600000000000002  1.0000
  C   C4        1.0  0.41768000000000016  0.030960000000000022  0.9072  1.0000
  C   C5        1.0  0.36158000000000007  0.6975600000000001  0.0752  1.0000
  C   C6        1.0  0.4345  0.2392  0.6444  1.0000
  C   C7        1.0  0.4653000000000001  0.11600000000000002  0.5654  1.0000
  C   C8        1.0  0.57999  0.14818  0.4694  1.0000
  C   C9        1.0  0.38672  0.96904  0.5928  1.0000
  C   C10       1.0  0.66402  0.30244  0.4248  1.0000
  C   C11       1.0  0.8047  0.2392  0.1444  1.0000
  C   C12       1.0  0.6507  0.11600000000000002  0.06540000000000001  1.0000
  C   C13       1.0  0.56819  0.14818000000000003  0.9694000000000003  1.0000
  C   C14       1.0  0.58232  0.96904  0.0928  1.0000
  C   C15       1.0  0.63842  0.30244000000000004  0.9248000000000001  1.0000
  C   C16       1.0  0.5655000000000002  0.7608000000000003  0.3556  1.0000
  C   C17       1.0  0.5347  0.884  0.4346  1.0000
  C   C18       1.0  0.4200100000000001  0.85182  0.5306  1.0000
  C   C19       1.0  0.61328  0.030960000000000022  0.4072000000000001  1.0000
  C   C20       1.0  0.33598000000000006  0.6975600000000001  0.5752  1.0000
  O   O1        1.0  0.16991999999999993  0.62464  0.8572  1.0000
  O   O2        1.0  0.10148000000000001  0.79876  0.7887000000000002  1.0000
  O   O3        1.0  0.4441899999999999  0.61558  0.0449  1.0000
  O   O4        1.0  0.23326  0.66652  0.1444  1.0000
  O   O5        1.0  0.06747000000000003  0.3463400000000001  0.6614000000000001  1.0000
  O   O6        1.0  0.54528  0.3753600000000001  0.6428000000000001  1.0000
  O   O7        1.0  0.30272  0.20124000000000009  0.7113  1.0000
  O   O8        1.0  0.82861  0.38442  0.45510000000000006  1.0000
  O   O9        1.0  0.56674  0.33348  0.3556  1.0000
  O   O10       1.0  0.7211300000000002  0.65366  0.8386  1.0000
  O   O11       1.0  0.8300800000000002  0.3753600000000001  0.1428  1.0000
  O   O12       1.0  0.89852  0.20124  0.2113  1.0000
  O   O13       1.0  0.55581  0.38442  0.9551000000000001  1.0000
  O   O14       1.0  0.76674  0.33348  0.8556000000000001  1.0000
  O   O15       1.0  0.93253  0.65366  0.3386  1.0000
  O   O16       1.0  0.45472  0.62464  0.3572  1.0000
  O   O17       1.0  0.6972800000000001  0.7987600000000001  0.28870000000000007  1.0000
  O   O18       1.0  0.17138999999999993  0.61558  0.5449  1.0000
  O   O19       1.0  0.43326  0.66652  0.6444  1.0000
  O   O20       1.0  0.27887  0.34634000000000004  0.1614  1.0000
