data_image0
_chemical_formula_structural       Ni3H20C16O10
_chemical_formula_sum              "Ni3 H20 C16 O10"
_cell_length_a       4.43103815
_cell_length_b       11.89566997
_cell_length_c       11.20231299
_cell_angle_alpha    117.37019353
_cell_angle_beta     97.97989230000002
_cell_angle_gamma    92.71269792

_space_group_name_H-M_alt    "P 1"
_space_group_IT_number       1

loop_
  _space_group_symop_operation_xyz
  'x, y, z'

loop_
  _atom_site_type_symbol
  _atom_site_label
  _atom_site_symmetry_multiplicity
  _atom_site_fract_x
  _atom_site_fract_y
  _atom_site_fract_z
  _atom_site_occupancy
  Ni  Ni1       1.0  0.48025187  0.8822514900000001  0.9940566400000002  1.0000
  Ni  Ni2       1.0  0.5194091100000001  0.11771289000000003  0.005889120000000001  1.0000
  Ni  Ni3       1.0  0.99984721  7.553e-05  0.0001973  1.0000
  H   H1        1.0  0.3901873900000001  0.5250489300000001  0.6329174400000002  1.0000
  H   H2        1.0  0.91756515  0.46664146000000006  0.69851681  1.0000
  H   H3        1.0  0.70225575  0.5561448400000001  0.6363304300000001  1.0000
  H   H4        1.0  0.013228260000000044  0.68580726  0.5352867400000001  1.0000
  H   H5        1.0  0.40613077000000003  0.6664662100000001  0.53613987  1.0000
  H   H6        1.0  0.5973305300000001  0.89200247  0.3804655300000001  1.0000
  H   H7        1.0  0.05285816  0.7746083  0.33520145  1.0000
  H   H8        1.0  0.28748302  0.91274391  0.3649149000000001  1.0000
  H   H9        1.0  0.014792170000000009  0.12389314000000005  0.42114478  1.0000
  H   H10       1.0  0.6215546700000001  0.11262426000000011  0.4296675000000001  1.0000
  H   H11       1.0  0.60979124  0.4749155700000001  0.36704677  1.0000
  H   H12       1.0  0.08240049  0.53334966  0.3014683  1.0000
  H   H13       1.0  0.29774647  0.4438391300000001  0.36365027000000005  1.0000
  H   H14       1.0  0.98675109  0.31418039  0.46470295  1.0000
  H   H15       1.0  0.59383295  0.3335270500000001  0.46384713000000005  1.0000
  H   H16       1.0  0.40266727  0.10799476  0.61950651  1.0000
  H   H17       1.0  0.9471711300000001  0.2253926100000001  0.6647825800000002  1.0000
  H   H18       1.0  0.7125260800000001  0.0872654  0.63508859  1.0000
  H   H19       1.0  0.98524425  0.8761102800000002  0.5788558  1.0000
  H   H20       1.0  0.3784484400000001  0.8873814200000002  0.57032055  1.0000
  C   C1        1.0  0.1845254  0.57931397  0.63616307  1.0000
  C   C2        1.0  0.90055022  0.49675585000000005  0.61870542  1.0000
  C   C3        1.0  0.17949922  0.6183929700000002  0.52307141  1.0000
  C   C4        1.0  0.24709842000000018  0.6976177  0.7742157500000001  1.0000
  C   C5        1.0  0.8100325800000001  0.9351186300000002  0.36267949000000005  1.0000
  C   C6        1.0  0.08284051000000003  0.8793614200000002  0.39631385  1.0000
  C   C7        1.0  0.83848471  0.08054172000000004  0.45146003  1.0000
  C   C8        1.0  0.7424402700000002  0.9063615000000002  0.21412744  1.0000
  C   C9        1.0  0.81546581  0.4206522800000001  0.36379225  1.0000
  C   C10       1.0  0.09939025000000004  0.5032369900000001  0.3812785800000001  1.0000
  C   C11       1.0  0.82048047  0.38160127  0.4769274  1.0000
  C   C12       1.0  0.7528905  0.30236437000000005  0.22576764000000002  1.0000
  C   C13       1.0  0.19002357000000003  0.06489568000000004  0.63732798  1.0000
  C   C14       1.0  0.9172116100000001  0.12064090999999998  0.60367844  1.0000
  C   C15       1.0  0.1615303  0.91946199  0.54852675  1.0000
  C   C16       1.0  0.25763156  0.09366984000000006  0.78586008  1.0000
  O   O1        1.0  0.4959588400000002  0.7123144700000001  0.8583057700000001  1.0000
  O   O2        1.0  0.06197752000000002  0.78031077  0.80226524  1.0000
  O   O3        1.0  0.48588015000000007  0.8397459600000002  0.14029613  1.0000
  O   O4        1.0  0.9376241500000001  0.9565234200000002  0.17326088000000003  1.0000
  O   O5        1.0  0.5040542400000001  0.28765502000000004  0.14169286  1.0000
  O   O6        1.0  0.93812057  0.21967018000000008  0.19773688000000006  1.0000
  O   O7        1.0  0.5141873600000001  0.16027935  0.85970846  1.0000
  O   O8        1.0  0.06255425000000008  0.04352952000000005  0.8267810300000001  1.0000
  O   O9        1.0  0.61537299  0.9574283900000002  0.8990468400000001  1.0000
  O   O10       1.0  0.38470101000000007  0.042578890000000015  0.10101235000000001  1.0000
