data_image0
_chemical_formula_structural       GdCSCH2CH2SOSOCH2OCH2OC2H2OCH2COGdCSCH2CH2SOSOCH2OCH2OC2H2OCH2CO
_chemical_formula_sum              "Gd2 C18 S6 H24 O12"
_cell_length_a       9.1742
_cell_length_b       11.1153
_cell_length_c       11.1714
_cell_angle_alpha    77.009
_cell_angle_beta     68.082
_cell_angle_gamma    78.222

_symmetry_space_group_name_H-M    'P 1'
_symmetry_Int_Tables_number       1

loop_
  _symmetry_equiv_pos_as_xyz
  'x,y,z'

loop_
  _atom_site_type_symbol
  _atom_site_label
  _atom_site_symmetry_multiplicity
  _atom_site_fract_x
  _atom_site_fract_y
  _atom_site_fract_z
  _atom_site_occupancy
  Gd  Gd1       1.0  0.7254  0.51598  0.02028  1.0000
  C   C1        1.0  0.006000000000000037  0.6727999999999998  0.8333  1.0000
  S   S1        1.0  0.8478  0.055699999999999986  0.8761100000000002  1.0000
  C   C2        1.0  0.10349999999999997  0.7575  0.7188  1.0000
  H   H1        1.0  0.21460000000000007  0.7306999999999999  0.7076  1.0000
  H   H2        1.0  0.07749999999999989  0.8412  0.7395000000000002  1.0000
  C   C3        1.0  0.11440000000000002  0.5995  0.5532  1.0000
  H   H3        1.0  0.052700000000000004  0.5542999999999999  0.6356  1.0000
  H   H4        1.0  0.07669999999999999  0.5887  0.48650000000000004  1.0000
  S   S2        1.0  0.30642  0.37908  0.50674  1.0000
  O   O1        1.0  0.9122999999999999  0.40509999999999996  0.8377000000000001  1.0000
  S   S3        1.0  0.07666999999999997  0.76291  0.56563  1.0000
  O   O2        1.0  0.7294  0.29850000000000004  0.9842000000000001  1.0000
  C   C4        1.0  0.2867000000000001  0.5413  0.5206  1.0000
  H   H5        1.0  0.3251  0.5477  0.5886  1.0000
  H   H6        1.0  0.3505999999999999  0.5859999999999999  0.4387000000000001  1.0000
  O   O3        1.0  0.5677  0.4319  0.2445  1.0000
  C   C5        1.0  0.2932  0.3973999999999999  0.3474  1.0000
  H   H7        1.0  0.2654000000000002  0.3207  0.3393  1.0000
  H   H8        1.0  0.20680000000000004  0.4626  0.3418  1.0000
  O   O4        1.0  0.8635000000000002  0.6725000000000001  0.8516  1.0000
  C   C6        1.0  0.4389  0.42829999999999996  0.2327  1.0000
  C   C7        1.0  0.9127999999999998  0.0153  0.0182  1.0000
  H   H9        1.0  0.8773000000000001  0.0847  0.0661  1.0000
  H   H10       1.0  0.8634  0.9443  0.0758  1.0000
  O   O5        1.0  0.0751  0.6051999999999998  0.9074000000000001  1.0000
  C   C8        1.0  0.9151  0.2013  0.8031  1.0000
  H   H11       1.0  0.029300000000000017  0.1896  0.7812  1.0000
  H   H12       1.0  0.894  0.22719999999999996  0.7216000000000001  1.0000
  C   C9        1.0  0.8458  0.3073999999999999  0.8819  1.0000
  O   O6        1.0  0.42499999999999993  0.45320000000000005  0.12140000000000001  1.0000
  Gd  Gd2       1.0  0.27459999999999996  0.48401999999999995  0.97972  1.0000
  C   C10       1.0  0.994  0.3272  0.1667  1.0000
  S   S4        1.0  0.15220000000000003  0.9443  0.12389000000000001  1.0000
  C   C11       1.0  0.8964999999999999  0.2425  0.2812  1.0000
  H   H13       1.0  0.7853999999999999  0.2693  0.2924  1.0000
  H   H14       1.0  0.9224999999999998  0.1588  0.2605  1.0000
  C   C12       1.0  0.8855999999999999  0.40049999999999997  0.44680000000000003  1.0000
  H   H15       1.0  0.9473  0.4457  0.3644  1.0000
  H   H16       1.0  0.9233000000000001  0.4113  0.5135000000000001  1.0000
  S   S5        1.0  0.6935800000000001  0.62092  0.49326  1.0000
  O   O7        1.0  0.08770000000000001  0.5949  0.1623  1.0000
  S   S6        1.0  0.92333  0.23708999999999997  0.43437  1.0000
  O   O8        1.0  0.27060000000000006  0.7015  0.015800000000000005  1.0000
  C   C13       1.0  0.7133000000000003  0.4587  0.4794  1.0000
  H   H17       1.0  0.6749  0.4523  0.41140000000000004  1.0000
  H   H18       1.0  0.6493999999999999  0.414  0.5613  1.0000
  O   O9        1.0  0.4322999999999999  0.5681  0.7555  1.0000
  C   C14       1.0  0.7067999999999999  0.6026  0.6526000000000001  1.0000
  H   H19       1.0  0.7346  0.6792999999999999  0.6607  1.0000
  H   H20       1.0  0.7931999999999999  0.5374  0.6582  1.0000
  O   O10       1.0  0.13649999999999998  0.3275  0.1484  1.0000
  C   C15       1.0  0.5610999999999999  0.5716999999999999  0.7673000000000002  1.0000
  C   C16       1.0  0.08719999999999996  0.9847000000000001  0.9818  1.0000
  H   H21       1.0  0.12270000000000002  0.9153  0.9339  1.0000
  H   H22       1.0  0.13659999999999997  0.055699999999999986  0.9242000000000001  1.0000
  O   O11       1.0  0.9248999999999999  0.3948  0.0926  1.0000
  C   C17       1.0  0.08490000000000002  0.7987  0.1969  1.0000
  H   H23       1.0  0.9706999999999999  0.8104  0.21880000000000002  1.0000
  H   H24       1.0  0.10599999999999997  0.7728  0.2784  1.0000
  C   C18       1.0  0.1542  0.6926  0.11810000000000001  1.0000
  O   O12       1.0  0.5749999999999998  0.5468  0.8786  1.0000
