data_image0
_chemical_formula_structural       Cd16H192C248S24N16
_chemical_formula_sum              "Cd16 H192 C248 S24 N16"
_cell_length_a       27.494029
_cell_length_b       26.187607
_cell_length_c       13.40354851
_cell_angle_alpha    90.0
_cell_angle_beta     91.38352959000001
_cell_angle_gamma    90.0

_symmetry_space_group_name_H-M    'P 1'
_symmetry_Int_Tables_number       1

loop_
  _symmetry_equiv_pos_as_xyz
  'x,y,z'

loop_
  _atom_site_type_symbol
  _atom_site_label
  _atom_site_symmetry_multiplicity
  _atom_site_fract_x
  _atom_site_fract_y
  _atom_site_fract_z
  _atom_site_occupancy
  Cd  Cd1       1.0  0.06528278  0.41367505  0.18848968000000002  1.0000
  Cd  Cd2       1.0  0.09175023  0.41199508  0.86838386  1.0000
  Cd  Cd3       1.0  0.5624357  0.9165293500000001  0.18395746  1.0000
  Cd  Cd4       1.0  0.59010384  0.91403239  0.867751  1.0000
  Cd  Cd5       1.0  0.9363533199999999  0.41514375  0.8128607400000001  1.0000
  Cd  Cd6       1.0  0.9093534299999999  0.41249902  0.1315094  1.0000
  Cd  Cd7       1.0  0.43699045  0.91667674  0.81296757  1.0000
  Cd  Cd8       1.0  0.40892432  0.91441065  0.13036375  1.0000
  Cd  Cd9       1.0  0.9359791  0.58476647  0.81387072  1.0000
  Cd  Cd10      1.0  0.9083346299999998  0.58753507  0.13201981  1.0000
  Cd  Cd11      1.0  0.43828171999999993  0.08371754  0.82391135  1.0000
  Cd  Cd12      1.0  0.41046656  0.08817562  0.12921073  1.0000
  Cd  Cd13      1.0  0.0636858  0.58335672  0.18634675  1.0000
  Cd  Cd14      1.0  0.09154874  0.58716876  0.86777185  1.0000
  Cd  Cd15      1.0  0.56186062  0.08461874  0.18389922  1.0000
  Cd  Cd16      1.0  0.5901359899999999  0.08621645  0.86667767  1.0000
  H   H1        1.0  0.133381  0.29606065  0.860713  1.0000
  H   H2        1.0  0.17532854  0.40279735  0.21330266  1.0000
  H   H3        1.0  0.1255301  0.29417375  0.49082525999999993  1.0000
  H   H4        1.0  0.17541095  0.24115729  0.7424178000000001  1.0000
  H   H5        1.0  0.26263324  0.27580465  0.32965399999999995  1.0000
  H   H6        1.0  0.2389488  0.35633644  0.30801578  1.0000
  H   H7        1.0  0.19595826999999993  0.37538082000000006  0.55783009  1.0000
  H   H8        1.0  0.15351978999999996  0.42463964  0.68406931  1.0000
  H   H9        1.0  0.06567011  0.34005919999999995  0.38309451  1.0000
  H   H10       1.0  0.95383146  0.35592943999999993  0.43346826  1.0000
  H   H11       1.0  0.94889937  0.26318665  0.47219142  1.0000
  H   H12       1.0  0.96788607  0.19862694  0.34258999  1.0000
  H   H13       1.0  0.99261806  0.22750707  0.17355209  1.0000
  H   H14       1.0  0.9982176399999999  0.31961596  0.13526936  1.0000
  H   H15       1.0  0.17861773999999997  0.39534279  0.98725976  1.0000
  H   H16       1.0  0.25702224  0.35246862  0.02117907  1.0000
  H   H17       1.0  0.25967751  0.26799219  0.10843059000000001  1.0000
  H   H18       1.0  0.18253544  0.22766958  0.16122961  1.0000
  H   H19       1.0  0.10319131  0.26989681  0.12381511000000002  1.0000
  H   H20       1.0  0.62962567  0.79725473  0.85701082  1.0000
  H   H21       1.0  0.67275338  0.9069479900000001  0.21119999  1.0000
  H   H22       1.0  0.62211892  0.79798379  0.48755785  1.0000
  H   H23       1.0  0.66999672  0.74230097  0.7359495  1.0000
  H   H24       1.0  0.75891117  0.77930341  0.3256628  1.0000
  H   H25       1.0  0.73625137  0.86075803  0.30739273  1.0000
  H   H26       1.0  0.69386419  0.8778731499999999  0.55687299  1.0000
  H   H27       1.0  0.65320648  0.92700808  0.6860243200000001  1.0000
  H   H28       1.0  0.56263278  0.8438668400000001  0.37892858  1.0000
  H   H29       1.0  0.45330868  0.85638116  0.43366156  1.0000
  H   H30       1.0  0.44985478  0.76338281  0.47077823  1.0000
  H   H31       1.0  0.46926461  0.6997595199999999  0.33969285  1.0000
  H   H32       1.0  0.49277404  0.72986795  0.17062439  1.0000
  H   H33       1.0  0.49691788  0.82216984  0.13398143  1.0000
  H   H34       1.0  0.6760933600000001  0.8967171100000001  0.98375643  1.0000
  H   H35       1.0  0.75474953  0.85484238  0.01920209  1.0000
  H   H36       1.0  0.7580139299999998  0.7711942599999999  0.10963176  1.0000
  H   H37       1.0  0.68119513  0.73095879  0.16445222  1.0000
  H   H38       1.0  0.6015391699999999  0.77224276  0.1255941  1.0000
  H   H39       1.0  0.86766857  0.29651678  0.14028999  1.0000
  H   H40       1.0  0.8262895799999997  0.4052389900000001  0.78730269  1.0000
  H   H41       1.0  0.87587009  0.29659278  0.50965644  1.0000
  H   H42       1.0  0.82603387  0.24189809  0.25961571  1.0000
  H   H43       1.0  0.73920136  0.27818007  0.67283481  1.0000
  H   H44       1.0  0.76254474  0.35884951  0.6925656  1.0000
  H   H45       1.0  0.80502358  0.37681225  0.44211855  1.0000
  H   H46       1.0  0.84703304  0.42574842  0.31475545  1.0000
  H   H47       1.0  0.9357891299999997  0.34249424  0.61724633  1.0000
  H   H48       1.0  0.04681482  0.35584404  0.56613454  1.0000
  H   H49       1.0  0.05106306  0.2630588  0.52757704  1.0000
  H   H50       1.0  0.03173758  0.19871182  0.65736596  1.0000
  H   H51       1.0  0.007410209999999997  0.22787774  0.82649383  1.0000
  H   H52       1.0  0.002489000000000001  0.32003531  0.8646283400000001  1.0000
  H   H53       1.0  0.8225694699999998  0.39569481  0.01316281  1.0000
  H   H54       1.0  0.74413676  0.35302586  0.97878327  1.0000
  H   H55       1.0  0.74137556  0.26880198  0.89049772  1.0000
  H   H56       1.0  0.81845287  0.22870778  0.83675063  1.0000
  H   H57       1.0  0.89783973  0.27077223  0.87445604  1.0000
  H   H58       1.0  0.3691187299999999  0.79763436  0.14013147  1.0000
  H   H59       1.0  0.32714365  0.90706937  0.78519274  1.0000
  H   H60       1.0  0.37737995  0.79635672  0.51113452  1.0000
  H   H61       1.0  0.3288715199999999  0.74243357  0.26075212  1.0000
  H   H62       1.0  0.24100309  0.77873999  0.67279219  1.0000
  H   H63       1.0  0.26345434  0.86066539  0.68974664  1.0000
  H   H64       1.0  0.30559239  0.87749179  0.4416183  1.0000
  H   H65       1.0  0.34613134  0.9269324099999999  0.31290828  1.0000
  H   H66       1.0  0.4370907  0.8422911099999999  0.61945718  1.0000
  H   H67       1.0  0.54691205  0.85482891  0.5653133  1.0000
  H   H68       1.0  0.55107947  0.7616477499999998  0.53036894  1.0000
  H   H69       1.0  0.5312297  0.6986586  0.6623891500000001  1.0000
  H   H70       1.0  0.50646333  0.72961631  0.83005594  1.0000
  H   H71       1.0  0.5016465  0.82208654  0.86457104  1.0000
  H   H72       1.0  0.3232904399999999  0.89750318  0.01151418  1.0000
  H   H73       1.0  0.24492974  0.85475074  0.97698445  1.0000
  H   H74       1.0  0.24235032  0.77028006  0.88951964  1.0000
  H   H75       1.0  0.31951898  0.73014266  0.83646476  1.0000
  H   H76       1.0  0.39884889  0.7722728399999998  0.87455893  1.0000
  H   H77       1.0  0.86719334  0.70362138  0.14129612  1.0000
  H   H78       1.0  0.82585566  0.59465788  0.7880872899999999  1.0000
  H   H79       1.0  0.8756123  0.7039561100000001  0.51154798  1.0000
  H   H80       1.0  0.8260965  0.7583986800000001  0.26116479  1.0000
  H   H81       1.0  0.7387004899999998  0.72210566  0.6737668900000001  1.0000
  H   H82       1.0  0.76214507  0.6412510200000001  0.69360737  1.0000
  H   H83       1.0  0.8048480899999999  0.6235157  0.4436146899999999  1.0000
  H   H84       1.0  0.84633374  0.57441777  0.31575202  1.0000
  H   H85       1.0  0.93545742  0.6577919  0.61890416  1.0000
  H   H86       1.0  0.04671594  0.64367189  0.5665781  1.0000
  H   H87       1.0  0.05121308  0.73644245  0.52799274  1.0000
  H   H88       1.0  0.03182336  0.80085795  0.65760853  1.0000
  H   H89       1.0  0.007230339999999999  0.7717841  0.8266102999999999  1.0000
  H   H90       1.0  0.002106260000000001  0.67964138  0.86481463  1.0000
  H   H91       1.0  0.8218675  0.60465065  0.01367232  1.0000
  H   H92       1.0  0.74357604  0.6475653300000002  0.9790491300000002  1.0000
  H   H93       1.0  0.7411121399999999  0.73173522  0.89056241  1.0000
  H   H94       1.0  0.81833484  0.77156092  0.8369432500000001  1.0000
  H   H95       1.0  0.89758412  0.72928254  0.87498703  1.0000
  H   H96       1.0  0.37110335  0.20365371000000002  0.14601516  1.0000
  H   H97       1.0  0.32848917  0.0929759  0.7950924200000001  1.0000
  H   H98       1.0  0.37962048  0.20094423  0.5176984  1.0000
  H   H99       1.0  0.33196922  0.25776311  0.27034042  1.0000
  H   H100      1.0  0.2428404  0.22030661000000004  0.6786119200000001  1.0000
  H   H101      1.0  0.26512057  0.13884077  0.6979014300000002  1.0000
  H   H102      1.0  0.3098066399999999  0.12097572  0.44689091  1.0000
  H   H103      1.0  0.34944053  0.07284525  0.31484995  1.0000
  H   H104      1.0  0.43881199  0.15471152  0.62643342  1.0000
  H   H105      1.0  0.54713146  0.14549774  0.56546014  1.0000
  H   H106      1.0  0.55128958  0.23860022  0.53028428  1.0000
  H   H107      1.0  0.53145486  0.3017412  0.66193682  1.0000
  H   H108      1.0  0.5067359  0.27093602  0.82982015  1.0000
  H   H109      1.0  0.5018649  0.17859612  0.8645802  1.0000
  H   H110      1.0  0.32251204  0.10730112  0.02047695  1.0000
  H   H111      1.0  0.24265612  0.14598409  0.98253524  1.0000
  H   H112      1.0  0.23686009  0.22841826  0.88833985  1.0000
  H   H113      1.0  0.3123403  0.27035631  0.83123976  1.0000
  H   H114      1.0  0.39321156  0.23205838  0.87105905  1.0000
  H   H115      1.0  0.13305347  0.70326902  0.85842528  1.0000
  H   H116      1.0  0.17361453  0.59346196  0.21177155000000003  1.0000
  H   H117      1.0  0.12397040999999998  0.70307752  0.48791135  1.0000
  H   H118      1.0  0.17396069  0.75787104  0.73804312  1.0000
  H   H119      1.0  0.26036796  0.7215503100000001  0.32446208  1.0000
  H   H120      1.0  0.237341  0.64038361  0.3056584  1.0000
  H   H121      1.0  0.19470545  0.62279016  0.55585957  1.0000
  H   H122      1.0  0.15343809  0.57389586  0.6841854  1.0000
  H   H123      1.0  0.06408892  0.65659811  0.38114726000000004  1.0000
  H   H124      1.0  0.9530712599999998  0.6435243  0.43347168  1.0000
  H   H125      1.0  0.94869348  0.7363071700000001  0.47192556  1.0000
  H   H126      1.0  0.9683129299999998  0.80064491  0.34233712999999993  1.0000
  H   H127      1.0  0.9930740099999998  0.77147394  0.17351533  1.0000
  H   H128      1.0  0.99815234  0.67930985  0.13546366  1.0000
  H   H129      1.0  0.17784822  0.60411045  0.98656869  1.0000
  H   H130      1.0  0.25599881  0.64734474  0.0208376  1.0000
  H   H131      1.0  0.25822179  0.73155239  0.10923940000000001  1.0000
  H   H132      1.0  0.18091049  0.77103355  0.16321945  1.0000
  H   H133      1.0  0.10178634  0.72841164  0.12557723  1.0000
  H   H134      1.0  0.62986723  0.2030503  0.85635103  1.0000
  H   H135      1.0  0.6723417  0.09381741  0.21026108  1.0000
  H   H136      1.0  0.6223819999999999  0.20249587  0.48762787  1.0000
  H   H137      1.0  0.6701511  0.25794983  0.7351353  1.0000
  H   H138      1.0  0.7586541  0.22120474  0.32443777000000007  1.0000
  H   H139      1.0  0.73609818  0.13979782  0.3062421  1.0000
  H   H140      1.0  0.69433419  0.12232616000000002  0.55655746  1.0000
  H   H141      1.0  0.6537646799999998  0.0731903  0.68579157  1.0000
  H   H142      1.0  0.56263957  0.1567868  0.37920484  1.0000
  H   H143      1.0  0.45275344  0.14703129  0.43476978  1.0000
  H   H144      1.0  0.44875581  0.24011245  0.47065582  1.0000
  H   H145      1.0  0.46891360999999987  0.30345344  0.33943293  1.0000
  H   H146      1.0  0.49392753  0.27288881  0.17165486  1.0000
  H   H147      1.0  0.49860008  0.18051207  0.13609331  1.0000
  H   H148      1.0  0.67548428  0.1035324  0.98346315  1.0000
  H   H149      1.0  0.75411288  0.14543793  0.01920619  1.0000
  H   H150      1.0  0.7572647199999998  0.22918283999999997  0.10933686  1.0000
  H   H151      1.0  0.6803525799999999  0.26947014  0.1635668  1.0000
  H   H152      1.0  0.60072692  0.22817058000000004  0.1243854  1.0000
  H   H153      1.0  0.15752278  0.49990069  0.051390870000000005  1.0000
  H   H154      1.0  0.23773373  0.50010435  0.13729066  1.0000
  H   H155      1.0  0.22657576  0.4996543  0.76603603  1.0000
  H   H156      1.0  0.3076032199999999  0.49987499  0.8522372100000001  1.0000
  H   H157      1.0  0.31379381  0.50010764  0.03815121  1.0000
  H   H158      1.0  0.03302952  0.49962547  0.35960005000000006  1.0000
  H   H159      1.0  0.038467879999999996  0.49996951  0.54491888  1.0000
  H   H160      1.0  0.11894255  0.49975684  0.63225907  1.0000
  H   H161      1.0  0.19483794  0.49947096  0.5334031  1.0000
  H   H162      1.0  0.18949089  0.49916175000000007  0.34798405  1.0000
  H   H163      1.0  0.65676831  0.99995246  0.05098797000000001  1.0000
  H   H164      1.0  0.73628305  0.99971063  0.1394729  1.0000
  H   H165      1.0  0.72811853  0.00013717  0.76803752  1.0000
  H   H166      1.0  0.80846149  0.9999112600000001  0.85699209  1.0000
  H   H167      1.0  0.81317211  0.99959708  0.043005560000000005  1.0000
  H   H168      1.0  0.53202082  0.0006566  0.35756594  1.0000
  H   H169      1.0  0.53795916  0.00039769  0.54282236  1.0000
  H   H170      1.0  0.6186150299999997  0.0001612  0.6292439600000002  1.0000
  H   H171      1.0  0.6942699  0.00012949  0.52952854  1.0000
  H   H172      1.0  0.68841034  0.00038172  0.34417163  1.0000
  H   H173      1.0  0.84263118  0.49990964  0.94837825  1.0000
  H   H174      1.0  0.76235736  0.50001807  0.86279186  1.0000
  H   H175      1.0  0.77381321  0.49958869000000006  0.23399965000000003  1.0000
  H   H176      1.0  0.69273046  0.4997354  0.14806774  1.0000
  H   H177      1.0  0.68638644  0.49995991  0.96217446  1.0000
  H   H178      1.0  0.9673937099999999  0.49996806000000005  0.64072686  1.0000
  H   H179      1.0  0.9616983  0.50009493  0.45542786  1.0000
  H   H180      1.0  0.8811176599999999  0.50021291  0.36854454999999997  1.0000
  H   H181      1.0  0.8053560899999997  0.50024962  0.46788658  1.0000
  H   H182      1.0  0.81096527  0.50013587  0.65325747  1.0000
  H   H183      1.0  0.34315226  0.00295914  0.9471890700000001  1.0000
  H   H184      1.0  0.26315787  0.00240609  0.86056098  1.0000
  H   H185      1.0  0.2735165  0.00036254000000000006  0.23187713000000001  1.0000
  H   H186      1.0  0.1926739  0.99967809  0.14489036  1.0000
  H   H187      1.0  0.18686931  0.00055182  0.9589666  1.0000
  H   H188      1.0  0.46776873  0.00221954  0.64199336  1.0000
  H   H189      1.0  0.46294968  0.00136192  0.45675535  1.0000
  H   H190      1.0  0.38287451999999994  0.99953856  0.3681997000000001  1.0000
  H   H191      1.0  0.30658925  0.99948284  0.46592067  1.0000
  H   H192      1.0  0.31120970999999986  0.0004988  0.6512536299999999  1.0000
  C   C1        1.0  0.18844919  0.31918542  0.40828334000000005  1.0000
  C   C2        1.0  0.19091798  0.30229948  0.63646093  1.0000
  C   C3        1.0  0.14837986  0.31223519  0.79314667  1.0000
  C   C4        1.0  0.1656525  0.37735001  0.27404942  1.0000
  C   C5        1.0  0.13803249  0.31754934999999995  0.4294653  1.0000
  C   C6        1.0  0.17237114  0.28185863  0.7265956000000001  1.0000
  C   C7        1.0  0.26074565  0.26596688  0.40862083  1.0000
  C   C8        1.0  0.21699154  0.2722778  0.56578918  1.0000
  C   C9        1.0  0.20101277  0.35126542000000005  0.32744373  1.0000
  C   C10       1.0  0.18271149  0.35572806  0.62331688  1.0000
  C   C11       1.0  0.15911389  0.38371317  0.69405548  1.0000
  C   C12       1.0  0.2237748  0.28871011  0.46278112  1.0000
  C   C13       1.0  0.10458581  0.34328109  0.37018501  1.0000
  C   C14       1.0  0.9769953  0.3437721  0.28254944  1.0000
  C   C15       1.0  0.9626793299999999  0.32761289  0.37712004  1.0000
  C   C16       1.0  0.95958998  0.2754926  0.39819492  1.0000
  C   C17       1.0  0.97045587  0.23924511  0.3256698  1.0000
  C   C18       1.0  0.9843319599999998  0.25540638  0.23117279  1.0000
  C   C19       1.0  0.9875693499999998  0.30736025  0.20935164  1.0000
  C   C20       1.0  0.13545902  0.33502203  0.05185434  1.0000
  C   C21       1.0  0.17907096999999994  0.35825156  0.02421869  1.0000
  C   C22       1.0  0.22349225  0.33406471  0.04408935  1.0000
  C   C23       1.0  0.22501216999999998  0.2869871  0.09305989  1.0000
  C   C24       1.0  0.18163301999999998  0.26410778  0.12182761  1.0000
  C   C25       1.0  0.13700209  0.28769198  0.10096735  1.0000
  C   C26       1.0  0.6852774099999998  0.8228676099999999  0.40555799  1.0000
  C   C27       1.0  0.68733002  0.80427076  0.63304248  1.0000
  C   C28       1.0  0.6451897799999999  0.8136918799999999  0.79020155  1.0000
  C   C29       1.0  0.66295216  0.88126419  0.27153536  1.0000
  C   C30       1.0  0.6348372199999999  0.82129402  0.42635813  1.0000
  C   C31       1.0  0.66820686  0.7832973200000001  0.72213781  1.0000
  C   C32       1.0  0.75697806  0.7688278100000001  0.40434182  1.0000
  C   C33       1.0  0.71312565  0.7744345  0.56155638  1.0000
  C   C34       1.0  0.6981926  0.85536156  0.32566845999999994  1.0000
  C   C35       1.0  0.68034879  0.85794799  0.62180701  1.0000
  C   C36       1.0  0.6577048  0.88583455  0.69402307  1.0000
  C   C37       1.0  0.72030105  0.79162294  0.45920285  1.0000
  C   C38       1.0  0.60159791  0.84700474  0.36659757  1.0000
  C   C39       1.0  0.47606158  0.84533826  0.28211446  1.0000
  C   C40       1.0  0.46230388  0.82848533  0.37661939  1.0000
  C   C41       1.0  0.46004051  0.77621206  0.39677063  1.0000
  C   C42       1.0  0.4711411599999999  0.74049023  0.32342877  1.0000
  C   C43       1.0  0.48434853  0.75733499  0.22895408  1.0000
  C   C44       1.0  0.48675409  0.80943428  0.2080542  1.0000
  C   C45       1.0  0.6333329399999998  0.83679719  0.05081547  1.0000
  C   C46       1.0  0.67677815  0.86001317  0.022140609999999998  1.0000
  C   C47       1.0  0.72137704  0.83636642  0.04283124  1.0000
  C   C48       1.0  0.72322714  0.78981229  0.09362106  1.0000
  C   C49       1.0  0.68003408  0.76694284  0.12344033000000001  1.0000
  C   C50       1.0  0.63521311  0.7899949  0.10181421  1.0000
  C   C51       1.0  0.8130398899999998  0.32143379  0.59271258  1.0000
  C   C52       1.0  0.81039361  0.30341829  0.36479816  1.0000
  C   C53       1.0  0.85265826  0.31289112  0.20768207  1.0000
  C   C54       1.0  0.83587507  0.37967122  0.72668053  1.0000
  C   C55       1.0  0.86341147  0.31988472  0.5711302  1.0000
  C   C56       1.0  0.8288876699999997  0.28267114  0.27488091  1.0000
  C   C57       1.0  0.74105448  0.26781655  0.5940905  1.0000
  C   C58       1.0  0.78457799  0.27362856  0.43631232000000003  1.0000
  C   C59       1.0  0.80047887  0.35367356  0.67329172  1.0000
  C   C60       1.0  0.8183083  0.35693827  0.37692423  1.0000
  C   C61       1.0  0.84168352  0.38473587  0.30559188  1.0000
  C   C62       1.0  0.7777641499999999  0.29055291  0.53904755  1.0000
  C   C63       1.0  0.89688301  0.34559297  0.63034352  1.0000
  C   C64       1.0  0.02369435  0.34396905  0.71720766  1.0000
  C   C65       1.0  0.03781748  0.3276452  0.62259997  1.0000
  C   C66       1.0  0.04053408  0.27548766  0.60160716  1.0000
  C   C67       1.0  0.0294809  0.23935869  0.67422829  1.0000
  C   C68       1.0  0.015817420000000002  0.25568081  0.7687721800000001  1.0000
  C   C69       1.0  0.012963159999999998  0.3076704800000001  0.79050801  1.0000
  C   C70       1.0  0.86566299  0.33561413  0.9475994  1.0000
  C   C71       1.0  0.82207932  0.35874696  0.97567437  1.0000
  C   C72       1.0  0.7776332499999998  0.33465039  0.9555988800000002  1.0000
  C   C73       1.0  0.7760592599999999  0.28773868  0.90603859  1.0000
  C   C74       1.0  0.81941052  0.26497974  0.87673096  1.0000
  C   C75       1.0  0.86406506  0.28848923  0.8977296300000001  1.0000
  C   C76       1.0  0.31435669  0.82220302  0.59231202  1.0000
  C   C77       1.0  0.31185189999999996  0.80404123  0.36477043  1.0000
  C   C78       1.0  0.35374915  0.8139116699999999  0.20730124  1.0000
  C   C79       1.0  0.33683889  0.88097729  0.7254737  1.0000
  C   C80       1.0  0.3647992  0.82010667  0.57185852  1.0000
  C   C81       1.0  0.3307744  0.78336294  0.27519515  1.0000
  C   C82       1.0  0.24269924  0.7682446299999999  0.59410547  1.0000
  C   C83       1.0  0.28615418  0.77404768  0.43625731  1.0000
  C   C84       1.0  0.30151095  0.85500983  0.67172313  1.0000
  C   C85       1.0  0.3189631  0.85770504  0.37640526  1.0000
  C   C86       1.0  0.34154813  0.88578476  0.30437604  1.0000
  C   C87       1.0  0.27918147  0.79106766  0.53878586  1.0000
  C   C88       1.0  0.39812706  0.84584217  0.6314011799999999  1.0000
  C   C89       1.0  0.52340414  0.8445405700000002  0.71653524  1.0000
  C   C90       1.0  0.5377091  0.8272041400000001  0.62272738  1.0000
  C   C91       1.0  0.54032969  0.77481995  0.6038149399999999  1.0000
  C   C92       1.0  0.52900638  0.73946979  0.6776814  1.0000
  C   C93       1.0  0.51510508  0.75679769  0.77136332  1.0000
  C   C94       1.0  0.51233391  0.80901058  0.79104562  1.0000
  C   C95       1.0  0.36651936  0.83720071  0.9470545  1.0000
  C   C96       1.0  0.322872  0.86042589  0.97448717  1.0000
  C   C97       1.0  0.27846677  0.83629299  0.95425239  1.0000
  C   C98       1.0  0.27699662  0.78927485  0.90508375  1.0000
  C   C99       1.0  0.32039582  0.76647196  0.87624732  1.0000
  C   C100      1.0  0.36501612  0.79000313  0.89746303  1.0000
  C   C101      1.0  0.81271638  0.67885203  0.59413224  1.0000
  C   C102      1.0  0.8102735399999998  0.69688982  0.36622244  1.0000
  C   C103      1.0  0.85221974  0.6872931600000001  0.20876295  1.0000
  C   C104      1.0  0.83547979  0.62035467  0.72770029  1.0000
  C   C105      1.0  0.8631135899999999  0.68049379  0.57277912  1.0000
  C   C106      1.0  0.82876196  0.71759966  0.27625929  1.0000
  C   C107      1.0  0.74069509  0.73246769  0.59502851  1.0000
  C   C108      1.0  0.78449115  0.72674248  0.43765728  1.0000
  C   C109      1.0  0.80009864  0.64647355  0.6744633800000001  1.0000
  C   C110      1.0  0.81805391  0.64334028  0.37829711  1.0000
  C   C111      1.0  0.8411271599999999  0.6154543  0.30666945000000007  1.0000
  C   C112      1.0  0.77750909  0.7097616200000001  0.54031711  1.0000
  C   C113      1.0  0.8965453099999999  0.65465146  0.6318704000000002  1.0000
  C   C114      1.0  0.02342652  0.65563916  0.71749895  1.0000
  C   C115      1.0  0.03770265  0.67190836  0.62296497  1.0000
  C   C116      1.0  0.040555749999999995  0.7240535199999999  0.60196053  1.0000
  C   C117      1.0  0.02947578  0.7602214700000001  0.67449338  1.0000
  C   C118      1.0  0.01566795  0.74394862  0.76897199  1.0000
  C   C119      1.0  0.012688929999999998  0.69196728  0.7907373800000002  1.0000
  C   C120      1.0  0.86517957  0.66457608  0.9481414  1.0000
  C   C121      1.0  0.8215084499999997  0.64159519  0.97615554  1.0000
  C   C122      1.0  0.7771430199999999  0.66582361  0.95593464  1.0000
  C   C123      1.0  0.77573384  0.71270773  0.90625553  1.0000
  C   C124      1.0  0.81916627  0.73531418  0.87701328  1.0000
  C   C125      1.0  0.8637426  0.71168367  0.89819654  1.0000
  C   C126      1.0  0.31632285  0.17622788  0.59939161  1.0000
  C   C127      1.0  0.3148584799999999  0.19496943  0.37141971  1.0000
  C   C128      1.0  0.35590966  0.18677172999999997  0.21279917000000004  1.0000
  C   C129      1.0  0.33829541  0.11833606999999999  0.73421735  1.0000
  C   C130      1.0  0.36674718  0.17771478  0.57885617  1.0000
  C   C131      1.0  0.33359295  0.21665649000000003  0.28261683  1.0000
  C   C132      1.0  0.24472958999999997  0.23047392  0.59982106  1.0000
  C   C133      1.0  0.28867294  0.22443754999999999  0.44294269  1.0000
  C   C134      1.0  0.3031624599999999  0.14402769  0.67949043  1.0000
  C   C135      1.0  0.32242072  0.14133089  0.3816792  1.0000
  C   C136      1.0  0.34447302999999996  0.11399433  0.30782402  1.0000
  C   C137      1.0  0.28142883  0.20749204  0.5453353  1.0000
  C   C138      1.0  0.39982975  0.15195749  0.6388304800000001  1.0000
  C   C139      1.0  0.52355257  0.15590652  0.71680207  1.0000
  C   C140      1.0  0.53795114  0.1731052  0.62290839  1.0000
  C   C141      1.0  0.5405983  0.22546819  0.60376376  1.0000
  C   C142      1.0  0.52927451  0.26094659  0.67740961  1.0000
  C   C143      1.0  0.51542314  0.24374892  0.77119743  1.0000
  C   C144      1.0  0.51260237  0.19158022  0.79106569  1.0000
  C   C145      1.0  0.36349830999999994  0.16732582  0.9493222200000001  1.0000
  C   C146      1.0  0.32072707  0.14331035  0.97974099  1.0000
  C   C147      1.0  0.27545795  0.16526486  0.95797008  1.0000
  C   C148      1.0  0.2721848099999999  0.21107532  0.90489599  1.0000
  C   C149      1.0  0.31469201  0.23492453999999996  0.87389503  1.0000
  C   C150      1.0  0.36018533  0.21349387000000003  0.8962066  1.0000
  C   C151      1.0  0.18679666  0.67804925  0.40508367  1.0000
  C   C152      1.0  0.18951755  0.69629267  0.6329379  1.0000
  C   C153      1.0  0.14786555999999998  0.68685932  0.79085395  1.0000
  C   C154      1.0  0.16404199  0.61926269  0.27204204  1.0000
  C   C155      1.0  0.13644121  0.67958745  0.42673563  1.0000
  C   C156      1.0  0.17123653  0.7170707  0.72304936  1.0000
  C   C157      1.0  0.25858642  0.7319827399999999  0.40318846  1.0000
  C   C158      1.0  0.21515354  0.72610328  0.56118095  1.0000
  C   C159      1.0  0.19941115  0.64556401  0.32493683000000007  1.0000
  C   C160      1.0  0.18166322  0.64273417  0.62116999  1.0000
  C   C161      1.0  0.15869251  0.61493715  0.69307117  1.0000
  C   C162      1.0  0.22200917  0.70916007  0.45846749  1.0000
  C   C163      1.0  0.10299675  0.65356419  0.3680096  1.0000
  C   C164      1.0  0.9765951599999998  0.65537839  0.28267219  1.0000
  C   C165      1.0  0.9622259799999998  0.67171591  0.37710486  1.0000
  C   C166      1.0  0.95942824  0.72387329  0.39803648  1.0000
  C   C167      1.0  0.9706360199999999  0.7599988  0.32551189  1.0000
  C   C168      1.0  0.98455068  0.74366341  0.23114629  1.0000
  C   C169      1.0  0.98749647  0.69166917  0.2094657  1.0000
  C   C170      1.0  0.13436359  0.6638438800000002  0.05225813  1.0000
  C   C171      1.0  0.17809605  0.64105586  0.02407303  1.0000
  C   C172      1.0  0.22238864999999994  0.66546314  0.04409676  1.0000
  C   C173      1.0  0.22366121  0.71236627  0.09371881  1.0000
  C   C174      1.0  0.18017314  0.7347800600000001  0.12316406  1.0000
  C   C175      1.0  0.13566537  0.71095305  0.10221314  1.0000
  C   C176      1.0  0.68530848  0.17757097999999996  0.40498295000000006  1.0000
  C   C177      1.0  0.687707  0.1959691  0.63247775  1.0000
  C   C178      1.0  0.64551232  0.1865758  0.78963365  1.0000
  C   C179      1.0  0.66271606  0.11942298  0.27081708  1.0000
  C   C180      1.0  0.63492662  0.17919804000000003  0.42622659  1.0000
  C   C181      1.0  0.66850821  0.21694580999999996  0.7214803500000001  1.0000
  C   C182      1.0  0.75695497  0.231604  0.40317335000000004  1.0000
  C   C183      1.0  0.7134683  0.22582817  0.5608751  1.0000
  C   C184      1.0  0.69807886  0.14518013  0.3248409199999999  1.0000
  C   C185      1.0  0.68082348  0.14227017  0.62145742  1.0000
  C   C186      1.0  0.65819029  0.11438577999999999  0.69369991  1.0000
  C   C187      1.0  0.7204573699999998  0.20873618  0.45842109  1.0000
  C   C188      1.0  0.60156568  0.15362303999999996  0.3665283  1.0000
  C   C189      1.0  0.47652244  0.15764698  0.28370378  1.0000
  C   C190      1.0  0.4621422299999999  0.17476507  0.37767209  1.0000
  C   C191      1.0  0.4595961599999999  0.22710325  0.3971355  1.0000
  C   C192      1.0  0.47106893  0.26265073  0.32371687  1.0000
  C   C193      1.0  0.48512836  0.24556269  0.22995801  1.0000
  C   C194      1.0  0.4878186  0.19339213  0.2097007  1.0000
  C   C195      1.0  0.63265144  0.16352694  0.05002357  1.0000
  C   C196      1.0  0.6761476999999998  0.1402803  0.02172688  1.0000
  C   C197      1.0  0.72070694  0.1639781  0.0425212  1.0000
  C   C198      1.0  0.72247585  0.21059544  0.09311501  1.0000
  C   C199      1.0  0.67921599  0.23346783  0.12264127  1.0000
  C   C200      1.0  0.6344348199999998  0.21038187  0.10085429  1.0000
  C   C201      1.0  0.18671722  0.49977543  0.90300883  1.0000
  C   C202      1.0  0.19032252  0.49990762  0.00746511  1.0000
  C   C203      1.0  0.23579987  0.50002632  0.05585328  1.0000
  C   C204      1.0  0.22927695999999997  0.49976879  0.84730153  1.0000
  C   C205      1.0  0.27472198  0.49989351  0.89617456  1.0000
  C   C206      1.0  0.27821102  0.50001997  0.00041877  1.0000
  C   C207      1.0  0.1109742  0.49930535  0.3420265  1.0000
  C   C208      1.0  0.06847094  0.49957444  0.39780011  1.0000
  C   C209      1.0  0.07154261  0.49976  0.50174662  1.0000
  C   C210      1.0  0.11688835999999997  0.49967385999999997  0.55092262  1.0000
  C   C211      1.0  0.15924045  0.49947528  0.49554735  1.0000
  C   C212      1.0  0.15647855  0.49929561  0.39135468999999995  1.0000
  C   C213      1.0  0.6871483  6.35e-06  0.9036274500000001  1.0000
  C   C214      1.0  0.68992208  0.99993004  0.0081491  1.0000
  C   C215      1.0  0.73501758  0.99979389  0.05803331  1.0000
  C   C216      1.0  0.73016816  3.649e-05  0.84936183  1.0000
  C   C217      1.0  0.77522381  0.99989751  0.8998131900000002  1.0000
  C   C218      1.0  0.77788094  0.99973639  0.004102  1.0000
  C   C219      1.0  0.60989559  0.00057024  0.33906002  1.0000
  C   C220      1.0  0.56755965  0.00054923  0.39532926  1.0000
  C   C221      1.0  0.57090515  0.00039883  0.49924677000000006  1.0000
  C   C222      1.0  0.61636563  0.00028098  0.54793315  1.0000
  C   C223      1.0  0.65856052  0.00023307  0.49209266999999995  1.0000
  C   C224      1.0  0.65551367  0.00038222  0.38791339999999996  1.0000
  C   C225      1.0  0.81356821  0.49975346  0.09689373  1.0000
  C   C226      1.0  0.80987726  0.49986615  0.9924466500000001  1.0000
  C   C227      1.0  0.76436129  0.49992993  0.94422031  1.0000
  C   C228      1.0  0.77105337  0.49968245  0.15274107  1.0000
  C   C229      1.0  0.7255704099999999  0.49976641  0.10401442  1.0000
  C   C230      1.0  0.7219961999999999  0.49989571  0.99978833  1.0000
  C   C231      1.0  0.8894861399999999  0.5000412  0.65877236  1.0000
  C   C232      1.0  0.93190314  0.50002671  0.60273881  1.0000
  C   C233      1.0  0.92868729  0.50009507  0.49879654  1.0000
  C   C234      1.0  0.8832745099999999  0.50017561  0.4498765  1.0000
  C   C235      1.0  0.84100603  0.50019247  0.50551493  1.0000
  C   C236      1.0  0.8439180599999998  0.50012779  0.60970509  1.0000
  C   C237      1.0  0.31364177  0.0015812200000000002  0.09524448  1.0000
  C   C238      1.0  0.31024617  0.00228441  0.9907826700000001  1.0000
  C   C239      1.0  0.26488849  0.00191808  0.94197682  1.0000
  C   C240      1.0  0.27096595  0.0007477900000000001  0.15058977  1.0000
  C   C241      1.0  0.22563443999999996  0.00041465  0.10123671  1.0000
  C   C242      1.0  0.22236825  0.0009275  0.9970020699999999  1.0000
  C   C243      1.0  0.38979989  0.00115475  0.65864103  1.0000
  C   C244      1.0  0.4324530099999999  0.00160541  0.60338125  1.0000
  C   C245      1.0  0.42973137  0.0011113  0.49942325  1.0000
  C   C246      1.0  0.38459226  0.00015955  0.44954436  1.0000
  C   C247      1.0  0.34205798999999987  0.00011418  0.50432164  1.0000
  C   C248      1.0  0.3444477  0.0006588300000000001  0.60856506  1.0000
  S   S1        1.0  0.98094829  0.41085154  0.25876397  1.0000
  S   S2        1.0  0.07730777  0.36324223  0.02664769  1.0000
  S   S3        1.0  0.47943631  0.91257833  0.2597842  1.0000
  S   S4        1.0  0.5750156  0.86445437  0.02449167  1.0000
  S   S5        1.0  0.02027985  0.41109794  0.74090617  1.0000
  S   S6        1.0  0.9238418199999998  0.36366318  0.97334974  1.0000
  S   S7        1.0  0.52002197  0.91192318  0.73755998  1.0000
  S   S8        1.0  0.42461434  0.86524357  0.97344493  1.0000
  S   S9        1.0  0.01977287  0.58852459  0.74110126  1.0000
  S   S10       1.0  0.9232662399999998  0.63636352  0.97410214  1.0000
  S   S11       1.0  0.51956967  0.08863102  0.73828845  1.0000
  S   S12       1.0  0.42264878  0.14156127  0.9759385900000002  1.0000
  S   S13       1.0  0.97994767  0.58822589  0.25912617  1.0000
  S   S14       1.0  0.07640264  0.63533268  0.02636614  1.0000
  S   S15       1.0  0.4796885499999999  0.09033001  0.26202393  1.0000
  S   S16       1.0  0.57444939  0.13571749  0.023390539999999998  1.0000
  S   S17       1.0  0.12928  0.49960381  0.8390901800000001  1.0000
  S   S18       1.0  0.10865582999999997  0.49896918  0.20866846  1.0000
  S   S19       1.0  0.63021452  5.322e-05  0.83768611  1.0000
  S   S20       1.0  0.60723423  0.00068044  0.20572103999999997  1.0000
  S   S21       1.0  0.8710564099999998  0.49982212000000004  0.16066214  1.0000
  S   S22       1.0  0.89198766  0.49987690000000007  0.7921226200000001  1.0000
  S   S23       1.0  0.37100912  0.00151951  0.15954542  1.0000
  S   S24       1.0  0.39177336  0.00039745  0.79200667  1.0000
  N   N1        1.0  0.11737901  0.37323976  0.29241703  1.0000
  N   N2        1.0  0.14132907  0.3632503000000001  0.77904647  1.0000
  N   N3        1.0  0.61466015  0.87679502  0.28889532  1.0000
  N   N4        1.0  0.6396927  0.86500432  0.77837022  1.0000
  N   N5        1.0  0.88412437  0.375415  0.70829109  1.0000
  N   N6        1.0  0.85949181  0.36398358  0.22093172  1.0000
  N   N7        1.0  0.38511523  0.87614858  0.70838555  1.0000
  N   N8        1.0  0.35941873  0.86518918  0.21965026  1.0000
  N   N9        1.0  0.88374006  0.62461408  0.70946146  1.0000
  N   N10       1.0  0.85880727  0.6361419199999999  0.22181412000000003  1.0000
  N   N11       1.0  0.38650059999999997  0.1225715  0.71664703  1.0000
  N   N12       1.0  0.36130070999999997  0.13539104  0.22301556  1.0000
  N   N13       1.0  0.11581492  0.62346221  0.29054725  1.0000
  N   N14       1.0  0.14119012  0.63571143  0.7780050400000001  1.0000
  N   N15       1.0  0.61447662  0.12396451  0.28853802  1.0000
  N   N16       1.0  0.64009324  0.13524946  0.777929  1.0000
