data_image0
_chemical_formula_structural       La4Cu14H56C84I12N14O28
_chemical_formula_sum              "La4 Cu14 H56 C84 I12 N14 O28"
_cell_length_a       7.0614
_cell_length_b       18.208000000000002
_cell_length_c       24.729
_cell_angle_alpha    90.0
_cell_angle_beta     90.0
_cell_angle_gamma    100.31999999999998

_space_group_name_H-M_alt    "P 1"
_space_group_IT_number       1

loop_
  _space_group_symop_operation_xyz
  'x, y, z'

loop_
  _atom_site_type_symbol
  _atom_site_label
  _atom_site_symmetry_multiplicity
  _atom_site_fract_x
  _atom_site_fract_y
  _atom_site_fract_z
  _atom_site_occupancy
  La  La1       1.0  0.22470999999999994  0.01602  0.39972  1.0000
  La  La2       1.0  0.7752899999999999  0.98398  0.89972  1.0000
  La  La3       1.0  0.7752899999999999  0.98398  0.60028  1.0000
  La  La4       1.0  0.22470999999999994  0.01602  0.10028000000000001  1.0000
  Cu  Cu1       1.0  0.75  0.44599  0.3157  1.0000
  Cu  Cu2       1.0  0.37881  0.5432  0.49274  1.0000
  Cu  Cu3       1.0  0.82827  0.56012  0.41965  1.0000
  Cu  Cu4       1.0  0.25  0.55401  0.8157  1.0000
  Cu  Cu5       1.0  0.62119  0.4568  0.99274  1.0000
  Cu  Cu6       1.0  0.17172999999999997  0.43988  0.9196500000000001  1.0000
  Cu  Cu7       1.0  0.25  0.55401  0.6843  1.0000
  Cu  Cu8       1.0  0.62119  0.4568  0.50726  1.0000
  Cu  Cu9       1.0  0.17172999999999997  0.43988  0.58035  1.0000
  Cu  Cu10      1.0  0.75  0.44599  0.1843  1.0000
  Cu  Cu11      1.0  0.37881  0.5432  0.00726  1.0000
  Cu  Cu12      1.0  0.82827  0.56012  0.08035  1.0000
  Cu  Cu13      1.0  0.77156  0.56414  0.25  1.0000
  Cu  Cu14      1.0  0.22844000000000003  0.43586  0.75  1.0000
  H   H1        1.0  0.2228  0.2867  0.3619  1.0000
  H   H2        1.0  0.1037  0.3953  0.3489  1.0000
  H   H3        1.0  0.5928999999999999  0.2814  0.319  1.0000
  H   H4        1.0  0.6958  0.1708  0.3349  1.0000
  H   H5        1.0  0.3959999999999999  0.7617  0.37209999999999993  1.0000
  H   H6        1.0  0.42169999999999996  0.6419  0.3958  1.0000
  H   H7        1.0  0.3215  0.6814  0.5474  1.0000
  H   H8        1.0  0.29980000000000007  0.8021000000000001  0.5281  1.0000
  H   H9        1.0  0.9040000000000001  0.8305000000000001  0.37870000000000004  1.0000
  H   H10       1.0  0.8928  0.7064  0.36250000000000004  1.0000
  H   H11       1.0  0.809  0.6585  0.5155  1.0000
  H   H12       1.0  0.8080999999999998  0.7812  0.5355  1.0000
  H   H13       1.0  0.7772  0.7133  0.8619  1.0000
  H   H14       1.0  0.8963  0.6047  0.8489000000000001  1.0000
  H   H15       1.0  0.4071000000000001  0.7186  0.819  1.0000
  H   H16       1.0  0.30419999999999997  0.8292  0.8349  1.0000
  H   H17       1.0  0.604  0.2383  0.8721  1.0000
  H   H18       1.0  0.5783  0.3581  0.8958  1.0000
  H   H19       1.0  0.6785  0.3186  0.0474  1.0000
  H   H20       1.0  0.7002  0.1979  0.028100000000000003  1.0000
  H   H21       1.0  0.096  0.1695  0.8787  1.0000
  H   H22       1.0  0.1072  0.2936  0.8625  1.0000
  H   H23       1.0  0.191  0.3415  0.015499999999999998  1.0000
  H   H24       1.0  0.1919  0.21880000000000002  0.0355  1.0000
  H   H25       1.0  0.7772  0.7133  0.6381  1.0000
  H   H26       1.0  0.8963  0.6047  0.6510999999999999  1.0000
  H   H27       1.0  0.4071000000000001  0.7186  0.681  1.0000
  H   H28       1.0  0.30419999999999997  0.8292  0.6651  1.0000
  H   H29       1.0  0.604  0.2383  0.6279  1.0000
  H   H30       1.0  0.5783  0.3581  0.6042  1.0000
  H   H31       1.0  0.6785  0.3186  0.45259999999999995  1.0000
  H   H32       1.0  0.7002  0.1979  0.4719  1.0000
  H   H33       1.0  0.096  0.1695  0.6213  1.0000
  H   H34       1.0  0.1072  0.2936  0.6375  1.0000
  H   H35       1.0  0.191  0.3415  0.4845  1.0000
  H   H36       1.0  0.1919  0.21880000000000002  0.4645  1.0000
  H   H37       1.0  0.2228  0.2867  0.1381  1.0000
  H   H38       1.0  0.1037  0.3953  0.1511  1.0000
  H   H39       1.0  0.5928999999999999  0.2814  0.181  1.0000
  H   H40       1.0  0.6958  0.1708  0.1651  1.0000
  H   H41       1.0  0.3959999999999999  0.7617  0.1279  1.0000
  H   H42       1.0  0.42169999999999996  0.6419  0.1042  1.0000
  H   H43       1.0  0.3215  0.6814  0.9526  1.0000
  H   H44       1.0  0.29980000000000007  0.8021000000000001  0.9718999999999999  1.0000
  H   H45       1.0  0.9040000000000001  0.8305000000000001  0.1213  1.0000
  H   H46       1.0  0.8928  0.7064  0.1375  1.0000
  H   H47       1.0  0.809  0.6585  0.9845  1.0000
  H   H48       1.0  0.8080999999999998  0.7812  0.9645  1.0000
  H   H49       1.0  0.23380000000000006  0.7059000000000001  0.25  1.0000
  H   H50       1.0  0.3834  0.6041  0.25  1.0000
  H   H51       1.0  0.8863  0.7324  0.25  1.0000
  H   H52       1.0  0.7493  0.8375  0.25  1.0000
  H   H53       1.0  0.7661999999999999  0.2941  0.75  1.0000
  H   H54       1.0  0.6165999999999999  0.3959  0.75  1.0000
  H   H55       1.0  0.1137  0.2676  0.75  1.0000
  H   H56       1.0  0.2507  0.1625  0.75  1.0000
  C   C1        1.0  0.0501  0.1454  0.35919999999999996  1.0000
  C   C2        1.0  0.9727  0.2163  0.3497  1.0000
  C   C3        1.0  0.0933  0.2844  0.3536  1.0000
  C   C4        1.0  0.021  0.3497  0.3453  1.0000
  C   C5        1.0  0.7211  0.2828  0.3283  1.0000
  C   C6        1.0  0.7822  0.2157  0.33719999999999994  1.0000
  C   C7        1.0  0.3289  0.8743  0.4322  1.0000
  C   C8        1.0  0.3473  0.7958  0.4475  1.0000
  C   C9        1.0  0.38219999999999993  0.7466  0.408  1.0000
  C   C10       1.0  0.39639999999999986  0.6747  0.4226  1.0000
  C   C11       1.0  0.3382999999999999  0.698  0.5119  1.0000
  C   C12       1.0  0.32439999999999997  0.7702  0.5006  1.0000
  C   C13       1.0  0.8541  0.9021  0.4721  1.0000
  C   C14       1.0  0.854  0.8203  0.4595000000000001  1.0000
  C   C15       1.0  0.8820999999999998  0.7963  0.40700000000000003  1.0000
  C   C16       1.0  0.8771999999999999  0.722  0.3978  1.0000
  C   C17       1.0  0.8265999999999998  0.6935  0.4877  1.0000
  C   C18       1.0  0.8265999999999998  0.7672  0.5  1.0000
  C   C19       1.0  0.9499  0.8546  0.8592  1.0000
  C   C20       1.0  0.02730000000000004  0.7837  0.8497  1.0000
  C   C21       1.0  0.9067  0.7156  0.8536000000000001  1.0000
  C   C22       1.0  0.9789999999999999  0.6503  0.8453  1.0000
  C   C23       1.0  0.2789  0.7172  0.8283  1.0000
  C   C24       1.0  0.21779999999999997  0.7843000000000001  0.8372000000000002  1.0000
  C   C25       1.0  0.6711  0.1257  0.9322000000000001  1.0000
  C   C26       1.0  0.6527  0.2042  0.9475  1.0000
  C   C27       1.0  0.6178  0.2534  0.9080000000000001  1.0000
  C   C28       1.0  0.6036  0.32530000000000003  0.9226  1.0000
  C   C29       1.0  0.6616999999999998  0.30200000000000005  0.0119  1.0000
  C   C30       1.0  0.6756  0.2298  0.0006  1.0000
  C   C31       1.0  0.1459  0.0979  0.9721  1.0000
  C   C32       1.0  0.146  0.1797  0.9595  1.0000
  C   C33       1.0  0.11789999999999998  0.2037  0.907  1.0000
  C   C34       1.0  0.1228  0.278  0.8978  1.0000
  C   C35       1.0  0.1734  0.3065  0.9877  1.0000
  C   C36       1.0  0.1734  0.2328  0.0  1.0000
  C   C37       1.0  0.9499  0.8546  0.6408  1.0000
  C   C38       1.0  0.02730000000000004  0.7837  0.6503  1.0000
  C   C39       1.0  0.9067  0.7156  0.6464  1.0000
  C   C40       1.0  0.9789999999999999  0.6503  0.6547  1.0000
  C   C41       1.0  0.2789  0.7172  0.6717  1.0000
  C   C42       1.0  0.21779999999999997  0.7843000000000001  0.6627999999999998  1.0000
  C   C43       1.0  0.6711  0.1257  0.5678  1.0000
  C   C44       1.0  0.6527  0.2042  0.5525  1.0000
  C   C45       1.0  0.6178  0.2534  0.592  1.0000
  C   C46       1.0  0.6036  0.32530000000000003  0.5774  1.0000
  C   C47       1.0  0.6616999999999998  0.30200000000000005  0.4881  1.0000
  C   C48       1.0  0.6756  0.2298  0.4994  1.0000
  C   C49       1.0  0.1459  0.0979  0.5279  1.0000
  C   C50       1.0  0.146  0.1797  0.5405  1.0000
  C   C51       1.0  0.11789999999999998  0.2037  0.593  1.0000
  C   C52       1.0  0.1228  0.278  0.6022  1.0000
  C   C53       1.0  0.1734  0.3065  0.5123  1.0000
  C   C54       1.0  0.1734  0.2328  0.5  1.0000
  C   C55       1.0  0.0501  0.1454  0.1408  1.0000
  C   C56       1.0  0.9727  0.2163  0.1503  1.0000
  C   C57       1.0  0.0933  0.2844  0.1464  1.0000
  C   C58       1.0  0.021  0.3497  0.1547  1.0000
  C   C59       1.0  0.7211  0.2828  0.1717  1.0000
  C   C60       1.0  0.7822  0.2157  0.1628  1.0000
  C   C61       1.0  0.3289  0.8743  0.0678  1.0000
  C   C62       1.0  0.3473  0.7958  0.0525  1.0000
  C   C63       1.0  0.38219999999999993  0.7466  0.09200000000000001  1.0000
  C   C64       1.0  0.39639999999999986  0.6747  0.0774  1.0000
  C   C65       1.0  0.3382999999999999  0.698  0.9881  1.0000
  C   C66       1.0  0.32439999999999997  0.7702  0.9994  1.0000
  C   C67       1.0  0.8541  0.9021  0.0279  1.0000
  C   C68       1.0  0.854  0.8203  0.0405  1.0000
  C   C69       1.0  0.8820999999999998  0.7963  0.093  1.0000
  C   C70       1.0  0.8771999999999999  0.722  0.1022  1.0000
  C   C71       1.0  0.8265999999999998  0.6935  0.0123  1.0000
  C   C72       1.0  0.8265999999999998  0.7672  0.0  1.0000
  C   C73       1.0  0.3736  0.8511  0.25  1.0000
  C   C74       1.0  0.4741999999999999  0.784  0.25  1.0000
  C   C75       1.0  0.3675  0.7128  0.25  1.0000
  C   C76       1.0  0.4584999999999999  0.6516  0.25  1.0000
  C   C77       1.0  0.7527  0.7266  0.25  1.0000
  C   C78       1.0  0.6712  0.7906  0.25  1.0000
  C   C79       1.0  0.6264  0.1489  0.75  1.0000
  C   C80       1.0  0.5258  0.216  0.75  1.0000
  C   C81       1.0  0.6325  0.2872  0.75  1.0000
  C   C82       1.0  0.5415  0.34840000000000004  0.75  1.0000
  C   C83       1.0  0.24730000000000002  0.27340000000000003  0.75  1.0000
  C   C84       1.0  0.3288  0.2094  0.75  1.0000
  I   I1        1.0  0.022950000000000005  0.55701  0.32989  1.0000
  I   I2        1.0  0.4894599999999999  0.4710599999999999  0.41005  1.0000
  I   I3        1.0  0.97705  0.44299  0.8298900000000001  1.0000
  I   I4        1.0  0.51054  0.52894  0.91005  1.0000
  I   I5        1.0  0.97705  0.44299  0.6701099999999999  1.0000
  I   I6        1.0  0.51054  0.52894  0.58995  1.0000
  I   I7        1.0  0.022950000000000005  0.55701  0.17011  1.0000
  I   I8        1.0  0.4894599999999999  0.4710599999999999  0.08995  1.0000
  I   I9        1.0  0.46955999999999987  0.44039  0.25  1.0000
  I   I10       1.0  0.53044  0.55961  0.75  1.0000
  I   I11       1.0  0.0  0.5  0.5  1.0000
  I   I12       1.0  0.0  0.5  0.0  1.0000
  N   N1        1.0  0.8356  0.3494  0.33213  1.0000
  N   N2        1.0  0.3750999999999999  0.6501  0.4738  1.0000
  N   N3        1.0  0.851  0.6702  0.4371900000000001  1.0000
  N   N4        1.0  0.1644000000000001  0.6506000000000001  0.83213  1.0000
  N   N5        1.0  0.6249  0.3499  0.9738  1.0000
  N   N6        1.0  0.149  0.3298  0.9371899999999999  1.0000
  N   N7        1.0  0.1644000000000001  0.6506000000000001  0.66787  1.0000
  N   N8        1.0  0.6249  0.3499  0.5262  1.0000
  N   N9        1.0  0.149  0.3298  0.56281  1.0000
  N   N10       1.0  0.8356  0.3494  0.16787  1.0000
  N   N11       1.0  0.3750999999999999  0.6501  0.0262  1.0000
  N   N12       1.0  0.851  0.6702  0.06281  1.0000
  N   N13       1.0  0.6519999999999999  0.658  0.25  1.0000
  N   N14       1.0  0.348  0.342  0.75  1.0000
  O   O1        1.0  0.2309  0.1496  0.36067  1.0000
  O   O2        1.0  0.9361  0.0848  0.36576  1.0000
  O   O3        1.0  0.3386  0.892  0.38383  1.0000
  O   O4        1.0  0.29709999999999986  0.9189  0.46923  1.0000
  O   O5        1.0  0.9164  0.949  0.43638  1.0000
  O   O6        1.0  0.787  0.9153  0.51724  1.0000
  O   O7        1.0  0.7690999999999998  0.8504  0.86067  1.0000
  O   O8        1.0  0.06389999999999994  0.9152  0.86576  1.0000
  O   O9        1.0  0.6614  0.108  0.88383  1.0000
  O   O10       1.0  0.7029  0.0811  0.96923  1.0000
  O   O11       1.0  0.0836  0.051  0.9363800000000001  1.0000
  O   O12       1.0  0.213  0.0847  0.01724  1.0000
  O   O13       1.0  0.7690999999999998  0.8504  0.63933  1.0000
  O   O14       1.0  0.06389999999999994  0.9152  0.63424  1.0000
  O   O15       1.0  0.6614  0.108  0.61617  1.0000
  O   O16       1.0  0.7029  0.0811  0.53077  1.0000
  O   O17       1.0  0.0836  0.051  0.56362  1.0000
  O   O18       1.0  0.213  0.0847  0.48276  1.0000
  O   O19       1.0  0.2309  0.1496  0.13933  1.0000
  O   O20       1.0  0.9361  0.0848  0.13424  1.0000
  O   O21       1.0  0.3386  0.892  0.11617  1.0000
  O   O22       1.0  0.29709999999999986  0.9189  0.030770000000000002  1.0000
  O   O23       1.0  0.9164  0.949  0.06362  1.0000
  O   O24       1.0  0.787  0.9153  0.98276  1.0000
  O   O25       1.0  0.48059999999999997  0.915  0.25  1.0000
  O   O26       1.0  0.19340000000000004  0.8404  0.25  1.0000
  O   O27       1.0  0.5194  0.085  0.75  1.0000
  O   O28       1.0  0.8066  0.1596  0.75  1.0000
