data_image0
_chemical_formula_structural       La4Cu14H64C84I12N14O32
_chemical_formula_sum              "La4 Cu14 H64 C84 I12 N14 O32"
_cell_length_a       7.1209
_cell_length_b       18.302300000000002
_cell_length_c       24.9833
_cell_angle_alpha    90.0
_cell_angle_beta     90.0
_cell_angle_gamma    99.606

_symmetry_space_group_name_H-M    'P 1'
_symmetry_Int_Tables_number       1

loop_
  _symmetry_equiv_pos_as_xyz
  'x,y,z'

loop_
  _atom_site_type_symbol
  _atom_site_label
  _atom_site_symmetry_multiplicity
  _atom_site_fract_x
  _atom_site_fract_y
  _atom_site_fract_z
  _atom_site_occupancy
  La  La1       1.0  0.27768000000000004  0.48356000000000005  0.40105999999999997  1.0000
  La  La2       1.0  0.72232  0.51644  0.9010599999999998  1.0000
  La  La3       1.0  0.72232  0.51644  0.5989399999999999  1.0000
  La  La4       1.0  0.27768000000000004  0.48356000000000005  0.09893999999999999  1.0000
  Cu  Cu1       1.0  0.878  0.04412  0.50758  1.0000
  Cu  Cu2       1.0  0.3265  0.06086  0.58008  1.0000
  Cu  Cu3       1.0  0.2479  0.94631  0.68298  1.0000
  Cu  Cu4       1.0  0.12199999999999998  0.95588  0.007579999999999998  1.0000
  Cu  Cu5       1.0  0.6735  0.93914  0.08008  1.0000
  Cu  Cu6       1.0  0.7521000000000001  0.05369  0.18298  1.0000
  Cu  Cu7       1.0  0.12199999999999998  0.95588  0.49242  1.0000
  Cu  Cu8       1.0  0.6735  0.93914  0.4199199999999999  1.0000
  Cu  Cu9       1.0  0.7521000000000001  0.05369  0.31702  1.0000
  Cu  Cu10      1.0  0.878  0.04412  0.9924199999999999  1.0000
  Cu  Cu11      1.0  0.3265  0.06086  0.91992  1.0000
  Cu  Cu12      1.0  0.2479  0.94631  0.8170199999999997  1.0000
  Cu  Cu13      1.0  0.2682  0.06531  0.75  1.0000
  Cu  Cu14      1.0  0.7318  0.93469  0.25  1.0000
  H   H1        1.0  0.8832  0.4363  0.4594  1.0000
  H   H2        1.0  0.8840000000000002  0.4418  0.3974999999999999  1.0000
  H   H3        1.0  0.08760000000000005  0.8583  0.3957  1.0000
  H   H4        1.0  0.11060000000000002  0.7392  0.37269999999999986  1.0000
  H   H5        1.0  0.1977  0.6965  0.5271  1.0000
  H   H6        1.0  0.17179999999999995  0.8178  0.5456  1.0000
  H   H7        1.0  0.3083000000000001  0.1608  0.4858  1.0000
  H   H8        1.0  0.3008  0.2803  0.4656999999999999  1.0000
  H   H9        1.0  0.399  0.331  0.6206  1.0000
  H   H10       1.0  0.3926  0.20639999999999997  0.6363  1.0000
  H   H11       1.0  0.602  0.8937  0.6552  1.0000
  H   H12       1.0  0.7221  0.7892  0.6381  1.0000
  H   H13       1.0  0.20250000000000004  0.6745  0.6588  1.0000
  H   H14       1.0  0.09480000000000006  0.7828  0.6739  1.0000
  H   H15       1.0  0.11680000000000003  0.5637  0.9594  1.0000
  H   H16       1.0  0.116  0.5582  0.8974999999999997  1.0000
  H   H17       1.0  0.9124000000000002  0.1417  0.8956999999999998  1.0000
  H   H18       1.0  0.8894  0.2608  0.8726999999999999  1.0000
  H   H19       1.0  0.8023  0.3035  0.0271  1.0000
  H   H20       1.0  0.8282  0.1822  0.045599999999999995  1.0000
  H   H21       1.0  0.6917  0.8392  0.9857999999999999  1.0000
  H   H22       1.0  0.6992000000000002  0.7197  0.9656999999999998  1.0000
  H   H23       1.0  0.601  0.669  0.12059999999999997  1.0000
  H   H24       1.0  0.6074  0.7936  0.1363  1.0000
  H   H25       1.0  0.3980000000000001  0.1063  0.15519999999999998  1.0000
  H   H26       1.0  0.2779  0.2108  0.1381  1.0000
  H   H27       1.0  0.7975000000000001  0.3255  0.1588  1.0000
  H   H28       1.0  0.9052  0.2172  0.1739  1.0000
  H   H29       1.0  0.11680000000000003  0.5637  0.5406  1.0000
  H   H30       1.0  0.116  0.5582  0.6025  1.0000
  H   H31       1.0  0.9124000000000002  0.1417  0.6043  1.0000
  H   H32       1.0  0.8894  0.2608  0.6273  1.0000
  H   H33       1.0  0.8023  0.3035  0.4729  1.0000
  H   H34       1.0  0.8282  0.1822  0.4543999999999999  1.0000
  H   H35       1.0  0.6917  0.8392  0.5142  1.0000
  H   H36       1.0  0.6992000000000002  0.7197  0.5343  1.0000
  H   H37       1.0  0.601  0.669  0.3793999999999999  1.0000
  H   H38       1.0  0.6074  0.7936  0.3637  1.0000
  H   H39       1.0  0.3980000000000001  0.1063  0.3448  1.0000
  H   H40       1.0  0.2779  0.2108  0.36189999999999994  1.0000
  H   H41       1.0  0.7975000000000001  0.3255  0.3412  1.0000
  H   H42       1.0  0.9052  0.2172  0.3261  1.0000
  H   H43       1.0  0.8832  0.4363  0.04059999999999999  1.0000
  H   H44       1.0  0.8840000000000002  0.4418  0.1025  1.0000
  H   H45       1.0  0.08760000000000005  0.8583  0.10429999999999998  1.0000
  H   H46       1.0  0.11060000000000002  0.7392  0.1273  1.0000
  H   H47       1.0  0.1977  0.6965  0.9728999999999999  1.0000
  H   H48       1.0  0.17179999999999995  0.8178  0.9544  1.0000
  H   H49       1.0  0.3083000000000001  0.1608  0.014199999999999997  1.0000
  H   H50       1.0  0.3008  0.2803  0.0343  1.0000
  H   H51       1.0  0.399  0.331  0.8794  1.0000
  H   H52       1.0  0.3926  0.20639999999999997  0.8636999999999999  1.0000
  H   H53       1.0  0.602  0.8937  0.8447999999999999  1.0000
  H   H54       1.0  0.7221  0.7892  0.8619  1.0000
  H   H55       1.0  0.20250000000000004  0.6745  0.8412  1.0000
  H   H56       1.0  0.09480000000000006  0.7828  0.8260999999999998  1.0000
  H   H57       1.0  0.3814  0.2303  0.75  1.0000
  H   H58       1.0  0.245  0.3367  0.75  1.0000
  H   H59       1.0  0.7307  0.2079  0.75  1.0000
  H   H60       1.0  0.8847  0.10759999999999999  0.75  1.0000
  H   H61       1.0  0.6186  0.7697  0.25  1.0000
  H   H62       1.0  0.755  0.6633  0.25  1.0000
  H   H63       1.0  0.2693  0.7921  0.25  1.0000
  H   H64       1.0  0.11529999999999996  0.8924  0.25  1.0000
  C   C1        1.0  0.10980000000000005  0.8255  0.42249999999999993  1.0000
  C   C2        1.0  0.12279999999999995  0.7538  0.4084  1.0000
  C   C3        1.0  0.15409999999999993  0.7035  0.44739999999999996  1.0000
  C   C4        1.0  0.17440000000000003  0.7282  0.4996999999999999  1.0000
  C   C5        1.0  0.15920000000000006  0.8015  0.5102999999999999  1.0000
  C   C6        1.0  0.1711  0.6248  0.4334  1.0000
  C   C7        1.0  0.3238  0.1953  0.5135  1.0000
  C   C8        1.0  0.3219  0.2671  0.5008  1.0000
  C   C9        1.0  0.3514  0.3209  0.5404  1.0000
  C   C10       1.0  0.3786  0.2972  0.5925  1.0000
  C   C11       1.0  0.3746  0.2218  0.6015  1.0000
  C   C12       1.0  0.3546  0.4016  0.5285999999999998  1.0000
  C   C13       1.0  0.5197  0.8485  0.6559  1.0000
  C   C14       1.0  0.5937  0.7859  0.6463999999999999  1.0000
  C   C15       1.0  0.4789000000000002  0.7178  0.6492  1.0000
  C   C16       1.0  0.288  0.7188  0.6583999999999999  1.0000
  C   C17       1.0  0.224  0.7843  0.6670999999999998  1.0000
  C   C18       1.0  0.5533  0.647  0.6378  1.0000
  C   C19       1.0  0.8902000000000001  0.1745  0.9225  1.0000
  C   C20       1.0  0.8772  0.2462  0.9083999999999999  1.0000
  C   C21       1.0  0.8459000000000001  0.2965  0.9474  1.0000
  C   C22       1.0  0.8256  0.2718  0.9997  1.0000
  C   C23       1.0  0.8408  0.1985  0.0103  1.0000
  C   C24       1.0  0.8289000000000001  0.3752  0.9334  1.0000
  C   C25       1.0  0.6762000000000002  0.8047  0.0135  1.0000
  C   C26       1.0  0.6781  0.7329  0.0007999999999999998  1.0000
  C   C27       1.0  0.6486  0.6791  0.04039999999999999  1.0000
  C   C28       1.0  0.6214  0.7028  0.0925  1.0000
  C   C29       1.0  0.6254000000000001  0.7782  0.1015  1.0000
  C   C30       1.0  0.6454  0.5984  0.0286  1.0000
  C   C31       1.0  0.48029999999999995  0.1515  0.1559  1.0000
  C   C32       1.0  0.4063  0.2141  0.1464  1.0000
  C   C33       1.0  0.5211000000000002  0.2822  0.1492  1.0000
  C   C34       1.0  0.712  0.2812  0.15839999999999999  1.0000
  C   C35       1.0  0.7760000000000001  0.2157  0.1671  1.0000
  C   C36       1.0  0.4467  0.353  0.1378  1.0000
  C   C37       1.0  0.8902000000000001  0.1745  0.5775  1.0000
  C   C38       1.0  0.8772  0.2462  0.5916  1.0000
  C   C39       1.0  0.8459000000000001  0.2965  0.5526  1.0000
  C   C40       1.0  0.8256  0.2718  0.5003  1.0000
  C   C41       1.0  0.8408  0.1985  0.4897  1.0000
  C   C42       1.0  0.8289000000000001  0.3752  0.5666  1.0000
  C   C43       1.0  0.6762000000000002  0.8047  0.4865  1.0000
  C   C44       1.0  0.6781  0.7329  0.49919999999999987  1.0000
  C   C45       1.0  0.6486  0.6791  0.45959999999999995  1.0000
  C   C46       1.0  0.6214  0.7028  0.40749999999999986  1.0000
  C   C47       1.0  0.6254000000000001  0.7782  0.3985  1.0000
  C   C48       1.0  0.6454  0.5984  0.4714  1.0000
  C   C49       1.0  0.48029999999999995  0.1515  0.3441  1.0000
  C   C50       1.0  0.4063  0.2141  0.3535999999999999  1.0000
  C   C51       1.0  0.5211000000000002  0.2822  0.3508  1.0000
  C   C52       1.0  0.712  0.2812  0.3416  1.0000
  C   C53       1.0  0.7760000000000001  0.2157  0.3329  1.0000
  C   C54       1.0  0.4467  0.353  0.3622  1.0000
  C   C55       1.0  0.10980000000000005  0.8255  0.0775  1.0000
  C   C56       1.0  0.12279999999999995  0.7538  0.09159999999999999  1.0000
  C   C57       1.0  0.15409999999999993  0.7035  0.0526  1.0000
  C   C58       1.0  0.17440000000000003  0.7282  0.0003  1.0000
  C   C59       1.0  0.15920000000000006  0.8015  0.9896999999999998  1.0000
  C   C60       1.0  0.1711  0.6248  0.0666  1.0000
  C   C61       1.0  0.3238  0.1953  0.9864999999999999  1.0000
  C   C62       1.0  0.3219  0.2671  0.9992  1.0000
  C   C63       1.0  0.3514  0.3209  0.9596  1.0000
  C   C64       1.0  0.3786  0.2972  0.9075  1.0000
  C   C65       1.0  0.3746  0.2218  0.8985  1.0000
  C   C66       1.0  0.3546  0.4016  0.9714  1.0000
  C   C67       1.0  0.5197  0.8485  0.8440999999999999  1.0000
  C   C68       1.0  0.5937  0.7859  0.8536  1.0000
  C   C69       1.0  0.4789000000000002  0.7178  0.8507999999999999  1.0000
  C   C70       1.0  0.288  0.7188  0.8416  1.0000
  C   C71       1.0  0.224  0.7843  0.8329  1.0000
  C   C72       1.0  0.5533  0.647  0.8622  1.0000
  C   C73       1.0  0.249  0.22579999999999997  0.75  1.0000
  C   C74       1.0  0.167  0.2904  0.75  1.0000
  C   C75       1.0  0.9700000000000001  0.2854  0.75  1.0000
  C   C76       1.0  0.863  0.2147  0.75  1.0000
  C   C77       1.0  0.958  0.1546  0.75  1.0000
  C   C78       1.0  0.8700000000000002  0.354  0.75  1.0000
  C   C79       1.0  0.751  0.7742  0.25  1.0000
  C   C80       1.0  0.8330000000000002  0.7096  0.25  1.0000
  C   C81       1.0  0.02999999999999997  0.7146  0.25  1.0000
  C   C82       1.0  0.13699999999999996  0.7853  0.25  1.0000
  C   C83       1.0  0.04200000000000001  0.8454  0.25  1.0000
  C   C84       1.0  0.13  0.646  0.25  1.0000
  I   I1        1.0  0.99062  0.9704999999999999  0.58917  1.0000
  I   I2        1.0  0.517  0.05685  0.67021  1.0000
  I   I3        1.0  0.00938  0.029499999999999995  0.08917  1.0000
  I   I4        1.0  0.48300000000000004  0.94315  0.17020999999999994  1.0000
  I   I5        1.0  0.00938  0.029499999999999995  0.41083  1.0000
  I   I6        1.0  0.48300000000000004  0.94315  0.3297899999999999  1.0000
  I   I7        1.0  0.99062  0.9704999999999999  0.9108299999999998  1.0000
  I   I8        1.0  0.517  0.05685  0.8297899999999998  1.0000
  I   I9        1.0  0.97438  0.9413699999999999  0.75  1.0000
  I   I10       1.0  0.02562  0.05863  0.25  1.0000
  I   I11       1.0  0.5  0.0  0.5  1.0000
  I   I12       1.0  0.5  0.0  0.0  1.0000
  N   N1        1.0  0.12769999999999995  0.8499  0.4728  1.0000
  N   N2        1.0  0.34660000000000013  0.1702  0.5633  1.0000
  N   N3        1.0  0.3356  0.849  0.6663  1.0000
  N   N4        1.0  0.8723  0.1501  0.9728  1.0000
  N   N5        1.0  0.6534000000000002  0.8298  0.0633  1.0000
  N   N6        1.0  0.6644  0.151  0.1663  1.0000
  N   N7        1.0  0.8723  0.1501  0.5272  1.0000
  N   N8        1.0  0.6534000000000002  0.8298  0.4367  1.0000
  N   N9        1.0  0.6644  0.151  0.3337  1.0000
  N   N10       1.0  0.12769999999999995  0.8499  0.0272  1.0000
  N   N11       1.0  0.34660000000000013  0.1702  0.9366999999999999  1.0000
  N   N12       1.0  0.3356  0.849  0.8336999999999998  1.0000
  N   N13       1.0  0.14560000000000003  0.1588  0.75  1.0000
  N   N14       1.0  0.8544  0.8411999999999998  0.25  1.0000
  O   O1        1.0  0.16480000000000006  0.6074  0.38479999999999986  1.0000
  O   O2        1.0  0.2  0.5808  0.47  1.0000
  O   O3        1.0  0.2906  0.4166  0.4834  1.0000
  O   O4        1.0  0.4187  0.4488  0.5642  1.0000
  O   O5        1.0  0.7324  0.651  0.6360999999999999  1.0000
  O   O6        1.0  0.4393000000000001  0.5875  0.6307  1.0000
  O   O7        1.0  0.9335  0.4413  0.42849999999999994  1.0000
  O   O8        1.0  0.8352  0.39259999999999995  0.8848  1.0000
  O   O9        1.0  0.8  0.4192  0.97  1.0000
  O   O10       1.0  0.7094  0.5834  0.9834  1.0000
  O   O11       1.0  0.5813  0.5512  0.0642  1.0000
  O   O12       1.0  0.2676  0.349  0.13609999999999997  1.0000
  O   O13       1.0  0.5606999999999999  0.4125  0.1307  1.0000
  O   O14       1.0  0.06650000000000002  0.5587  0.9285  1.0000
  O   O15       1.0  0.8352  0.39259999999999995  0.6152  1.0000
  O   O16       1.0  0.8  0.4192  0.53  1.0000
  O   O17       1.0  0.7094  0.5834  0.5166  1.0000
  O   O18       1.0  0.5813  0.5512  0.4358  1.0000
  O   O19       1.0  0.2676  0.349  0.3639  1.0000
  O   O20       1.0  0.5606999999999999  0.4125  0.36929999999999996  1.0000
  O   O21       1.0  0.06650000000000002  0.5587  0.5715  1.0000
  O   O22       1.0  0.16480000000000006  0.6074  0.1152  1.0000
  O   O23       1.0  0.2  0.5808  0.029999999999999995  1.0000
  O   O24       1.0  0.2906  0.4166  0.0166  1.0000
  O   O25       1.0  0.4187  0.4488  0.9357999999999999  1.0000
  O   O26       1.0  0.7324  0.651  0.8638999999999999  1.0000
  O   O27       1.0  0.4393000000000001  0.5875  0.8693  1.0000
  O   O28       1.0  0.9335  0.4413  0.0715  1.0000
  O   O29       1.0  0.9759  0.4156  0.75  1.0000
  O   O30       1.0  0.6929  0.3422  0.75  1.0000
  O   O31       1.0  0.024099999999999976  0.5844  0.25  1.0000
  O   O32       1.0  0.3071  0.6578  0.25  1.0000
