data_image0
_chemical_formula_structural       Eu4Cu14H56C84I12N14O28
_chemical_formula_sum              "Eu4 Cu14 H56 C84 I12 N14 O28"
_cell_length_a       7.0328
_cell_length_b       18.158
_cell_length_c       24.66
_cell_angle_alpha    90.0
_cell_angle_beta     90.0
_cell_angle_gamma    99.54

_space_group_name_H-M_alt    "P 1"
_space_group_IT_number       1

loop_
  _space_group_symop_operation_xyz
  'x, y, z'

loop_
  _atom_site_type_symbol
  _atom_site_label
  _atom_site_symmetry_multiplicity
  _atom_site_fract_x
  _atom_site_fract_y
  _atom_site_fract_z
  _atom_site_occupancy
  Eu  Eu1       1.0  0.21929000000000007  0.01571  0.40171  1.0000
  Eu  Eu2       1.0  0.78071  0.98429  0.9017099999999999  1.0000
  Eu  Eu3       1.0  0.78071  0.98429  0.5982899999999999  1.0000
  Eu  Eu4       1.0  0.21929000000000007  0.01571  0.09828999999999997  1.0000
  Cu  Cu1       1.0  0.7516  0.44615  0.3151999999999999  1.0000
  Cu  Cu2       1.0  0.3790000000000001  0.54442  0.49232999999999993  1.0000
  Cu  Cu3       1.0  0.8256000000000002  0.55967  0.4192999999999999  1.0000
  Cu  Cu4       1.0  0.2484  0.55385  0.8151999999999999  1.0000
  Cu  Cu5       1.0  0.621  0.45557999999999993  0.9923299999999998  1.0000
  Cu  Cu6       1.0  0.1744  0.44033  0.9193  1.0000
  Cu  Cu7       1.0  0.2484  0.55385  0.6847999999999997  1.0000
  Cu  Cu8       1.0  0.621  0.45557999999999993  0.50767  1.0000
  Cu  Cu9       1.0  0.1744  0.44033  0.5807  1.0000
  Cu  Cu10      1.0  0.7516  0.44615  0.1848  1.0000
  Cu  Cu11      1.0  0.3790000000000001  0.54442  0.007669999999999999  1.0000
  Cu  Cu12      1.0  0.8256000000000002  0.55967  0.08069999999999998  1.0000
  Cu  Cu13      1.0  0.7712000000000002  0.5658199999999999  0.24999999999999994  1.0000
  Cu  Cu14      1.0  0.22880000000000006  0.43418  0.75  1.0000
  H   H1        1.0  0.22570000000000007  0.2805  0.3631  1.0000
  H   H2        1.0  0.11320000000000002  0.39239999999999997  0.34639999999999993  1.0000
  H   H3        1.0  0.5942000000000002  0.2812  0.3204  1.0000
  H   H4        1.0  0.6947  0.1686  0.3389  1.0000
  H   H5        1.0  0.3907  0.7613  0.3706  1.0000
  H   H6        1.0  0.4218  0.6418  0.3947  1.0000
  H   H7        1.0  0.3184  0.6829  0.5487  1.0000
  H   H8        1.0  0.29139999999999994  0.803  0.5281  1.0000
  H   H9        1.0  0.9055000000000001  0.8343  0.3784999999999999  1.0000
  H   H10       1.0  0.9007000000000002  0.7087  0.3622  1.0000
  H   H11       1.0  0.8013000000000001  0.6576  0.5162999999999999  1.0000
  H   H12       1.0  0.8067  0.7831  0.5371  1.0000
  H   H13       1.0  0.7743000000000001  0.7195  0.8631  1.0000
  H   H14       1.0  0.8868  0.6076  0.8464  1.0000
  H   H15       1.0  0.4058  0.7188  0.8203999999999998  1.0000
  H   H16       1.0  0.30530000000000007  0.8313999999999999  0.8388999999999999  1.0000
  H   H17       1.0  0.6093  0.23869999999999997  0.8705999999999998  1.0000
  H   H18       1.0  0.5782000000000003  0.3582  0.8946999999999999  1.0000
  H   H19       1.0  0.6816  0.3171  0.048699999999999986  1.0000
  H   H20       1.0  0.7086  0.197  0.028099999999999997  1.0000
  H   H21       1.0  0.0945  0.1657  0.8784999999999997  1.0000
  H   H22       1.0  0.09930000000000005  0.2913  0.8621999999999999  1.0000
  H   H23       1.0  0.19870000000000004  0.3424  0.0163  1.0000
  H   H24       1.0  0.19330000000000003  0.21689999999999998  0.037099999999999994  1.0000
  H   H25       1.0  0.7743000000000001  0.7195  0.6368999999999999  1.0000
  H   H26       1.0  0.8868  0.6076  0.6536  1.0000
  H   H27       1.0  0.4058  0.7188  0.6795999999999999  1.0000
  H   H28       1.0  0.30530000000000007  0.8313999999999999  0.6610999999999998  1.0000
  H   H29       1.0  0.6093  0.23869999999999997  0.6294  1.0000
  H   H30       1.0  0.5782000000000003  0.3582  0.6052999999999998  1.0000
  H   H31       1.0  0.6816  0.3171  0.4512999999999999  1.0000
  H   H32       1.0  0.7086  0.197  0.47189999999999993  1.0000
  H   H33       1.0  0.0945  0.1657  0.6215  1.0000
  H   H34       1.0  0.09930000000000005  0.2913  0.6378  1.0000
  H   H35       1.0  0.19870000000000004  0.3424  0.4837  1.0000
  H   H36       1.0  0.19330000000000003  0.21689999999999998  0.46289999999999987  1.0000
  H   H37       1.0  0.22570000000000007  0.2805  0.13689999999999997  1.0000
  H   H38       1.0  0.11320000000000002  0.39239999999999997  0.15359999999999996  1.0000
  H   H39       1.0  0.5942000000000002  0.2812  0.17959999999999995  1.0000
  H   H40       1.0  0.6947  0.1686  0.16109999999999997  1.0000
  H   H41       1.0  0.3907  0.7613  0.12939999999999996  1.0000
  H   H42       1.0  0.4218  0.6418  0.10529999999999999  1.0000
  H   H43       1.0  0.3184  0.6829  0.9513  1.0000
  H   H44       1.0  0.29139999999999994  0.803  0.9719  1.0000
  H   H45       1.0  0.9055000000000001  0.8343  0.12149999999999997  1.0000
  H   H46       1.0  0.9007000000000002  0.7087  0.13779999999999998  1.0000
  H   H47       1.0  0.8013000000000001  0.6576  0.9836999999999998  1.0000
  H   H48       1.0  0.8067  0.7831  0.9629  1.0000
  H   H49       1.0  0.22270000000000012  0.7106  0.24999999999999994  1.0000
  H   H50       1.0  0.3794  0.6015  0.24999999999999994  1.0000
  H   H51       1.0  0.8862000000000001  0.7383  0.24999999999999994  1.0000
  H   H52       1.0  0.7439  0.8412  0.24999999999999994  1.0000
  H   H53       1.0  0.7773000000000002  0.2894  0.75  1.0000
  H   H54       1.0  0.6206000000000003  0.3985  0.75  1.0000
  H   H55       1.0  0.1138  0.2617  0.75  1.0000
  H   H56       1.0  0.2561  0.1588  0.75  1.0000
  C   C1        1.0  0.05099999999999999  0.14299999999999996  0.3627  1.0000
  C   C2        1.0  0.976  0.2146  0.352  1.0000
  C   C3        1.0  0.094  0.2794  0.3545  1.0000
  C   C4        1.0  0.024999999999999998  0.3467  0.3443999999999999  1.0000
  C   C5        1.0  0.7260000000000002  0.2822  0.3298  1.0000
  C   C6        1.0  0.784  0.214  0.3401  1.0000
  C   C7        1.0  0.3260000000000002  0.8767  0.4328999999999999  1.0000
  C   C8        1.0  0.34580000000000005  0.798  0.4483  1.0000
  C   C9        1.0  0.3790000000000001  0.7463  0.4075  1.0000
  C   C10       1.0  0.3945  0.6756  0.4219  1.0000
  C   C11       1.0  0.3349  0.6993  0.5121  1.0000
  C   C12       1.0  0.3202000000000001  0.7708  0.4998999999999999  1.0000
  C   C13       1.0  0.8591  0.9033  0.4735999999999999  1.0000
  C   C14       1.0  0.8575  0.8206999999999998  0.45949999999999996  1.0000
  C   C15       1.0  0.8842999999999999  0.7990999999999998  0.40729999999999994  1.0000
  C   C16       1.0  0.8790000000000001  0.7238  0.3982999999999999  1.0000
  C   C17       1.0  0.8218000000000002  0.6936  0.48809999999999987  1.0000
  C   C18       1.0  0.8256000000000002  0.7682  0.5008  1.0000
  C   C19       1.0  0.9490000000000001  0.857  0.8626999999999999  1.0000
  C   C20       1.0  0.02400000000000002  0.7854  0.852  1.0000
  C   C21       1.0  0.906  0.7206  0.8544999999999998  1.0000
  C   C22       1.0  0.9750000000000003  0.6533  0.8443999999999998  1.0000
  C   C23       1.0  0.274  0.7178  0.8298  1.0000
  C   C24       1.0  0.216  0.786  0.8401  1.0000
  C   C25       1.0  0.6740000000000002  0.1233  0.9328999999999997  1.0000
  C   C26       1.0  0.6542000000000002  0.202  0.9482999999999998  1.0000
  C   C27       1.0  0.621  0.2537  0.9074999999999998  1.0000
  C   C28       1.0  0.6055  0.3244  0.9218999999999999  1.0000
  C   C29       1.0  0.6651  0.3007  0.012099999999999996  1.0000
  C   C30       1.0  0.6798  0.22919999999999996  0.9999  1.0000
  C   C31       1.0  0.14090000000000005  0.0967  0.9735999999999998  1.0000
  C   C32       1.0  0.1425  0.1793  0.9595  1.0000
  C   C33       1.0  0.11570000000000003  0.2009  0.9072999999999998  1.0000
  C   C34       1.0  0.12100000000000002  0.2762  0.8982999999999998  1.0000
  C   C35       1.0  0.1782  0.3064  0.9880999999999998  1.0000
  C   C36       1.0  0.1744  0.2318  0.0008  1.0000
  C   C37       1.0  0.9490000000000001  0.857  0.6372999999999999  1.0000
  C   C38       1.0  0.02400000000000002  0.7854  0.6479999999999999  1.0000
  C   C39       1.0  0.906  0.7206  0.6455  1.0000
  C   C40       1.0  0.9750000000000003  0.6533  0.6556  1.0000
  C   C41       1.0  0.274  0.7178  0.6702  1.0000
  C   C42       1.0  0.216  0.786  0.6599  1.0000
  C   C43       1.0  0.6740000000000002  0.1233  0.5671  1.0000
  C   C44       1.0  0.6542000000000002  0.202  0.5517  1.0000
  C   C45       1.0  0.621  0.2537  0.5925  1.0000
  C   C46       1.0  0.6055  0.3244  0.5780999999999998  1.0000
  C   C47       1.0  0.6651  0.3007  0.48789999999999994  1.0000
  C   C48       1.0  0.6798  0.22919999999999996  0.5001  1.0000
  C   C49       1.0  0.14090000000000005  0.0967  0.5264  1.0000
  C   C50       1.0  0.1425  0.1793  0.5405  1.0000
  C   C51       1.0  0.11570000000000003  0.2009  0.5927  1.0000
  C   C52       1.0  0.12100000000000002  0.2762  0.6017  1.0000
  C   C53       1.0  0.1782  0.3064  0.5119  1.0000
  C   C54       1.0  0.1744  0.2318  0.49919999999999987  1.0000
  C   C55       1.0  0.05099999999999999  0.14299999999999996  0.13729999999999998  1.0000
  C   C56       1.0  0.976  0.2146  0.148  1.0000
  C   C57       1.0  0.094  0.2794  0.1455  1.0000
  C   C58       1.0  0.024999999999999998  0.3467  0.1556  1.0000
  C   C59       1.0  0.7260000000000002  0.2822  0.1702  1.0000
  C   C60       1.0  0.784  0.214  0.1599  1.0000
  C   C61       1.0  0.3260000000000002  0.8767  0.06709999999999999  1.0000
  C   C62       1.0  0.34580000000000005  0.798  0.0517  1.0000
  C   C63       1.0  0.3790000000000001  0.7463  0.0925  1.0000
  C   C64       1.0  0.3945  0.6756  0.0781  1.0000
  C   C65       1.0  0.3349  0.6993  0.9878999999999998  1.0000
  C   C66       1.0  0.3202000000000001  0.7708  0.0001  1.0000
  C   C67       1.0  0.8591  0.9033  0.0264  1.0000
  C   C68       1.0  0.8575  0.8206999999999998  0.040499999999999994  1.0000
  C   C69       1.0  0.8842999999999999  0.7990999999999998  0.0927  1.0000
  C   C70       1.0  0.8790000000000001  0.7238  0.10169999999999998  1.0000
  C   C71       1.0  0.8218000000000002  0.6936  0.0119  1.0000
  C   C72       1.0  0.8256000000000002  0.7682  0.9991999999999998  1.0000
  C   C73       1.0  0.362  0.8533  0.24999999999999994  1.0000
  C   C74       1.0  0.472  0.7904  0.24999999999999994  1.0000
  C   C75       1.0  0.359  0.7165  0.24999999999999994  1.0000
  C   C76       1.0  0.453  0.6503999999999999  0.24999999999999994  1.0000
  C   C77       1.0  0.7490000000000002  0.7318  0.24999999999999994  1.0000
  C   C78       1.0  0.664  0.7936  0.24999999999999994  1.0000
  C   C79       1.0  0.638  0.1467  0.75  1.0000
  C   C80       1.0  0.5280000000000001  0.2096  0.75  1.0000
  C   C81       1.0  0.6410000000000002  0.2835  0.75  1.0000
  C   C82       1.0  0.547  0.3496  0.75  1.0000
  C   C83       1.0  0.251  0.2682  0.75  1.0000
  C   C84       1.0  0.33600000000000013  0.2064  0.75  1.0000
  I   I1        1.0  0.02426999999999995  0.5568999999999998  0.32978  1.0000
  I   I2        1.0  0.4896  0.47047  0.40983  1.0000
  I   I3        1.0  0.9757300000000002  0.4431  0.8297799999999997  1.0000
  I   I4        1.0  0.5104  0.52953  0.90983  1.0000
  I   I5        1.0  0.9757300000000002  0.4431  0.67022  1.0000
  I   I6        1.0  0.5104  0.52953  0.5901699999999999  1.0000
  I   I7        1.0  0.02426999999999995  0.5568999999999998  0.17021999999999995  1.0000
  I   I8        1.0  0.4896  0.47047  0.09017  1.0000
  I   I9        1.0  0.46789000000000003  0.44153  0.24999999999999994  1.0000
  I   I10       1.0  0.5321100000000001  0.55847  0.75  1.0000
  I   I11       1.0  0.0  0.5  0.4999999999999999  1.0000
  I   I12       1.0  0.0  0.5  0.0  1.0000
  N   N1        1.0  0.8377  0.3488  0.3319999999999999  1.0000
  N   N2        1.0  0.3720000000000001  0.6512  0.4742  1.0000
  N   N3        1.0  0.8466000000000002  0.67  0.4363  1.0000
  N   N4        1.0  0.16230000000000006  0.6512  0.8319999999999997  1.0000
  N   N5        1.0  0.628  0.3488  0.9741999999999998  1.0000
  N   N6        1.0  0.1534  0.33  0.9363  1.0000
  N   N7        1.0  0.16230000000000006  0.6512  0.6679999999999999  1.0000
  N   N8        1.0  0.628  0.3488  0.5258  1.0000
  N   N9        1.0  0.1534  0.33  0.5636999999999999  1.0000
  N   N10       1.0  0.8377  0.3488  0.16799999999999998  1.0000
  N   N11       1.0  0.3720000000000001  0.6512  0.0258  1.0000
  N   N12       1.0  0.8466000000000002  0.67  0.06369999999999999  1.0000
  N   N13       1.0  0.65  0.6615  0.24999999999999994  1.0000
  N   N14       1.0  0.3500000000000001  0.3385  0.75  1.0000
  O   O1        1.0  0.23210000000000006  0.1469  0.3643  1.0000
  O   O2        1.0  0.9380000000000001  0.0844  0.3714999999999999  1.0000
  O   O3        1.0  0.33129999999999993  0.8963999999999999  0.3845  1.0000
  O   O4        1.0  0.3031  0.923  0.4702999999999999  1.0000
  O   O5        1.0  0.9260000000000003  0.9502  0.4371  1.0000
  O   O6        1.0  0.7921000000000001  0.9167999999999998  0.5183  1.0000
  O   O7        1.0  0.7679000000000002  0.8531  0.8642999999999998  1.0000
  O   O8        1.0  0.061999999999999944  0.9156  0.8715  1.0000
  O   O9        1.0  0.6687  0.10359999999999998  0.8844999999999997  1.0000
  O   O10       1.0  0.6969  0.077  0.9702999999999999  1.0000
  O   O11       1.0  0.07400000000000002  0.0498  0.9371  1.0000
  O   O12       1.0  0.20790000000000003  0.0832  0.0183  1.0000
  O   O13       1.0  0.7679000000000002  0.8531  0.6357  1.0000
  O   O14       1.0  0.061999999999999944  0.9156  0.6285  1.0000
  O   O15       1.0  0.6687  0.10359999999999998  0.6154999999999999  1.0000
  O   O16       1.0  0.6969  0.077  0.5297  1.0000
  O   O17       1.0  0.07400000000000002  0.0498  0.5628999999999998  1.0000
  O   O18       1.0  0.20790000000000003  0.0832  0.48169999999999996  1.0000
  O   O19       1.0  0.23210000000000006  0.1469  0.1357  1.0000
  O   O20       1.0  0.9380000000000001  0.0844  0.1285  1.0000
  O   O21       1.0  0.33129999999999993  0.8963999999999999  0.11549999999999998  1.0000
  O   O22       1.0  0.3031  0.923  0.029699999999999994  1.0000
  O   O23       1.0  0.9260000000000003  0.9502  0.06289999999999998  1.0000
  O   O24       1.0  0.7921000000000001  0.9167999999999998  0.9817  1.0000
  O   O25       1.0  0.47300000000000014  0.9195000000000001  0.24999999999999994  1.0000
  O   O26       1.0  0.1869  0.8474  0.24999999999999994  1.0000
  O   O27       1.0  0.527  0.0805  0.75  1.0000
  O   O28       1.0  0.8131000000000003  0.1526  0.75  1.0000
