data_image0
_chemical_formula_structural       Er2H14C30O14
_chemical_formula_sum              "Er2 H14 C30 O14"
_cell_length_a       9.349
_cell_length_b       9.8
_cell_length_c       11.378999999999998
_cell_angle_alpha    94.441
_cell_angle_beta     99.305
_cell_angle_gamma    111.52699999999999

_symmetry_space_group_name_H-M    'P 1'
_symmetry_Int_Tables_number       1

loop_
  _symmetry_equiv_pos_as_xyz
  'x,y,z'

loop_
  _atom_site_type_symbol
  _atom_site_label
  _atom_site_symmetry_multiplicity
  _atom_site_fract_x
  _atom_site_fract_y
  _atom_site_fract_z
  _atom_site_occupancy
  Er  Er1       1.0  0.7241899999999998  0.4549  0.01131  1.0000
  Er  Er2       1.0  0.27581  0.5451  0.98869  1.0000
  H   H1        1.0  0.7294000000000002  0.7723  0.3758  1.0000
  H   H2        1.0  0.8232  0.8983999999999999  0.5655  1.0000
  H   H3        1.0  0.153  0.7256  0.6168  1.0000
  H   H4        1.0  0.06640000000000001  0.6064  0.4208  1.0000
  H   H5        1.0  0.07679999999999995  0.1405  0.8373  1.0000
  H   H6        1.0  0.6781  0.9963999999999998  0.9608999999999999  1.0000
  H   H7        1.0  0.8029000000000001  0.7076  0.7769  1.0000
  H   H8        1.0  0.2706  0.22769999999999999  0.6242  1.0000
  H   H9        1.0  0.1768  0.1016  0.4345  1.0000
  H   H10       1.0  0.847  0.2744  0.3832  1.0000
  H   H11       1.0  0.9336  0.3936  0.5792  1.0000
  H   H12       1.0  0.9232  0.8595  0.1627  1.0000
  H   H13       1.0  0.3219  0.0036  0.0391  1.0000
  H   H14       1.0  0.19710000000000005  0.2924  0.22310000000000002  1.0000
  C   C1        1.0  0.8239  0.587  0.253  1.0000
  C   C2        1.0  0.883  0.6698  0.37409999999999993  1.0000
  C   C3        1.0  0.8148999999999998  0.7624  0.42330000000000007  1.0000
  C   C4        1.0  0.8693999999999998  0.8368999999999999  0.5367  1.0000
  C   C5        1.0  0.9952999999999999  0.821  0.6102  1.0000
  C   C6        1.0  0.06840000000000003  0.7349  0.5676  1.0000
  C   C7        1.0  0.014599999999999981  0.6622  0.4504  1.0000
  C   C8        1.0  0.9507  0.9221999999999999  0.7935  1.0000
  C   C9        1.0  0.9857000000000001  0.064  0.8456  1.0000
  C   C10       1.0  0.8844  0.09289999999999998  0.9105999999999999  1.0000
  C   C11       1.0  0.7495  0.9769  0.9211  1.0000
  C   C12       1.0  0.7189  0.832  0.8732  1.0000
  C   C13       1.0  0.8209999999999997  0.8040999999999999  0.8091000000000002  1.0000
  C   C14       1.0  0.9184999999999999  0.24579999999999996  0.9664  1.0000
  C   C15       1.0  0.5830999999999998  0.7084999999999999  0.8968  1.0000
  C   C16       1.0  0.17609999999999995  0.4129999999999999  0.7469999999999999  1.0000
  C   C17       1.0  0.117  0.3302  0.6259  1.0000
  C   C18       1.0  0.18509999999999996  0.23759999999999998  0.5767  1.0000
  C   C19       1.0  0.1306  0.1631  0.4633  1.0000
  C   C20       1.0  0.0047000000000000045  0.179  0.3897999999999999  1.0000
  C   C21       1.0  0.9316  0.2651  0.43239999999999995  1.0000
  C   C22       1.0  0.9854  0.3377999999999999  0.5496  1.0000
  C   C23       1.0  0.0493  0.0778  0.2065  1.0000
  C   C24       1.0  0.014299999999999981  0.936  0.1544  1.0000
  C   C25       1.0  0.1156  0.9071  0.0894  1.0000
  C   C26       1.0  0.2505  0.0231  0.0789  1.0000
  C   C27       1.0  0.2811  0.168  0.1268  1.0000
  C   C28       1.0  0.17899999999999996  0.1959  0.19089999999999996  1.0000
  C   C29       1.0  0.08150000000000003  0.7542  0.0336  1.0000
  C   C30       1.0  0.4169  0.2915  0.1032  1.0000
  O   O1        1.0  0.8778  0.4948  0.2167  1.0000
  O   O2        1.0  0.7198  0.6115  0.18259999999999998  1.0000
  O   O3        1.0  0.4524  0.7226  0.8939  1.0000
  O   O4        1.0  0.6002  0.5906  0.9219  1.0000
  O   O5        1.0  0.8102  0.2687  0.009  1.0000
  O   O6        1.0  0.05029999999999999  0.34469999999999995  0.9707000000000001  1.0000
  O   O7        1.0  0.056500000000000036  0.8956000000000001  0.7272999999999998  1.0000
  O   O8        1.0  0.12219999999999995  0.5052  0.7832999999999999  1.0000
  O   O9        1.0  0.28020000000000006  0.38850000000000007  0.8174000000000001  1.0000
  O   O10       1.0  0.5476  0.2773999999999999  0.10609999999999999  1.0000
  O   O11       1.0  0.39980000000000004  0.4094  0.0781  1.0000
  O   O12       1.0  0.18979999999999997  0.7313  0.991  1.0000
  O   O13       1.0  0.9497  0.6553  0.029299999999999996  1.0000
  O   O14       1.0  0.9435  0.1044  0.2727  1.0000
