data_image0
_chemical_formula_structural       Co6H16C28N12O12
_chemical_formula_sum              "Co6 H16 C28 N12 O12"
_cell_length_a       10.87757696
_cell_length_b       10.91477936
_cell_length_c       10.74544129
_cell_angle_alpha    86.46110078
_cell_angle_beta     87.51457485
_cell_angle_gamma    79.68412746

_space_group_name_H-M_alt    "P 1"
_space_group_IT_number       1

loop_
  _space_group_symop_operation_xyz
  'x, y, z'

loop_
  _atom_site_type_symbol
  _atom_site_label
  _atom_site_symmetry_multiplicity
  _atom_site_fract_x
  _atom_site_fract_y
  _atom_site_fract_z
  _atom_site_occupancy
  Co  Co1       1.0  0.07779447000000002  0.9184340599999999  0.25097138  1.0000
  Co  Co2       1.0  0.97699618  0.8478821699999998  0.00847641  1.0000
  Co  Co3       1.0  0.8465828799999999  0.98195851  0.50329888  1.0000
  Co  Co4       1.0  0.92686815  0.07707500999999999  0.74877127  1.0000
  Co  Co5       1.0  0.027095779999999996  0.1515259  0.99344689  1.0000
  Co  Co6       1.0  0.15437545  0.01402209  0.49458911  1.0000
  H   H1        1.0  0.6463062600000001  0.8458906499999999  0.98799558  1.0000
  H   H2        1.0  0.43217295999999994  0.85235032  0.08655718000000001  1.0000
  H   H3        1.0  0.5547591100000001  0.946584  0.4393712900000001  1.0000
  H   H4        1.0  0.15046818  0.34301587  0.51637389  1.0000
  H   H5        1.0  0.13128701000000007  0.5612352499999999  0.42170391000000007  1.0000
  H   H6        1.0  0.04917696  0.44413765  0.06268234  1.0000
  H   H7        1.0  0.18533594000000003  0.91518746  0.042840170000000004  1.0000
  H   H8        1.0  0.07282053999999999  0.81314287  0.46077493  1.0000
  H   H9        1.0  0.35088202999999996  0.15484877  0.00994081  1.0000
  H   H10       1.0  0.5666128499999998  0.14547563999999996  0.91493754  1.0000
  H   H11       1.0  0.44663764  0.05266409  0.55971149  1.0000
  H   H12       1.0  0.84848692  0.65968783  0.48579669  1.0000
  H   H13       1.0  0.86953145  0.44040708  0.57732243  1.0000
  H   H14       1.0  0.95167706  0.55478505  0.9382763800000001  1.0000
  H   H15       1.0  0.81740103  0.09031254  0.93950356  1.0000
  H   H16       1.0  0.9207361199999999  0.18539852999999995  0.55540603  1.0000
  C   C1        1.0  0.6935342399999999  0.92245314  0.28750341  1.0000
  C   C2        1.0  0.71955876  0.8932651399999999  0.16110084  1.0000
  C   C3        1.0  0.6265733799999998  0.86697869  0.08538247  1.0000
  C   C4        1.0  0.50869795  0.87098547  0.14021808  1.0000
  C   C5        1.0  0.4819595  0.90010542  0.2670025  1.0000
  C   C6        1.0  0.5742435500000002  0.9250942199999999  0.34238624  1.0000
  C   C7        1.0  0.35015786  0.9085819599999999  0.31699734  1.0000
  C   C8        1.0  0.08007527  0.30132046  0.21292552000000003  1.0000
  C   C9        1.0  0.10925119999999998  0.27283802  0.34008059  1.0000
  C   C10       1.0  0.12918279999999996  0.36507605  0.4185572  1.0000
  C   C11       1.0  0.11829692999999997  0.4850867599999999  0.36583683  1.0000
  C   C12       1.0  0.08891014000000001  0.51442416  0.23841631000000002  1.0000
  C   C13       1.0  0.07079065  0.42283540999999997  0.16018053000000002  1.0000
  C   C14       1.0  0.07369530999999996  0.64797726  0.19058539000000002  1.0000
  C   C15       1.0  0.30556566  0.07902277  0.70978658  1.0000
  C   C16       1.0  0.27905161  0.10901900999999997  0.8357335200000001  1.0000
  C   C17       1.0  0.37175198  0.13410614  0.9125569900000001  1.0000
  C   C18       1.0  0.49062837  0.12819967  0.8595028100000001  1.0000
  C   C19       1.0  0.51848696  0.09872299  0.73287008  1.0000
  C   C20       1.0  0.42608474999999996  0.07489815  0.6564346  1.0000
  C   C21       1.0  0.65130107  0.08828635999999997  0.68353199  1.0000
  C   C22       1.0  0.9192930799999999  0.69944528  0.78947336  1.0000
  C   C23       1.0  0.88891791  0.72840391  0.66286733  1.0000
  C   C24       1.0  0.86931453  0.63660482  0.58363932  1.0000
  C   C25       1.0  0.8813768299999999  0.51588022  0.63485048  1.0000
  C   C26       1.0  0.91102172  0.48549297  0.76215637  1.0000
  C   C27       1.0  0.92909619  0.57701255  0.84105198  1.0000
  C   C28       1.0  0.9268136600000001  0.3512301899999999  0.8098664200000001  1.0000
  N   N1        1.0  0.8428929199999999  0.89845933  0.13718951  1.0000
  N   N2        1.0  0.88890972  0.92981582  0.24116542000000002  1.0000
  N   N3        1.0  0.8028399399999999  0.9446077099999998  0.3342006  1.0000
  N   N4        1.0  0.0641836  0.19188229  0.16367533  1.0000
  N   N5        1.0  0.08235365  0.10359398  0.25625878  1.0000
  N   N6        1.0  0.11014554999999997  0.14819422  0.36196694  1.0000
  N   N7        1.0  0.15582768000000005  0.10454149999999998  0.8596652400000001  1.0000
  N   N8        1.0  0.10994704999999999  0.07186144000000001  0.75613215  1.0000
  N   N9        1.0  0.19608094  0.056766159999999996  0.66286191  1.0000
  N   N10       1.0  0.9371083699999999  0.8087217799999997  0.8383849400000001  1.0000
  N   N11       1.0  0.91959673  0.8968370199999999  0.74529134  1.0000
  N   N12       1.0  0.88873621  0.8526910799999999  0.64050326  1.0000
  O   O1        1.0  0.09688007000000001  0.9465289099999998  0.05939165000000001  1.0000
  O   O2        1.0  0.04748417000000005  0.9024879599999998  0.44277281000000007  1.0000
  O   O3        1.0  0.325666  0.9447674599999998  0.42845629000000013  1.0000
  O   O4        1.0  0.2716257000000001  0.8812357599999999  0.24438536  1.0000
  O   O5        1.0  0.04127150999999999  0.67436503  0.07705202  1.0000
  O   O6        1.0  0.09255230000000005  0.7259140799999998  0.26702339  1.0000
  O   O7        1.0  0.90666378  0.057596089999999975  0.92724164  1.0000
  O   O8        1.0  0.9478346799999999  0.09543802  0.57036187  1.0000
  O   O9        1.0  0.67576791  0.055639089999999995  0.57141981  1.0000
  O   O10       1.0  0.7308320400000001  0.11120092999999999  0.75860954  1.0000
  O   O11       1.0  0.9582460199999999  0.3247002299999999  0.92319848  1.0000
  O   O12       1.0  0.9089166499999999  0.27278559  0.73254848  1.0000
