data_image0
_chemical_formula_structural       Co6H16C28N12O12
_chemical_formula_sum              "Co6 H16 C28 N12 O12"
_cell_length_a       10.69446474
_cell_length_b       10.91077079
_cell_length_c       10.73290461
_cell_angle_alpha    89.49365984999999
_cell_angle_beta     92.16431694
_cell_angle_gamma    60.96843147

_symmetry_space_group_name_H-M    'P 1'
_symmetry_Int_Tables_number       1

loop_
  _symmetry_equiv_pos_as_xyz
  'x,y,z'

loop_
  _atom_site_type_symbol
  _atom_site_label
  _atom_site_symmetry_multiplicity
  _atom_site_fract_x
  _atom_site_fract_y
  _atom_site_fract_z
  _atom_site_occupancy
  Co  Co1       1.0  0.08425120999999995  0.9083409000000001  0.25183366  1.0000
  Co  Co2       1.0  0.9845886299999999  0.8515631100000001  0.0038333200000000003  1.0000
  Co  Co3       1.0  0.8374606500000001  0.00838462  0.49640249000000003  1.0000
  Co  Co4       1.0  0.91574857  0.09165923999999999  0.7481662800000001  1.0000
  Co  Co5       1.0  0.015411370000000008  0.14843691000000003  0.9961668100000002  1.0000
  Co  Co6       1.0  0.16253953  0.99161526  0.50359737  1.0000
  H   H1        1.0  0.21545067  0.86153189  0.06398143  1.0000
  H   H2        1.0  0.11500870999999989  0.7865419400000002  0.45221369  1.0000
  H   H3        1.0  0.47393888999999995  0.79266981  0.09261587000000002  1.0000
  H   H4        1.0  0.6604706499999999  0.8230983500000002  0.9852390700000002  1.0000
  H   H5        1.0  0.56840968  0.93377345  0.44018044000000006  1.0000
  H   H6        1.0  0.16107804  0.32503936999999994  0.5266256900000001  1.0000
  H   H7        1.0  0.16376381000000004  0.53103598  0.42726407000000005  1.0000
  H   H8        1.0  0.06401137999999994  0.4274801000000001  0.06221013  1.0000
  H   H9        1.0  0.78454914  0.13846822  0.9360186400000002  1.0000
  H   H10       1.0  0.88499125  0.21345824  0.54778623  1.0000
  H   H11       1.0  0.5260611  0.20733019  0.90738413  1.0000
  H   H12       1.0  0.33952934  0.17690165000000002  0.014760930000000004  1.0000
  H   H13       1.0  0.43159032  0.06622656000000002  0.55981956  1.0000
  H   H14       1.0  0.8389219499999998  0.6749606400000002  0.4733743000000001  1.0000
  H   H15       1.0  0.8362361899999999  0.46896403000000003  0.57273593  1.0000
  H   H16       1.0  0.93598861  0.57251991  0.9377898600000002  1.0000
  C   C1        1.0  0.6941767999999999  0.9263868600000001  0.28267918000000003  1.0000
  C   C2        1.0  0.7194011999999997  0.8966076000000002  0.15465417  1.0000
  C   C3        1.0  0.5372008499999998  0.8313215300000002  0.14337242  1.0000
  C   C4        1.0  0.6406405899999996  0.8475354900000002  0.08322875  1.0000
  C   C5        1.0  0.50934681  0.86378769  0.27119586  1.0000
  C   C6        1.0  0.58842381  0.91061372  0.34235619000000006  1.0000
  C   C7        1.0  0.38569806999999995  0.8576576800000001  0.326618  1.0000
  C   C8        1.0  0.08221254999999998  0.290677  0.21776189  1.0000
  C   C9        1.0  0.10905354  0.26183142  0.34817921  1.0000
  C   C10       1.0  0.14023332  0.34695262  0.4265612200000001  1.0000
  C   C11       1.0  0.14173963999999997  0.4607731400000001  0.3706797100000001  1.0000
  C   C12       1.0  0.11368758999999998  0.4911586600000001  0.23998640000000004  1.0000
  C   C13       1.0  0.08517611999999991  0.4055726300000001  0.16196408  1.0000
  C   C14       1.0  0.10638818999999991  0.6227098400000001  0.18825418  1.0000
  C   C15       1.0  0.30582318  0.07361314  0.7173207800000001  1.0000
  C   C16       1.0  0.2805988  0.10339238000000002  0.84534583  1.0000
  C   C17       1.0  0.46279914000000005  0.16867848000000002  0.8566275900000002  1.0000
  C   C18       1.0  0.35935941999999993  0.15246451  0.91677127  1.0000
  C   C19       1.0  0.49065319  0.13621230000000004  0.72880411  1.0000
  C   C20       1.0  0.41157618999999995  0.08938628000000001  0.65764378  1.0000
  C   C21       1.0  0.61430182  0.14234223  0.6733819300000002  1.0000
  C   C22       1.0  0.9177874300000001  0.7093229900000001  0.7822380800000001  1.0000
  C   C23       1.0  0.89094643  0.73816854  0.65182083  1.0000
  C   C24       1.0  0.85976667  0.6530474  0.5734388  1.0000
  C   C25       1.0  0.85826036  0.5392268500000001  0.6293203100000001  1.0000
  C   C26       1.0  0.8863124100000002  0.50884135  0.7600135800000001  1.0000
  C   C27       1.0  0.91482388  0.59442738  0.8380359100000001  1.0000
  C   C28       1.0  0.8936118  0.37729018  0.81174578  1.0000
  N   N1        1.0  0.82946357  0.92057387  0.12669557  1.0000
  N   N2        1.0  0.8702561  0.9604465500000001  0.23105466000000005  1.0000
  N   N3        1.0  0.79123071  0.96600916  0.32644719  1.0000
  N   N4        1.0  0.056929329999999966  0.18830993000000004  0.16861757  1.0000
  N   N5        1.0  0.06687347999999997  0.10394115000000001  0.26370344  1.0000
  N   N6        1.0  0.09786418000000001  0.14449136000000004  0.37200868  1.0000
  N   N7        1.0  0.17053646  0.07942625  0.87330443  1.0000
  N   N8        1.0  0.12974439  0.03955349  0.76894531  1.0000
  N   N9        1.0  0.20876932999999998  0.03399081  0.6735527500000001  1.0000
  N   N10       1.0  0.9430706700000001  0.8116900399999999  0.8313824100000001  1.0000
  N   N11       1.0  0.9331263699999999  0.8960586900000002  0.73629651  1.0000
  N   N12       1.0  0.9021357899999998  0.8555085600000001  0.62799141  1.0000
  O   O1        1.0  0.11193899999999998  0.92118021  0.06472918  1.0000
  O   O2        1.0  0.0688303  0.88816079  0.44036806000000006  1.0000
  O   O3        1.0  0.36082756999999993  0.8920569  0.44096972000000006  1.0000
  O   O4        1.0  0.31012414  0.82437555  0.25554499  1.0000
  O   O5        1.0  0.07459326000000002  0.65226396  0.07125702000000002  1.0000
  O   O6        1.0  0.12822275999999996  0.6987978200000001  0.26508746  1.0000
  O   O7        1.0  0.88806119  0.07881964  0.9352713800000001  1.0000
  O   O8        1.0  0.9311698399999999  0.11183909000000002  0.5596316000000001  1.0000
  O   O9        1.0  0.63917231  0.10794314  0.55903032  1.0000
  O   O10       1.0  0.68987563  0.17562452  0.74445502  1.0000
  O   O11       1.0  0.9254068199999999  0.34773593000000014  0.9287429700000002  1.0000
  O   O12       1.0  0.87177733  0.30120232  0.7349126000000002  1.0000
