data_image0
_chemical_formula_structural       Ni4H96C64N48
_chemical_formula_sum              "Ni4 H96 C64 N48"
_cell_length_a       10.64629358
_cell_length_b       14.99708644
_cell_length_c       21.41154421
_cell_angle_alpha    90.00025709
_cell_angle_beta     91.93834399000002
_cell_angle_gamma    90.00049255000002

_symmetry_space_group_name_H-M    'P 1'
_symmetry_Int_Tables_number       1

loop_
  _symmetry_equiv_pos_as_xyz
  'x,y,z'

loop_
  _atom_site_type_symbol
  _atom_site_label
  _atom_site_symmetry_multiplicity
  _atom_site_fract_x
  _atom_site_fract_y
  _atom_site_fract_z
  _atom_site_occupancy
  Ni  Ni1       1.0  0.90739006  0.23674144  0.69955857  1.0000
  Ni  Ni2       1.0  0.59261079  0.73674093  0.8004394900000001  1.0000
  Ni  Ni3       1.0  0.09261059000000002  0.7632581599999998  0.30044109  1.0000
  Ni  Ni4       1.0  0.40738926000000003  0.26325658  0.1995597  1.0000
  H   H1        1.0  0.90604995  0.21167785999999994  0.54623202  1.0000
  H   H2        1.0  0.71997795  0.12117282  0.7838943100000001  1.0000
  H   H3        1.0  0.40235388  0.8875847599999998  0.84386702  1.0000
  H   H4        1.0  0.4164035  0.07210946  0.87764233  1.0000
  H   H5        1.0  0.5454463100000001  0.05165261  0.8307861300000001  1.0000
  H   H6        1.0  0.45553992  0.23574226  0.87462965  1.0000
  H   H7        1.0  0.5809414  0.17265839999999993  0.90961658  1.0000
  H   H8        1.0  0.89643801  0.017403679999999994  0.67950104  1.0000
  H   H9        1.0  0.64001897  0.21985373  0.62693867  1.0000
  H   H10       1.0  0.4670045400000001  0.11814615999999999  0.57582282  1.0000
  H   H11       1.0  0.46498897  0.009485329999999997  0.6077444  1.0000
  H   H12       1.0  0.17897259  0.12318239  0.45932645  1.0000
  H   H13       1.0  0.015575660000000007  0.14346508  0.45273985  1.0000
  H   H14       1.0  0.51796393  0.82443852  0.66331738  1.0000
  H   H15       1.0  0.06987372  0.98270888  0.43947768  1.0000
  H   H16       1.0  0.13989656  0.9800626799999997  0.51544215  1.0000
  H   H17       1.0  0.75154211  0.39949671  0.7706146200000001  1.0000
  H   H18       1.0  0.62522582  0.96372039  0.52700491  1.0000
  H   H19       1.0  0.6047651400000001  0.06912025  0.4909132600000001  1.0000
  H   H20       1.0  0.44135391000000007  0.1272704  0.73988392  1.0000
  H   H21       1.0  0.3234696  0.17044017  0.78749534  1.0000
  H   H22       1.0  0.20612288  0.19122784999999995  0.67780751  1.0000
  H   H23       1.0  0.24333877  0.01745043  0.8075105899999999  1.0000
  H   H24       1.0  0.23809367000000004  0.04440649  0.72659013  1.0000
  H   H25       1.0  0.59394601  0.71167693  0.95376691  1.0000
  H   H26       1.0  0.78002238  0.6211729999999998  0.71610543  1.0000
  H   H27       1.0  0.09764752000000002  0.38758673  0.65612742  1.0000
  H   H28       1.0  0.08360127  0.57210533  0.62235176  1.0000
  H   H29       1.0  0.95455159  0.5516512099999998  0.66921299  1.0000
  H   H30       1.0  0.04445969  0.73574197  0.62536967  1.0000
  H   H31       1.0  0.9190576900000001  0.6726569399999998  0.59038204  1.0000
  H   H32       1.0  0.60356219  0.51740393  0.8204986500000001  1.0000
  H   H33       1.0  0.85997958  0.7198519599999997  0.8730589699999999  1.0000
  H   H34       1.0  0.03299579  0.6181436099999997  0.92417589  1.0000
  H   H35       1.0  0.03501275  0.50948468  0.89225576  1.0000
  H   H36       1.0  0.32103257  0.6231785199999997  0.04067301  1.0000
  H   H37       1.0  0.48442471000000004  0.64346393  0.04726082  1.0000
  H   H38       1.0  0.98203615  0.3244396499999999  0.83668067  1.0000
  H   H39       1.0  0.43012580000000006  0.4827071299999999  0.06052235  1.0000
  H   H40       1.0  0.36010307  0.4800636899999999  0.98455761  1.0000
  H   H41       1.0  0.74845723  0.8994970099999998  0.72938511  1.0000
  H   H42       1.0  0.87477415  0.4637227499999999  0.97299513  1.0000
  H   H43       1.0  0.8952333700000001  0.56911795  0.00908678  1.0000
  H   H44       1.0  0.05864523  0.62727082  0.76011726  1.0000
  H   H45       1.0  0.17653228  0.67044006  0.71250435  1.0000
  H   H46       1.0  0.29387863000000003  0.69122684  0.8221917600000002  1.0000
  H   H47       1.0  0.25665996  0.51745029  0.69248791  1.0000
  H   H48       1.0  0.26190658000000006  0.5444058299999998  0.7734102200000001  1.0000
  H   H49       1.0  0.09395104  0.7883210299999998  0.45376791  1.0000
  H   H50       1.0  0.28002114  0.8788288799999998  0.21610531  1.0000
  H   H51       1.0  0.59764469  0.11241437  0.15613168  1.0000
  H   H52       1.0  0.5835941  0.9278909  0.12235896  1.0000
  H   H53       1.0  0.45455255000000006  0.94834772  0.16921312  1.0000
  H   H54       1.0  0.54445871  0.7642573699999998  0.1253705  1.0000
  H   H55       1.0  0.41905807  0.8273424299999997  0.09038391  1.0000
  H   H56       1.0  0.10356253  0.9825967299999998  0.32049892  1.0000
  H   H57       1.0  0.35998091  0.7801437899999998  0.37306148  1.0000
  H   H58       1.0  0.5329950100000002  0.88185372  0.42417665  1.0000
  H   H59       1.0  0.53501103  0.99051427  0.39225581  1.0000
  H   H60       1.0  0.82102834  0.87681959  0.54067298  1.0000
  H   H61       1.0  0.98442613  0.8565351499999998  0.54726029  1.0000
  H   H62       1.0  0.48203542000000005  0.175563  0.33668335  1.0000
  H   H63       1.0  0.93012634  0.01729165  0.56052244  1.0000
  H   H64       1.0  0.86010345  0.01993666  0.48455813000000003  1.0000
  H   H65       1.0  0.24845876  0.60050274  0.22938642  1.0000
  H   H66       1.0  0.37477471  0.03627984999999999  0.47299512  1.0000
  H   H67       1.0  0.39523377  0.93087915  0.509087  1.0000
  H   H68       1.0  0.55864581  0.8727294  0.26011584  1.0000
  H   H69       1.0  0.67652984  0.8295604599999998  0.21250526  1.0000
  H   H70       1.0  0.79387785  0.8087724199999999  0.32219243  1.0000
  H   H71       1.0  0.7566607800000001  0.98254975  0.19249034  1.0000
  H   H72       1.0  0.76190611  0.95559379  0.27340907  1.0000
  H   H73       1.0  0.40605121  0.2883233  0.04623314  1.0000
  H   H74       1.0  0.21998  0.37883421  0.28389574  1.0000
  H   H75       1.0  0.90235611  0.6124133599999998  0.34386852  1.0000
  H   H76       1.0  0.91640166  0.42789192999999986  0.3776464  1.0000
  H   H77       1.0  0.04545121000000001  0.4483489799999999  0.33078787000000004  1.0000
  H   H78       1.0  0.9555405  0.26425732  0.37463052  1.0000
  H   H79       1.0  0.08095995999999998  0.32734887  0.40962744  1.0000
  H   H80       1.0  0.39643773  0.48259602  0.17950227  1.0000
  H   H81       1.0  0.14001957999999998  0.28014654999999994  0.12694026  1.0000
  H   H82       1.0  0.9670043200000001  0.3818559199999999  0.07582374  1.0000
  H   H83       1.0  0.96498715  0.4905144499999999  0.10774431  1.0000
  H   H84       1.0  0.6789675800000001  0.37682109  0.9593273  1.0000
  H   H85       1.0  0.51557503  0.35653621  0.95273938  1.0000
  H   H86       1.0  0.01796421  0.6755600499999999  0.16331969  1.0000
  H   H87       1.0  0.56987393  0.51729242  0.93947766  1.0000
  H   H88       1.0  0.63989694  0.51993628  0.01544241  1.0000
  H   H89       1.0  0.25154255  0.10050207999999997  0.27061448  1.0000
  H   H90       1.0  0.12522615  0.53627758  0.02700492  1.0000
  H   H91       1.0  0.10476606000000002  0.43088178  0.9909131900000001  1.0000
  H   H92       1.0  0.94135426  0.3727291899999999  0.23988299  1.0000
  H   H93       1.0  0.8234683500000001  0.32956133  0.2874951  1.0000
  H   H94       1.0  0.70612109  0.3087730099999999  0.17780796  1.0000
  H   H95       1.0  0.74333783  0.48254957999999987  0.30751068  1.0000
  H   H96       1.0  0.73809243  0.4555950499999999  0.22659037999999998  1.0000
  C   C1        1.0  0.99550219  0.19699252999999997  0.56963798  1.0000
  C   C2        1.0  0.7048451100000002  0.19213531  0.7886749000000001  1.0000
  C   C3        1.0  0.41677439  0.88829136  0.79403261  1.0000
  C   C4        1.0  0.47083995  0.10056313  0.8394355000000001  1.0000
  C   C5        1.0  0.52892668  0.18671005999999998  0.86500617  1.0000
  C   C6        1.0  0.8136058300000001  0.05200541999999998  0.66110332  1.0000
  C   C7        1.0  0.68519927  0.15595496  0.63519658  1.0000
  C   C8        1.0  0.52178076  0.05641077  0.58120581  1.0000
  C   C9        1.0  0.08937550000000001  0.11078786  0.4816694  1.0000
  C   C10       1.0  0.47356795000000007  0.8577857299999998  0.7017141  1.0000
  C   C11       1.0  0.06374245  0.01076971  0.48666218  1.0000
  C   C12       1.0  0.71816747  0.33364365  0.782515  1.0000
  C   C13       1.0  0.55704295  0.01769174  0.51827854  1.0000
  C   C14       1.0  0.3856334900000001  0.11257098  0.78101284  1.0000
  C   C15       1.0  0.14962932  0.18544069999999996  0.63489097  1.0000
  C   C16       1.0  0.30140897  0.03163677  0.7671237799999999  1.0000
  C   C17       1.0  0.50453203  0.69698989  0.9303572800000001  1.0000
  C   C18       1.0  0.7951575400000002  0.69214481  0.71132261  1.0000
  C   C19       1.0  0.08322197000000003  0.38829029999999987  0.70597919  1.0000
  C   C20       1.0  0.0291559  0.60056621  0.66056712  1.0000
  C   C21       1.0  0.9710801600000001  0.6867072499999999  0.63499264  1.0000
  C   C22       1.0  0.68638963  0.5520096999999998  0.83889575  1.0000
  C   C23       1.0  0.8147973900000001  0.65596694  0.8648049500000001  1.0000
  C   C24       1.0  0.9782061600000002  0.5564125399999997  0.9187925000000001  1.0000
  C   C25       1.0  0.41062115000000005  0.6107859499999998  0.01832598  1.0000
  C   C26       1.0  0.026431549999999998  0.35778244  0.7982858300000001  1.0000
  C   C27       1.0  0.43625953  0.51076851  0.01334129  1.0000
  C   C28       1.0  0.78183111  0.8336458  0.7174862400000002  1.0000
  C   C29       1.0  0.94296495  0.51769104  0.9817215000000001  1.0000
  C   C30       1.0  0.11436619  0.61257034  0.71898722  1.0000
  C   C31       1.0  0.35037146  0.6854441599999997  0.8651076200000001  1.0000
  C   C32       1.0  0.19859664  0.53163991  0.73287484  1.0000
  C   C33       1.0  0.004512419999999996  0.80301544  0.43035610999999996  1.0000
  C   C34       1.0  0.29515623  0.80786212  0.21132582  1.0000
  C   C35       1.0  0.58322539  0.11170914  0.20597649  1.0000
  C   C36       1.0  0.5291614  0.8994373699999998  0.16056376  1.0000
  C   C37       1.0  0.47107377000000006  0.8132900799999998  0.13499385  1.0000
  C   C38       1.0  0.18639589  0.94799644  0.33889769  1.0000
  C   C39       1.0  0.31480249  0.8440440899999998  0.3648031  1.0000
  C   C40       1.0  0.47821903000000004  0.9435896999999998  0.4187943800000001  1.0000
  C   C41       1.0  0.91062271  0.8892132999999999  0.51832996  1.0000
  C   C42       1.0  0.52643175  0.1422146  0.29828801  1.0000
  C   C43       1.0  0.93625784  0.98923032  0.51333845  1.0000
  C   C44       1.0  0.2818332800000001  0.66635217  0.21748501  1.0000
  C   C45       1.0  0.44295681  0.98230854  0.48172114  1.0000
  C   C46       1.0  0.61436709  0.8874296099999998  0.21898754000000004  1.0000
  C   C47       1.0  0.85037081  0.81455693  0.36510698  1.0000
  C   C48       1.0  0.69859535  0.9683605499999998  0.23287511  1.0000
  C   C49       1.0  0.49548603  0.30301748  0.06964631  1.0000
  C   C50       1.0  0.20483367  0.3078376799999999  0.28868395  1.0000
  C   C51       1.0  0.9167716  0.6117087499999999  0.29402007  1.0000
  C   C52       1.0  0.97084178  0.3994351299999999  0.33943285000000006  1.0000
  C   C53       1.0  0.02890487  0.31329292  0.36500196  1.0000
  C   C54       1.0  0.31361047  0.4479930599999999  0.16110406  1.0000
  C   C55       1.0  0.18520434  0.34403864  0.13519591  1.0000
  C   C56       1.0  0.021791110000000002  0.44358789999999987  0.08120807  1.0000
  C   C57       1.0  0.58937884  0.38921254  0.98167124  1.0000
  C   C58       1.0  0.9735668200000002  0.6422156599999997  0.20171448  1.0000
  C   C59       1.0  0.5637399  0.48923135  0.98666007  1.0000
  C   C60       1.0  0.21816145000000003  0.16634843  0.2825148  1.0000
  C   C61       1.0  0.05703614  0.4823087699999999  0.018279  1.0000
  C   C62       1.0  0.8856318900000001  0.3874303599999999  0.28101229  1.0000
  C   C63       1.0  0.64963132  0.31455451  0.13489538  1.0000
  C   C64       1.0  0.80140304  0.46835605  0.26712536  1.0000
  N   N1        1.0  0.09168982  0.15481106  0.54213518  1.0000
  N   N2        1.0  0.02961377  0.21725058  0.6289454  1.0000
  N   N3        1.0  0.77284295  0.25709449  0.76258568  1.0000
  N   N4        1.0  0.63488072  0.07621357  0.61853688  1.0000
  N   N5        1.0  0.61269304  0.22969077  0.82214437  1.0000
  N   N6        1.0  0.48282330000000007  0.82807365  0.7620306  1.0000
  N   N7        1.0  0.79921833  0.14237213  0.66241376  1.0000
  N   N8        1.0  0.40611789  0.9319821599999998  0.69422122  1.0000
  N   N9        1.0  0.37051228  0.95086462  0.7536462800000001  1.0000
  N   N10       1.0  0.6208433  0.32100336999999995  0.8191317800000001  1.0000
  N   N11       1.0  0.71566188  0.00886279  0.63499347  1.0000
  N   N12       1.0  0.19164123  0.14637836999999995  0.58365952  1.0000
  N   N13       1.0  0.40829129  0.65481654  0.9578879299999999  1.0000
  N   N14       1.0  0.47038192  0.71726177  0.8710532300000001  1.0000
  N   N15       1.0  0.72716031  0.7570894999999997  0.73741457  1.0000
  N   N16       1.0  0.8651383900000001  0.57620904  0.8814678400000001  1.0000
  N   N17       1.0  0.8872956900000001  0.7296912999999998  0.67785931  1.0000
  N   N18       1.0  0.017184879999999996  0.32808716  0.73796799  1.0000
  N   N19       1.0  0.7007742700000001  0.6423700899999998  0.83758303  1.0000
  N   N20       1.0  0.09388109  0.4319844699999999  0.80577809  1.0000
  N   N21       1.0  0.12947965  0.4508526999999999  0.74634979  1.0000
  N   N22       1.0  0.87916144  0.82099953  0.6808675  1.0000
  N   N23       1.0  0.78433991  0.50885368  0.86500719  1.0000
  N   N24       1.0  0.30834602000000005  0.64637028  0.9163338700000001  1.0000
  N   N25       1.0  0.90830493  0.8451798  0.45787373000000003  1.0000
  N   N26       1.0  0.9703841400000001  0.7827454299999997  0.37105791  1.0000
  N   N27       1.0  0.22715802000000002  0.74290976  0.23741285  1.0000
  N   N28       1.0  0.36511745  0.9237864299999998  0.38146229  1.0000
  N   N29       1.0  0.38730247  0.77030948  0.17785581  1.0000
  N   N30       1.0  0.51718252  0.17191526  0.23796465  1.0000
  N   N31       1.0  0.20077989  0.85762702  0.33758676  1.0000
  N   N32       1.0  0.59387856  0.06801573  0.30577554  1.0000
  N   N33       1.0  0.62948034  0.04914633  0.24635118  1.0000
  N   N34       1.0  0.37915659  0.6789973  0.18086698  1.0000
  N   N35       1.0  0.28433597000000005  0.9911368899999998  0.36500621  1.0000
  N   N36       1.0  0.80835088  0.8536267499999998  0.41633834  1.0000
  N   N37       1.0  0.59169795  0.34517516  0.04212072  1.0000
  N   N38       1.0  0.52961251  0.28274514  0.12894068  1.0000
  N   N39       1.0  0.27284031  0.24291958  0.26258544  1.0000
  N   N40       1.0  0.13486562  0.42378737  0.11853462000000001  1.0000
  N   N41       1.0  0.11272194  0.27030442  0.32213019  1.0000
  N   N42       1.0  0.98281827  0.67191586  0.26203298  1.0000
  N   N43       1.0  0.29921755  0.35762828  0.1624124  1.0000
  N   N44       1.0  0.9061183000000002  0.56801734  0.1942242  1.0000
  N   N45       1.0  0.8705248000000001  0.54914906  0.25364855  1.0000
  N   N46       1.0  0.120846  0.17900947  0.31913313  1.0000
  N   N47       1.0  0.21566278  0.4911447499999999  0.13499153  1.0000
  N   N48       1.0  0.6916501000000002  0.3536312  0.08366213  1.0000
