data_image0
_chemical_formula_structural       Ba2V2H8C16N2O18
_chemical_formula_sum              "Ba2 V2 H8 C16 N2 O18"
_cell_length_a       7.219
_cell_length_b       10.795000000000002
_cell_length_c       11.662
_cell_angle_alpha    113.686
_cell_angle_beta     102.814
_cell_angle_gamma    95.069

_symmetry_space_group_name_H-M    'P 1'
_symmetry_Int_Tables_number       1

loop_
  _symmetry_equiv_pos_as_xyz
  'x,y,z'

loop_
  _atom_site_type_symbol
  _atom_site_label
  _atom_site_symmetry_multiplicity
  _atom_site_fract_x
  _atom_site_fract_y
  _atom_site_fract_z
  _atom_site_occupancy
  Ba  Ba1       1.0  0.54785  0.22704999999999995  0.61578  1.0000
  Ba  Ba2       1.0  0.45215  0.77295  0.38422  1.0000
  V   V1        1.0  0.8698400000000002  0.7498  0.17464  1.0000
  V   V2        1.0  0.13016000000000005  0.25019999999999987  0.82536  1.0000
  H   H1        1.0  0.5960000000000002  0.73  0.7315  1.0000
  H   H2        1.0  0.76  0.12149999999999998  0.024  1.0000
  H   H3        1.0  0.15000000000000002  0.9769999999999999  0.4245999999999999  1.0000
  H   H4        1.0  0.18699999999999997  0.953  0.545  1.0000
  H   H5        1.0  0.40400000000000014  0.27  0.2685  1.0000
  H   H6        1.0  0.24000000000000005  0.8785  0.976  1.0000
  H   H7        1.0  0.85  0.022999999999999986  0.5754  1.0000
  H   H8        1.0  0.8130000000000001  0.04700000000000001  0.455  1.0000
  C   C1        1.0  0.7063000000000004  0.5978000000000001  0.8941000000000001  1.0000
  C   C2        1.0  0.7133  0.7452  0.9144  1.0000
  C   C3        1.0  0.6521000000000001  0.7927  0.8216  1.0000
  C   C4        1.0  0.6646  0.9346  0.8629999999999999  1.0000
  C   C5        1.0  0.5907000000000002  0.9888  0.7617  1.0000
  C   C6        1.0  0.7417  0.02389999999999994  0.9951  1.0000
  C   C7        1.0  0.8032000000000002  0.9678  0.0817  1.0000
  C   C8        1.0  0.8879  0.0419  0.2276  1.0000
  C   C9        1.0  0.2937  0.4022  0.1059  1.0000
  C   C10       1.0  0.2867  0.2547999999999999  0.0856  1.0000
  C   C11       1.0  0.3479000000000001  0.2073  0.1784  1.0000
  C   C12       1.0  0.3354  0.0654  0.137  1.0000
  C   C13       1.0  0.4093000000000001  0.011200000000000009  0.2383  1.0000
  C   C14       1.0  0.2583  0.9761  0.0049  1.0000
  C   C15       1.0  0.1968  0.032199999999999965  0.9183  1.0000
  C   C16       1.0  0.11210000000000003  0.9581  0.7724  1.0000
  N   N1        1.0  0.7882000000000002  0.8316  0.0398  1.0000
  N   N2        1.0  0.2118  0.16840000000000005  0.9602  1.0000
  O   O1        1.0  0.6423000000000002  0.5013  0.7868  1.0000
  O   O2        1.0  0.7716000000000002  0.5878  0.0031000000000000003  1.0000
  O   O3        1.0  0.9254000000000002  0.9577  0.2806  1.0000
  O   O4        1.0  0.9150000000000001  0.1666  0.2872  1.0000
  O   O5        1.0  0.5674000000000002  0.9089999999999999  0.6474  1.0000
  O   O6        1.0  0.5601999999999998  0.1081  0.8022  1.0000
  O   O7        1.0  0.7404  0.7102  0.256  1.0000
  O   O8        1.0  0.08680000000000002  0.7272  0.2187  1.0000
  O   O9        1.0  0.24210000000000012  0.9897000000000002  0.4987  1.0000
  O   O10       1.0  0.35770000000000013  0.4987  0.2132  1.0000
  O   O11       1.0  0.22839999999999996  0.4121999999999999  0.9968999999999999  1.0000
  O   O12       1.0  0.07460000000000001  0.042299999999999977  0.7194  1.0000
  O   O13       1.0  0.08499999999999999  0.8334  0.7128  1.0000
  O   O14       1.0  0.4326000000000002  0.091  0.3526  1.0000
  O   O15       1.0  0.4398  0.8918999999999999  0.19779999999999998  1.0000
  O   O16       1.0  0.2596  0.2898  0.744  1.0000
  O   O17       1.0  0.9132000000000001  0.27280000000000004  0.7813000000000001  1.0000
  O   O18       1.0  0.7579000000000002  0.010300000000000016  0.5013  1.0000
