data_image0
_chemical_formula_structural       COCOCOCOCOCOCOCOCOCOCOCOCOCOCOCOCOCOCOCOCOCOCOCOIn3CHCHCHCHCHCH
_chemical_formula_sum              "C30 O24 In3 H6"
_cell_length_a       9.038
_cell_length_b       9.038
_cell_length_c       18.975
_cell_angle_alpha    90.0
_cell_angle_beta     90.0
_cell_angle_gamma    119.99999999999999

_space_group_name_H-M_alt    "P 1"
_space_group_IT_number       1

loop_
  _space_group_symop_operation_xyz
  'x, y, z'

loop_
  _atom_site_type_symbol
  _atom_site_label
  _atom_site_symmetry_multiplicity
  _atom_site_fract_x
  _atom_site_fract_y
  _atom_site_fract_z
  _atom_site_occupancy
  C   C1        1.0  0.7692  0.9984  0.07780000000000001  1.0000
  O   O1        1.0  0.8535  0.112  0.1252  1.0000
  C   C2        1.0  0.6310999999999998  0.9968999999999999  0.0381  1.0000
  O   O2        1.0  0.8136999999999998  0.8876999999999998  0.06950000000000002  1.0000
  C   C3        1.0  0.0015999999999999196  0.7707999999999998  0.74447  1.0000
  O   O3        1.0  0.8879999999999999  0.7415  0.79187  1.0000
  C   C4        1.0  0.003099999999999973  0.6342  0.70477  1.0000
  O   O4        1.0  0.11230000000000001  0.926  0.73617  1.0000
  C   C5        1.0  0.22919999999999996  0.2308  0.41113  1.0000
  O   O5        1.0  0.2585  0.14649999999999994  0.45853  1.0000
  C   C6        1.0  0.36579999999999996  0.3689  0.37143  1.0000
  O   O6        1.0  0.07399999999999997  0.18629999999999994  0.40283  1.0000
  C   C7        1.0  0.23079999999999998  0.0016  0.07780000000000001  1.0000
  O   O7        1.0  0.14649999999999994  0.8879999999999998  0.1252  1.0000
  C   C8        1.0  0.3689  0.0031  0.0381  1.0000
  O   O8        1.0  0.18629999999999997  0.1123  0.06950000000000002  1.0000
  C   C9        1.0  0.9984  0.22919999999999993  0.74447  1.0000
  O   O9        1.0  0.112  0.2585  0.79187  1.0000
  C   C10       1.0  0.9968999999999999  0.3658  0.70477  1.0000
  O   O10       1.0  0.8877  0.074  0.73617  1.0000
  C   C11       1.0  0.7708  0.7692  0.41113  1.0000
  O   O11       1.0  0.7415  0.8535  0.45853  1.0000
  C   C12       1.0  0.6342  0.6311  0.37143  1.0000
  O   O12       1.0  0.926  0.8136999999999998  0.40283  1.0000
  C   C13       1.0  0.9984  0.7692  0.58887  1.0000
  O   O13       1.0  0.11199999999999997  0.8535  0.54147  1.0000
  C   C14       1.0  0.9968999999999999  0.6311  0.62857  1.0000
  O   O14       1.0  0.8877  0.8136999999999998  0.59717  1.0000
  C   C15       1.0  0.7708  0.0016  0.9222000000000001  1.0000
  O   O15       1.0  0.7414999999999998  0.8879999999999998  0.8748000000000002  1.0000
  C   C16       1.0  0.6342  0.0031  0.9619000000000001  1.0000
  O   O16       1.0  0.926  0.1123  0.9305  1.0000
  C   C17       1.0  0.23079999999999998  0.22919999999999993  0.25553  1.0000
  O   O17       1.0  0.14649999999999996  0.2585  0.20813  1.0000
  C   C18       1.0  0.3689  0.3658  0.29523  1.0000
  O   O18       1.0  0.1863  0.074  0.26383000000000006  1.0000
  C   C19       1.0  0.0016000000000000179  0.2308  0.58887  1.0000
  O   O19       1.0  0.8879999999999999  0.14649999999999994  0.54147  1.0000
  C   C20       1.0  0.0030999999999999977  0.3689  0.62857  1.0000
  O   O20       1.0  0.11229999999999994  0.18629999999999994  0.59717  1.0000
  C   C21       1.0  0.22919999999999996  0.9984  0.9222000000000001  1.0000
  O   O21       1.0  0.2585  0.112  0.8748000000000002  1.0000
  C   C22       1.0  0.36579999999999996  0.9968999999999999  0.9619000000000001  1.0000
  O   O22       1.0  0.0739999999999999  0.8876999999999998  0.9305  1.0000
  C   C23       1.0  0.7691999999999999  0.7707999999999998  0.25553  1.0000
  O   O23       1.0  0.8535  0.7415  0.20813  1.0000
  C   C24       1.0  0.6311  0.6342  0.29523  1.0000
  O   O24       1.0  0.8136999999999998  0.926  0.26383000000000006  1.0000
  In  In1       1.0  0.0  0.0  0.16667  1.0000
  In  In2       1.0  0.0  0.0  0.83333  1.0000
  In  In3       1.0  0.0  0.0  0.5  1.0000
  C   C25       1.0  0.5  0.0  0.0715  1.0000
  H   H1        1.0  0.5  0.0  0.1215  1.0000
  C   C26       1.0  0.0  0.4999999999999999  0.73817  1.0000
  H   H2        1.0  0.0  0.4999999999999999  0.78817  1.0000
  C   C27       1.0  0.5  0.4999999999999999  0.40483000000000013  1.0000
  H   H3        1.0  0.5  0.4999999999999999  0.45483000000000007  1.0000
  C   C28       1.0  0.0  0.4999999999999999  0.59517  1.0000
  H   H4        1.0  0.0  0.4999999999999999  0.54517  1.0000
  C   C29       1.0  0.5  0.0  0.9285  1.0000
  H   H5        1.0  0.5  0.0  0.8785000000000002  1.0000
  C   C30       1.0  0.5  0.4999999999999999  0.26183  1.0000
  H   H6        1.0  0.5  0.4999999999999999  0.21183  1.0000
