data_image0
_chemical_formula_structural       Cu12H120C264O48
_chemical_formula_sum              "Cu12 H120 C264 O48"
_cell_length_a       17.1712905
_cell_length_b       38.91800064000001
_cell_length_c       25.69388102
_cell_angle_alpha    89.99953208
_cell_angle_beta     100.91473641
_cell_angle_gamma    89.99947951

_symmetry_space_group_name_H-M    'P 1'
_symmetry_Int_Tables_number       1

loop_
  _symmetry_equiv_pos_as_xyz
  'x,y,z'

loop_
  _atom_site_type_symbol
  _atom_site_label
  _atom_site_symmetry_multiplicity
  _atom_site_fract_x
  _atom_site_fract_y
  _atom_site_fract_z
  _atom_site_occupancy
  Cu  Cu1       1.0  0.94565122  0.26567932000000005  0.20798272  1.0000
  Cu  Cu2       1.0  0.06685327  0.25315964  0.27094827  1.0000
  Cu  Cu3       1.0  0.005895900000000017  0.9688419000000001  0.49971061000000006  1.0000
  Cu  Cu4       1.0  0.05434882  0.76567817  0.29201554  1.0000
  Cu  Cu5       1.0  0.9331473599999999  0.7531594400000001  0.22905229000000005  1.0000
  Cu  Cu6       1.0  0.9941035499999998  0.46883711000000006  0.00029042  1.0000
  Cu  Cu7       1.0  0.05434859  0.73432023  0.79201576  1.0000
  Cu  Cu8       1.0  0.9331501200000001  0.7468403600000002  0.7290543800000001  1.0000
  Cu  Cu9       1.0  0.9941037100000001  0.031162870000000002  0.50029027  1.0000
  Cu  Cu10      1.0  0.94563367  0.23432044000000005  0.70797533  1.0000
  Cu  Cu11      1.0  0.06686950000000005  0.24684209000000001  0.7709577300000001  1.0000
  Cu  Cu12      1.0  0.005893650000000035  0.5311581600000002  0.9997097400000001  1.0000
  H   H1        1.0  0.22331737000000004  0.06477132  0.47504095  1.0000
  H   H2        1.0  0.35834925  0.06931873  0.4524567  1.0000
  H   H3        1.0  0.37492602  0.9587397200000001  0.45127621  1.0000
  H   H4        1.0  0.23985992  0.95466212  0.47377287  1.0000
  H   H5        1.0  0.59752283  0.9596198200000001  0.41059024  1.0000
  H   H6        1.0  0.7983822400000001  0.01156166  0.36822745  1.0000
  H   H7        1.0  0.60060184  0.07034261000000001  0.40129153  1.0000
  H   H8        1.0  0.70364837  0.8765883400000001  0.30314723  1.0000
  H   H9        1.0  0.77055603  0.82532077  0.2728406500000001  1.0000
  H   H10       1.0  0.9859729500000001  0.8512084  0.38029352000000005  1.0000
  H   H11       1.0  0.9197005100000001  0.90274197  0.41079907  1.0000
  H   H12       1.0  0.9312788  0.11446699000000003  0.38531903  1.0000
  H   H13       1.0  6.382000000000733e-05  0.16408978  0.35177094  1.0000
  H   H14       1.0  0.7771878299999999  0.20015035  0.2635523  1.0000
  H   H15       1.0  0.70762319  0.15087383  0.29736265  1.0000
  H   H16       1.0  0.06665715  0.9446595700000002  0.66466164  1.0000
  H   H17       1.0  0.09170092999999999  0.9441655600000001  0.76341712  1.0000
  H   H18       1.0  0.09067624000000005  0.05513514000000001  0.7640260200000001  1.0000
  H   H19       1.0  0.06480386000000002  0.055180320000000005  0.66527411  1.0000
  H   H20       1.0  0.10095689000000004  0.0576699  0.93113012  1.0000
  H   H21       1.0  0.10395189  0.0067319400000000005  0.08058055  1.0000
  H   H22       1.0  0.10203822  0.94682737  0.93913739  1.0000
  H   H23       1.0  0.9739921800000001  0.13968431  0.03358932  1.0000
  H   H24       1.0  0.95253439  0.19149287  0.08655616  1.0000
  H   H25       1.0  0.16667807  0.16930241  0.19775704  1.0000
  H   H26       1.0  0.1896422  0.11767667000000001  0.14469905  1.0000
  H   H27       1.0  0.96875488  0.87457609  0.04837791000000001  1.0000
  H   H28       1.0  0.94231212  0.8252510000000001  0.10506939  1.0000
  H   H29       1.0  0.15692759  0.8474534900000001  0.21573826  1.0000
  H   H30       1.0  0.18438107  0.8967554500000001  0.15934119  1.0000
  H   H31       1.0  0.77667853  0.56477588  0.024960690000000004  1.0000
  H   H32       1.0  0.64165018  0.56932081  0.04754456000000001  1.0000
  H   H33       1.0  0.6250782  0.45874188  0.04872254  1.0000
  H   H34       1.0  0.7601483400000001  0.45466596000000004  0.02622507  1.0000
  H   H35       1.0  0.40247922  0.45962694  0.08940753  1.0000
  H   H36       1.0  0.20161672  0.5115701700000002  0.13177012  1.0000
  H   H37       1.0  0.39939618  0.57034965  0.09870898000000003  1.0000
  H   H38       1.0  0.29633979  0.37659168  0.19684598  1.0000
  H   H39       1.0  0.22945315  0.32532442000000006  0.22715954  1.0000
  H   H40       1.0  0.014022410000000013  0.35121473  0.11969831000000002  1.0000
  H   H41       1.0  0.08030599  0.4027442  0.08920267  1.0000
  H   H42       1.0  0.06871349  0.6144671300000001  0.11467779000000002  1.0000
  H   H43       1.0  0.9999385600000001  0.66409422  0.14823508  1.0000
  H   H44       1.0  0.22280075000000002  0.70015134  0.23644620000000005  1.0000
  H   H45       1.0  0.29238648  0.6508758700000002  0.20264077000000003  1.0000
  H   H46       1.0  0.9333446500000001  0.44466197000000013  0.8353450100000003  1.0000
  H   H47       1.0  0.90830051  0.44416737  0.7365864400000002  1.0000
  H   H48       1.0  0.9093251  0.55513658  0.73597486  1.0000
  H   H49       1.0  0.9351963700000001  0.55518309  0.8347230500000001  1.0000
  H   H50       1.0  0.8990433700000002  0.5576763600000001  0.56886791  1.0000
  H   H51       1.0  0.89604779  0.50673953  0.41941995  1.0000
  H   H52       1.0  0.89796126  0.44683379000000006  0.560866  1.0000
  H   H53       1.0  0.026016200000000027  0.63968556  0.46641436  1.0000
  H   H54       1.0  0.047458179999999975  0.69149425  0.41343494  1.0000
  H   H55       1.0  0.83332929  0.66930621  0.3022409  1.0000
  H   H56       1.0  0.8103485600000001  0.6176766  0.3552962  1.0000
  H   H57       1.0  0.031235300000000004  0.37457843000000013  0.45161671  1.0000
  H   H58       1.0  0.05769417000000003  0.32525377000000005  0.39493708000000005  1.0000
  H   H59       1.0  0.84306361  0.34745916  0.28426104  1.0000
  H   H60       1.0  0.81562714  0.3967570600000001  0.34066297  1.0000
  H   H61       1.0  0.77667826  0.9352241200000001  0.52495896  1.0000
  H   H62       1.0  0.64164939  0.93067948  0.54754322  1.0000
  H   H63       1.0  0.6250757700000001  0.04125838  0.54872302  1.0000
  H   H64       1.0  0.76014664  0.04533376  0.5262253  1.0000
  H   H65       1.0  0.40248177  0.04037402  0.58940768  1.0000
  H   H66       1.0  0.20161902  0.9884316000000002  0.63177121  1.0000
  H   H67       1.0  0.39939882  0.92965165  0.59870796  1.0000
  H   H68       1.0  0.29634051  0.12341510000000001  0.69685204  1.0000
  H   H69       1.0  0.22944666000000002  0.17468078  0.72716246  1.0000
  H   H70       1.0  0.014018439999999995  0.14879137  0.61970413  1.0000
  H   H71       1.0  0.08029818000000004  0.0972626  0.5892055800000001  1.0000
  H   H72       1.0  0.06871211  0.8855350000000001  0.6146737  1.0000
  H   H73       1.0  0.9999423900000001  0.8359070800000001  0.6482327100000002  1.0000
  H   H74       1.0  0.22280269000000003  0.79984881  0.7364450800000001  1.0000
  H   H75       1.0  0.29239151000000013  0.84912376  0.7026409300000003  1.0000
  H   H76       1.0  0.9333434599999999  0.05533633000000002  0.3353430700000001  1.0000
  H   H77       1.0  0.90829898  0.05583171  0.23658467  1.0000
  H   H78       1.0  0.90932454  0.9448623300000001  0.23597529000000003  1.0000
  H   H79       1.0  0.9351962399999999  0.94481519  0.33472349  1.0000
  H   H80       1.0  0.8990433  0.9423245000000001  0.06886911000000001  1.0000
  H   H81       1.0  0.8960471500000001  0.99326119  0.91942  1.0000
  H   H82       1.0  0.89796027  0.05316699  0.060865490000000015  1.0000
  H   H83       1.0  0.026018140000000092  0.8603140800000002  0.9664198300000002  1.0000
  H   H84       1.0  0.04745834000000008  0.80850561  0.9134392700000002  1.0000
  H   H85       1.0  0.8333304200000001  0.83069511  0.80224603  1.0000
  H   H86       1.0  0.8103442199999998  0.8823250200000002  0.8552985  1.0000
  H   H87       1.0  0.03124239  0.12542698  0.95161412  1.0000
  H   H88       1.0  0.05769416999999996  0.17475027000000004  0.89493046  1.0000
  H   H89       1.0  0.84306774  0.15254655  0.78425589  1.0000
  H   H90       1.0  0.8156257500000001  0.10324884000000001  0.8406553300000001  1.0000
  H   H91       1.0  0.22331509  0.43522873  0.97504129  1.0000
  H   H92       1.0  0.35834717000000005  0.43068094  0.9524568800000001  1.0000
  H   H93       1.0  0.37492248  0.54125984  0.95127796  1.0000
  H   H94       1.0  0.23985624000000003  0.54533792  0.97377459  1.0000
  H   H95       1.0  0.59752136  0.54037863  0.9105929400000001  1.0000
  H   H96       1.0  0.7983828900000001  0.4884365500000001  0.8682313200000001  1.0000
  H   H97       1.0  0.60060003  0.42965638  0.90129289  1.0000
  H   H98       1.0  0.70364624  0.6234100300000001  0.8031495000000002  1.0000
  H   H99       1.0  0.77055598  0.6746769500000002  0.7728440000000001  1.0000
  H   H100      1.0  0.98597135  0.6487888700000001  0.8802971400000001  1.0000
  H   H101      1.0  0.9197042400000001  0.59725453  0.9108057500000001  1.0000
  H   H102      1.0  0.9312896100000002  0.3855282  0.8853174500000002  1.0000
  H   H103      1.0  6.990000000001525e-05  0.33590567000000005  0.8517664800000001  1.0000
  H   H104      1.0  0.77719713  0.2998467  0.76355063  1.0000
  H   H105      1.0  0.70762543  0.34912126  0.79735866  1.0000
  H   H106      1.0  0.06665523000000001  0.5553422900000001  0.16465727000000002  1.0000
  H   H107      1.0  0.09169931  0.55583566  0.26341195  1.0000
  H   H108      1.0  0.09067579  0.44486608  0.26402374  1.0000
  H   H109      1.0  0.06480343000000002  0.44482088000000003  0.16527283000000006  1.0000
  H   H110      1.0  0.10095643999999997  0.44232997  0.43112845  1.0000
  H   H111      1.0  0.10395280000000003  0.4932672  0.58057944  1.0000
  H   H112      1.0  0.10203839  0.55317227  0.43913542  1.0000
  H   H113      1.0  0.9739857899999999  0.36031088  0.53359256  1.0000
  H   H114      1.0  0.9525346  0.30850405  0.58656372  1.0000
  H   H115      1.0  0.16667444  0.33069251  0.6977632  1.0000
  H   H116      1.0  0.18964456  0.38231776000000006  0.64470709  1.0000
  H   H117      1.0  0.96875362  0.62542369  0.5483739600000002  1.0000
  H   H118      1.0  0.94231292  0.6747480700000001  0.60506754  1.0000
  H   H119      1.0  0.15692770000000006  0.65254399  0.7157349300000001  1.0000
  H   H120      1.0  0.18438653  0.60324176  0.65933981  1.0000
  C   C1        1.0  0.14228529  0.00656264  0.48664397000000004  1.0000
  C   C2        1.0  0.22358537999999997  0.00945157  0.47507435000000003  1.0000
  C   C3        1.0  0.2570656  0.0418115  0.46950101  1.0000
  C   C4        1.0  0.33210627000000004  0.04427768  0.45708644  1.0000
  C   C5        1.0  0.37514788000000004  0.01428473  0.44984928000000013  1.0000
  C   C6        1.0  0.34131377  0.9818480400000001  0.4562826  1.0000
  C   C7        1.0  0.26643354  0.9795430500000002  0.46877157  1.0000
  C   C8        1.0  0.45072861  0.01608999  0.43586495  1.0000
  C   C9        1.0  0.51549727  0.01616099  0.4228982700000001  1.0000
  C   C10       1.0  0.59074052  0.015141540000000002  0.40811777000000005  1.0000
  C   C11       1.0  0.62738431  0.9832786900000001  0.40324655  1.0000
  C   C12       1.0  0.70235375  0.98187123  0.38902341  1.0000
  C   C13       1.0  0.74088205  0.01252727  0.37995375  1.0000
  C   C14       1.0  0.7043709100000001  0.04446971000000001  0.38412176  1.0000
  C   C15       1.0  0.62926606  0.04567942000000001  0.39820238  1.0000
  C   C16       1.0  0.7387244399999999  0.94988973  0.38215977  1.0000
  C   C17       1.0  0.7707813200000001  0.9231304200000001  0.37335466  1.0000
  C   C18       1.0  0.80744104  0.8929135200000001  0.35903915  1.0000
  C   C19       1.0  0.7651773600000003  0.87066997  0.32032  1.0000
  C   C20       1.0  0.80231795  0.8422497200000002  0.30337393  1.0000
  C   C21       1.0  0.88213677  0.83523973  0.3247208  1.0000
  C   C22       1.0  0.9240187  0.8568557100000002  0.36402166  1.0000
  C   C23       1.0  0.88726406  0.8854187900000001  0.38108337  1.0000
  C   C24       1.0  0.92276713  0.80601941  0.30359357  1.0000
  C   C25       1.0  0.7428181599999999  0.07498214  0.37251337  1.0000
  C   C26       1.0  0.77631826  0.10051417  0.36021763  1.0000
  C   C27       1.0  0.8150442800000002  0.12939406000000003  0.34335038  1.0000
  C   C28       1.0  0.8978892  0.13342056  0.35884918  1.0000
  C   C29       1.0  0.9360712300000001  0.16100438  0.34025677  1.0000
  C   C30       1.0  0.89268937  0.18498907000000003  0.30554586  1.0000
  C   C31       1.0  0.81016532  0.18137944  0.29050345  1.0000
  C   C32       1.0  0.77157974  0.15403865  0.30932485  1.0000
  C   C33       1.0  0.9343221400000001  0.21332946  0.2830122  1.0000
  C   C34       1.0  0.042352970000000045  6.794e-05  0.6003600400000001  1.0000
  C   C35       1.0  0.06295264  0.9999254  0.65915556  1.0000
  C   C36       1.0  0.07201444000000001  0.9686423500000001  0.68685318  1.0000
  C   C37       1.0  0.08622789000000003  0.9684095000000001  0.7418201300000001  1.0000
  C   C38       1.0  0.09172938000000007  0.9996570400000001  0.7702613200000002  1.0000
  C   C39       1.0  0.08553394  0.03102969  0.74210781  1.0000
  C   C40       1.0  0.07101452000000001  0.031077140000000003  0.68717295  1.0000
  C   C41       1.0  0.09977803000000007  0.9998144800000001  0.8260103500000002  1.0000
  C   C42       1.0  0.10210324000000004  0.0006023200000000002  0.87374904  1.0000
  C   C43       1.0  0.10321748  0.0020721000000000003  0.92892871  1.0000
  C   C44       1.0  0.10266310000000003  0.03413435  0.95418559  1.0000
  C   C45       1.0  0.10330278  0.035895760000000006  0.00883261  1.0000
  C   C46       1.0  0.10455808  0.00543567  0.03836344  1.0000
  C   C47       1.0  0.10356088  0.97330904  0.01326791  1.0000
  C   C48       1.0  0.1031855400000001  0.9716954700000002  0.9586182700000001  1.0000
  C   C49       1.0  0.09962602  0.06802675000000001  0.03429399000000001  1.0000
  C   C50       1.0  0.09336512  0.09489725  0.05756057  1.0000
  C   C51       1.0  0.08314679  0.12526665000000003  0.08586966  1.0000
  C   C52       1.0  0.01645343  0.14647753  0.06920455  1.0000
  C   C53       1.0  0.004368970000000005  0.17520963  0.09867851000000001  1.0000
  C   C54       1.0  0.0582123  0.18336739  0.14524205  1.0000
  C   C55       1.0  0.12539292  0.16272433  0.16151736  1.0000
  C   C56       1.0  0.13796266  0.13401106000000002  0.13214523  1.0000
  C   C57       1.0  0.04188099  0.21283848000000002  0.1785101  1.0000
  C   C58       1.0  0.099351  0.9428932100000001  0.04298481  1.0000
  C   C59       1.0  0.09149689  0.9174959000000003  0.06926844  1.0000
  C   C60       1.0  0.07838054  0.8887544  0.10023311  1.0000
  C   C61       1.0  0.01009889  0.8682742700000001  0.08476592  1.0000
  C   C62       1.0  0.9953186000000002  0.8409670400000001  0.11627158000000001  1.0000
  C   C63       1.0  0.04809097  0.83352194  0.16363285  1.0000
  C   C64       1.0  0.11657147  0.85352928  0.17886847  1.0000
  C   C65       1.0  0.13172839  0.88087704  0.14757438  1.0000
  C   C66       1.0  0.029832699999999993  0.80532118  0.19855512  1.0000
  C   C67       1.0  0.8577159  0.50656242  0.01335632  1.0000
  C   C68       1.0  0.77641665  0.5094545300000001  0.02492578  1.0000
  C   C69       1.0  0.74293504  0.5418145100000001  0.0304998  1.0000
  C   C70       1.0  0.66789433  0.54427977  0.04291447  1.0000
  C   C71       1.0  0.6248547200000001  0.51428655  0.050151110000000006  1.0000
  C   C72       1.0  0.65869032  0.48185012000000005  0.04371686  1.0000
  C   C73       1.0  0.73357051  0.47954584  0.03122758  1.0000
  C   C74       1.0  0.54927349  0.51609098  0.06413535  1.0000
  C   C75       1.0  0.48450463000000005  0.5161644700000001  0.0771015  1.0000
  C   C76       1.0  0.40926044  0.51514755  0.09188145000000002  1.0000
  C   C77       1.0  0.3726149700000001  0.48328489  0.09675143  1.0000
  C   C78       1.0  0.29764347  0.48187606000000005  0.11097308000000003  1.0000
  C   C79       1.0  0.25911661  0.51253284  0.12004301  1.0000
  C   C80       1.0  0.29563021  0.5444745100000001  0.11587647000000001  1.0000
  C   C81       1.0  0.37073506  0.5456853800000002  0.10179682  1.0000
  C   C82       1.0  0.26127164  0.44989331  0.11783569  1.0000
  C   C83       1.0  0.22921656  0.42313288  0.12663965  1.0000
  C   C84       1.0  0.19255677  0.39291488000000013  0.14095606  1.0000
  C   C85       1.0  0.23481363999999996  0.37066994000000003  0.17967539000000002  1.0000
  C   C86       1.0  0.19767573  0.34224922  0.19662468  1.0000
  C   C87       1.0  0.11785534000000002  0.3352371000000001  0.17528044  1.0000
  C   C88       1.0  0.07597787  0.35685537000000006  0.13597766  1.0000
  C   C89       1.0  0.11273595000000002  0.38541823  0.118916  1.0000
  C   C90       1.0  0.0772252  0.30601642  0.19640896  1.0000
  C   C91       1.0  0.25718329  0.5749848300000002  0.12748641  1.0000
  C   C92       1.0  0.22368123  0.60051512  0.13978452  1.0000
  C   C93       1.0  0.18495599  0.6293935100000001  0.15665195  1.0000
  C   C94       1.0  0.10210876  0.63341797  0.14115005  1.0000
  C   C95       1.0  0.06392979  0.6610019  0.15974266  1.0000
  C   C96       1.0  0.1073164  0.6849843900000001  0.19445177  1.0000
  C   C97       1.0  0.18983896000000006  0.68137688  0.20949604000000002  1.0000
  C   C98       1.0  0.22842770999999998  0.6540369500000001  0.19067707  1.0000
  C   C99       1.0  0.0656853  0.71332458  0.21698475000000003  1.0000
  C   C100      1.0  0.9576474  0.50006568  0.89964224  1.0000
  C   C101      1.0  0.9370481000000002  0.49992675000000003  0.84084687  1.0000
  C   C102      1.0  0.92798627  0.4686438  0.8131505900000001  1.0000
  C   C103      1.0  0.91377291  0.46841076  0.75818347  1.0000
  C   C104      1.0  0.90827177  0.49965796000000007  0.72974074  1.0000
  C   C105      1.0  0.91446709  0.53103068  0.7578931200000001  1.0000
  C   C106      1.0  0.9289865399999999  0.5310785600000001  0.81282808  1.0000
  C   C107      1.0  0.9002239900000001  0.49981419  0.6739916000000002  1.0000
  C   C108      1.0  0.89789794  0.50060502  0.62625275  1.0000
  C   C109      1.0  0.89678245  0.50207718  0.57107261  1.0000
  C   C110      1.0  0.8973368100000002  0.53413949  0.54581532  1.0000
  C   C111      1.0  0.8966970400000001  0.53589927  0.49116867  1.0000
  C   C112      1.0  0.89544147  0.50544018  0.4616369  1.0000
  C   C113      1.0  0.89643804  0.47331279  0.48673171  1.0000
  C   C114      1.0  0.89681366  0.47170093  0.5413823000000001  1.0000
  C   C115      1.0  0.9003744300000001  0.56802855  0.4657061500000001  1.0000
  C   C116      1.0  0.90663775  0.59489721  0.44243667  1.0000
  C   C117      1.0  0.9168555099999999  0.62526543  0.41412789  1.0000
  C   C118      1.0  0.98355134  0.64647488  0.43079726000000007  1.0000
  C   C119      1.0  0.9956307299999999  0.67520648  0.40132203  1.0000
  C   C120      1.0  0.94178396  0.6833625600000002  0.35476033  1.0000
  C   C121      1.0  0.87460389  0.6627217700000002  0.3384819  1.0000
  C   C122      1.0  0.86203317  0.6340082  0.36785225  1.0000
  C   C123      1.0  0.9581133900000001  0.71283415  0.32149296  1.0000
  C   C124      1.0  0.9006474900000001  0.4428954600000001  0.45701491  1.0000
  C   C125      1.0  0.90850018  0.41749690000000006  0.4307327900000001  1.0000
  C   C126      1.0  0.92161652  0.38875435  0.3997675100000001  1.0000
  C   C127      1.0  0.9898957000000002  0.3682730300000001  0.41522989000000005  1.0000
  C   C128      1.0  0.004680920000000003  0.34096557  0.38372512  1.0000
  C   C129      1.0  0.9519113899999999  0.33351875  0.33636212000000004  1.0000
  C   C130      1.0  0.88343041  0.3535284700000001  0.32112988  1.0000
  C   C131      1.0  0.86827489  0.38087572  0.35242646  1.0000
  C   C132      1.0  0.9701714300000001  0.30531816  0.30143972  1.0000
  C   C133      1.0  0.8577155699999999  0.9934374700000002  0.51335704  1.0000
  C   C134      1.0  0.7764153  0.9905453500000002  0.52492543  1.0000
  C   C135      1.0  0.74293397  0.9581853800000002  0.53049857  1.0000
  C   C136      1.0  0.66789324  0.9557203800000001  0.54291327  1.0000
  C   C137      1.0  0.62485308  0.9857136600000002  0.55015074  1.0000
  C   C138      1.0  0.65868795  0.018150120000000002  0.54371665  1.0000
  C   C139      1.0  0.73356819  0.020454100000000006  0.53122735  1.0000
  C   C140      1.0  0.54927235  0.98390935  0.56413549  1.0000
  C   C141      1.0  0.48450332  0.9838365300000002  0.57710165  1.0000
  C   C142      1.0  0.4092594400000001  0.9848540900000001  0.59188206  1.0000
  C   C143      1.0  0.37261453  0.016717290000000003  0.59675284  1.0000
  C   C144      1.0  0.29764393  0.01812755  0.6109761  1.0000
  C   C145      1.0  0.25911961  0.98746991  0.620045  1.0000
  C   C146      1.0  0.29563284  0.9555276300000001  0.61587719  1.0000
  C   C147      1.0  0.37073655  0.95431579  0.601797  1.0000
  C   C148      1.0  0.26127184  0.05011075  0.61784043  1.0000
  C   C149      1.0  0.2292169  0.07687146  0.62664514  1.0000
  C   C150      1.0  0.19255519000000001  0.1070896  0.6409611200000002  1.0000
  C   C151      1.0  0.23481315  0.129334  0.67968018  1.0000
  C   C152      1.0  0.19767487000000006  0.15775413000000002  0.6966292200000003  1.0000
  C   C153      1.0  0.11785566999999998  0.16476417  0.67528308  1.0000
  C   C154      1.0  0.07597432  0.14314827  0.63598111  1.0000
  C   C155      1.0  0.1127329  0.11458603000000002  0.61891987  1.0000
  C   C156      1.0  0.07722696999999999  0.19398428000000004  0.69641026  1.0000
  C   C157      1.0  0.25718569  0.92501699  0.62748581  1.0000
  C   C158      1.0  0.22368395000000005  0.8994862800000001  0.6397826000000001  1.0000
  C   C159      1.0  0.18495883  0.8706079  0.65664949  1.0000
  C   C160      1.0  0.10211101999999997  0.8665843400000001  0.6411464  1.0000
  C   C161      1.0  0.06393352  0.8390002000000001  0.65973953  1.0000
  C   C162      1.0  0.1073212  0.81501752  0.69444915  1.0000
  C   C163      1.0  0.18984342  0.81862428  0.70949424  1.0000
  C   C164      1.0  0.2284322  0.8459641000000001  0.69067536  1.0000
  C   C165      1.0  0.06569053000000005  0.78667681  0.7169828300000002  1.0000
  C   C166      1.0  0.9576467700000001  0.9999323200000001  0.3996413300000001  1.0000
  C   C167      1.0  0.93704656  7.149000000000002e-05  0.34084578  1.0000
  C   C168      1.0  0.9279846100000001  0.03135466  0.31314882  1.0000
  C   C169      1.0  0.91377127  0.03158813  0.25818189  1.0000
  C   C170      1.0  0.90826989  0.000341  0.22973954000000002  1.0000
  C   C171      1.0  0.91446588  0.9689681000000002  0.25789278  1.0000
  C   C172      1.0  0.9289855400000001  0.96891973  0.31282779  1.0000
  C   C173      1.0  0.9002219200000001  0.00018526  0.17399035000000002  1.0000
  C   C174      1.0  0.89789659  0.99939563  0.12625135  1.0000
  C   C175      1.0  0.89678151  0.9979240200000002  0.07107125  1.0000
  C   C176      1.0  0.8973361300000002  0.9658614900000001  0.04581572000000001  1.0000
  C   C177      1.0  0.89669618  0.9641024000000001  0.99116911  1.0000
  C   C178      1.0  0.8954408800000001  0.9945619  0.9616367800000001  1.0000
  C   C179      1.0  0.89643796  0.02668993  0.9867294400000001  1.0000
  C   C180      1.0  0.8968129000000002  0.028300580000000002  0.04138027  1.0000
  C   C181      1.0  0.9003734100000002  0.93197292  0.9657078800000001  1.0000
  C   C182      1.0  0.9066360900000001  0.9051037  0.94244032  1.0000
  C   C183      1.0  0.9168537999999999  0.87473549  0.9141325  1.0000
  C   C184      1.0  0.9835511300000002  0.8535257900000002  0.9308029100000001  1.0000
  C   C185      1.0  0.99563085  0.82479425  0.9013278700000001  1.0000
  C   C186      1.0  0.94178386  0.8166389200000002  0.8547664400000002  1.0000
  C   C187      1.0  0.8746032600000001  0.8372801600000003  0.83848745  1.0000
  C   C188      1.0  0.86203058  0.86599377  0.86785676  1.0000
  C   C189      1.0  0.9581137600000001  0.7871671900000002  0.82149829  1.0000
  C   C190      1.0  0.90064891  0.05710754  0.9570119500000001  1.0000
  C   C191      1.0  0.9085039500000001  0.08250642000000001  0.9307298200000003  1.0000
  C   C192      1.0  0.92161975  0.11124897000000002  0.899764  1.0000
  C   C193      1.0  0.9898994300000001  0.13172983  0.9152275300000002  1.0000
  C   C194      1.0  0.004683400000000003  0.1590368  0.88372247  1.0000
  C   C195      1.0  0.95191125  0.1664818  0.83636084  1.0000
  C   C196      1.0  0.8834307399999999  0.14647428  0.82112551  1.0000
  C   C197      1.0  0.86827631  0.11912746  0.85242218  1.0000
  C   C198      1.0  0.9701688799999999  0.19468202000000007  0.80143984  1.0000
  C   C199      1.0  0.14228204000000005  0.4934374400000001  0.9866432800000001  1.0000
  C   C200      1.0  0.2235822000000001  0.49054847  0.9750745700000002  1.0000
  C   C201      1.0  0.25706316  0.45818850000000005  0.96950137  1.0000
  C   C202      1.0  0.33210416000000004  0.45572215  0.9570868900000002  1.0000
  C   C203      1.0  0.37514567000000004  0.4857148900000001  0.9498498800000003  1.0000
  C   C204      1.0  0.34131068  0.51815152  0.95628393  1.0000
  C   C205      1.0  0.26643022  0.52045686  0.96877287  1.0000
  C   C206      1.0  0.45072723  0.48390949000000005  0.9358656  1.0000
  C   C207      1.0  0.51549646  0.48383784  0.92289968  1.0000
  C   C208      1.0  0.59074083  0.48485665  0.90811958  1.0000
  C   C209      1.0  0.62738364  0.51671955  0.90324942  1.0000
  C   C210      1.0  0.70235392  0.51812613  0.8890272  1.0000
  C   C211      1.0  0.7408827600000001  0.48746985000000004  0.879957  1.0000
  C   C212      1.0  0.70437336  0.45552686  0.88412324  1.0000
  C   C213      1.0  0.62926747  0.4543186900000001  0.8982039000000003  1.0000
  C   C214      1.0  0.7387254  0.55010734  0.88216466  1.0000
  C   C215      1.0  0.77078214  0.57686657  0.87335994  1.0000
  C   C216      1.0  0.8074412300000001  0.6070832200000003  0.8590445500000002  1.0000
  C   C217      1.0  0.7651756  0.6293268100000001  0.82032406  1.0000
  C   C218      1.0  0.8023159100000002  0.657747  0.8033778100000002  1.0000
  C   C219      1.0  0.8821345  0.66475662  0.8247250400000001  1.0000
  C   C220      1.0  0.92401723  0.64314044  0.8640266000000001  1.0000
  C   C221      1.0  0.88726456  0.6145771400000001  0.88108937  1.0000
  C   C222      1.0  0.9227649100000002  0.69397728  0.8035972400000002  1.0000
  C   C223      1.0  0.7428212500000001  0.42501461000000007  0.8725130900000001  1.0000
  C   C224      1.0  0.77632218  0.3994831  0.86021541  1.0000
  C   C225      1.0  0.8150490100000001  0.37060347  0.84334769  1.0000
  C   C226      1.0  0.8978950700000001  0.3665771400000001  0.8588471500000001  1.0000
  C   C227      1.0  0.93607722  0.33899406  0.84025472  1.0000
  C   C228      1.0  0.89269113  0.31501164  0.8055448  1.0000
  C   C229      1.0  0.81016822  0.3186193  0.7905011300000001  1.0000
  C   C230      1.0  0.77158252  0.34595938  0.80932224  1.0000
  C   C231      1.0  0.9343213900000001  0.28667191  0.78301233  1.0000
  C   C232      1.0  0.042352010000000016  0.4999346500000001  0.10035772000000001  1.0000
  C   C233      1.0  0.06295115000000001  0.5000763  0.15915256000000003  1.0000
  C   C234      1.0  0.07201254  0.53135928  0.18684917000000006  1.0000
  C   C235      1.0  0.08622645000000002  0.53159163  0.24181621000000006  1.0000
  C   C236      1.0  0.09172839999999999  0.50034414  0.27025848  1.0000
  C   C237      1.0  0.08553316  0.46897174  0.24210527  1.0000
  C   C238      1.0  0.07101356000000002  0.46892437  0.18717038000000003  1.0000
  C   C239      1.0  0.09977732  0.50018644  0.32600793  1.0000
  C   C240      1.0  0.10210241000000002  0.49939766  0.37374687000000006  1.0000
  C   C241      1.0  0.10321700000000004  0.4979271900000001  0.42892723000000005  1.0000
  C   C242      1.0  0.10266278  0.46586465000000005  0.4541853  1.0000
  C   C243      1.0  0.10330241000000003  0.46410173  0.50883274  1.0000
  C   C244      1.0  0.10455822999999999  0.49456229  0.53836218  1.0000
  C   C245      1.0  0.10356119  0.52668926  0.51326608  1.0000
  C   C246      1.0  0.10318546000000003  0.52830377  0.4586162400000001  1.0000
  C   C247      1.0  0.09962466000000003  0.43197053000000013  0.53429561  1.0000
  C   C248      1.0  0.09336207  0.40510048  0.55756392  1.0000
  C   C249      1.0  0.08314382000000002  0.37473111  0.58587431  1.0000
  C   C250      1.0  0.016449690000000048  0.35352078  0.5692082700000001  1.0000
  C   C251      1.0  0.004366029999999996  0.32478933000000004  0.5986826  1.0000
  C   C252      1.0  0.05821169000000004  0.31663332000000005  0.6452451900000001  1.0000
  C   C253      1.0  0.12539261  0.33727381000000006  0.66152291  1.0000
  C   C254      1.0  0.13796158  0.3659864900000001  0.63215036  1.0000
  C   C255      1.0  0.04188266000000001  0.2871626300000001  0.67851177  1.0000
  C   C256      1.0  0.09935209999999998  0.55710502  0.54298255  1.0000
  C   C257      1.0  0.09149885  0.58250238  0.56926551  1.0000
  C   C258      1.0  0.07838273  0.61124366  0.60022984  1.0000
  C   C259      1.0  0.010099760000000029  0.6317239500000001  0.5847616500000001  1.0000
  C   C260      1.0  0.9953192399999999  0.6590308500000001  0.61626782  1.0000
  C   C261      1.0  0.04809203  0.66647496  0.66362911  1.0000
  C   C262      1.0  0.11657339000000001  0.6464673800000001  0.6788648800000001  1.0000
  C   C263      1.0  0.13173194000000008  0.61911984  0.6475712300000002  1.0000
  C   C264      1.0  0.029833200000000063  0.6946757400000001  0.6985520200000003  1.0000
  O   O1        1.0  0.11546012000000001  0.97613849  0.49058894000000003  1.0000
  O   O2        1.0  0.88241726  0.78921839  0.26474645  1.0000
  O   O3        1.0  0.99526241  0.8003065000000001  0.32483121000000004  1.0000
  O   O4        1.0  0.89347367  0.23082567  0.24519612000000005  1.0000
  O   O5        1.0  0.008031280000000009  0.21770706  0.30234936  1.0000
  O   O6        1.0  0.03919890999999999  0.9708856000000001  0.57696428  1.0000
  O   O7        1.0  0.9775424800000001  0.22958322000000006  0.16276194  1.0000
  O   O8        1.0  0.09247334  0.21873671  0.22099123  1.0000
  O   O9        1.0  0.07820702000000002  0.8008661400000001  0.2425001  1.0000
  O   O10       1.0  0.96641991  0.7880218300000003  0.18244587  1.0000
  O   O11       1.0  0.1047404  0.03452673  0.49111006  1.0000
  O   O12       1.0  0.02852554000000001  0.029292890000000002  0.5775313400000001  1.0000
  O   O13       1.0  0.88453806  0.47613769  0.00941047  1.0000
  O   O14       1.0  0.11757642999999998  0.28921453  0.23525464  1.0000
  O   O15       1.0  0.004730500000000002  0.30030522  0.17517202  1.0000
  O   O16       1.0  0.10653493000000001  0.7308216500000002  0.25479925  1.0000
  O   O17       1.0  0.99197424  0.71770205  0.19764974  1.0000
  O   O18       1.0  0.9608004000000001  0.47088252  0.92303571  1.0000
  O   O19       1.0  0.02245402000000002  0.7295780400000003  0.33723889000000007  1.0000
  O   O20       1.0  0.9075184699999999  0.7187346200000001  0.27901268  1.0000
  O   O21       1.0  0.92179672  0.30086337  0.2574959700000001  1.0000
  O   O22       1.0  0.03358534000000001  0.2880198500000001  0.3175493300000001  1.0000
  O   O23       1.0  0.8952631  0.53452528  0.00889111  1.0000
  O   O24       1.0  0.97147518  0.52928912  0.9224724800000002  1.0000
  O   O25       1.0  0.88453796  0.02386243  0.5094128  1.0000
  O   O26       1.0  0.11758375000000004  0.21078529000000001  0.73525471  1.0000
  O   O27       1.0  0.004730900000000011  0.1996939  0.67517206  1.0000
  O   O28       1.0  0.10653911  0.76917921  0.75479801  1.0000
  O   O29       1.0  0.99197921  0.78229918  0.69764783  1.0000
  O   O30       1.0  0.96079909  0.02911563  0.42303433  1.0000
  O   O31       1.0  0.022453930000000028  0.7704221  0.8372434700000001  1.0000
  O   O32       1.0  0.9075203100000002  0.78126768  0.7790173600000001  1.0000
  O   O33       1.0  0.9217900900000001  0.19913621  0.7574971300000001  1.0000
  O   O34       1.0  0.03358369000000003  0.21197879  0.81755271  1.0000
  O   O35       1.0  0.89526339  0.96547435  0.50889092  1.0000
  O   O36       1.0  0.9714763800000001  0.97070847  0.42247195  1.0000
  O   O37       1.0  0.11545648000000004  0.5238613700000001  0.9905891100000002  1.0000
  O   O38       1.0  0.88241557  0.71077965  0.7647506  1.0000
  O   O39       1.0  0.9952606200000002  0.69968926  0.8248336800000001  1.0000
  O   O40       1.0  0.89346707  0.26917658  0.74519801  1.0000
  O   O41       1.0  0.008031210000000052  0.28229600000000005  0.8023510300000001  1.0000
  O   O42       1.0  0.03919789  0.52911697  0.07696207  1.0000
  O   O43       1.0  0.9775420200000001  0.27042002  0.6627615500000003  1.0000
  O   O44       1.0  0.09248046  0.28126457  0.72099107  1.0000
  O   O45       1.0  0.07820793  0.6991311  0.74249659  1.0000
  O   O46       1.0  0.96641896  0.71197509  0.6824440700000002  1.0000
  O   O47       1.0  0.10473793000000005  0.46547343000000013  0.99110821  1.0000
  O   O48       1.0  0.028525140000000004  0.4707100900000001  0.07752964000000001  1.0000
