data_image0
_chemical_formula_structural       Zn27H135C216S9N27O99
_chemical_formula_sum              "Zn27 H135 C216 S9 N27 O99"
_cell_length_a       33.12973
_cell_length_b       33.14414
_cell_length_c       11.740050000000002
_cell_angle_alpha    89.91008000000001
_cell_angle_beta     90.08045
_cell_angle_gamma    119.97909000000001

_symmetry_space_group_name_H-M    'P 1'
_symmetry_Int_Tables_number       1

loop_
  _symmetry_equiv_pos_as_xyz
  'x,y,z'

loop_
  _atom_site_type_symbol
  _atom_site_label
  _atom_site_symmetry_multiplicity
  _atom_site_fract_x
  _atom_site_fract_y
  _atom_site_fract_z
  _atom_site_occupancy
  Zn  Zn1       1.0  0.22456  0.05483  0.78562  1.0000
  Zn  Zn2       1.0  0.22477  0.11182999999999998  0.02657  1.0000
  Zn  Zn3       1.0  0.27696  0.83656  0.44833  1.0000
  Zn  Zn4       1.0  0.9450899999999999  0.77549  0.78546  1.0000
  Zn  Zn5       1.0  0.22451  0.1697  0.7855700000000001  1.0000
  Zn  Zn6       1.0  0.497  0.10833  0.11699  1.0000
  Zn  Zn7       1.0  0.88822  0.77523  0.026580000000000003  1.0000
  Zn  Zn8       1.0  0.22040999999999994  0.7783399999999999  0.68931  1.0000
  Zn  Zn9       1.0  0.94516  0.16978  0.78558  1.0000
  Zn  Zn10      1.0  0.8870399999999999  0.11155999999999998  0.02647  1.0000
  Zn  Zn11      1.0  0.16363  0.44189  0.44858000000000003  1.0000
  Zn  Zn12      1.0  0.83034  0.05486  0.7852300000000002  1.0000
  Zn  Zn13      1.0  0.8912399999999998  0.38824  0.11672  1.0000
  Zn  Zn14      1.0  0.22024  0.44224  0.69001  1.0000
  Zn  Zn15      1.0  0.83023  0.7754  0.78572  1.0000
  Zn  Zn16      1.0  0.5583899999999998  0.72203  0.4488000000000001  1.0000
  Zn  Zn17      1.0  0.6115299999999998  0.50303  0.11706  1.0000
  Zn  Zn18      1.0  0.55773  0.77979  0.6900300000000001  1.0000
  Zn  Zn19      1.0  0.16339999999999993  0.7228999999999999  0.44825  1.0000
  Zn  Zn20      1.0  0.8912999999999999  0.50304  0.11703000000000001  1.0000
  Zn  Zn21      1.0  0.27832999999999997  0.4419  0.44882  1.0000
  Zn  Zn22      1.0  0.4969299999999999  0.38818  0.11675  1.0000
  Zn  Zn23      1.0  0.55801  0.83641  0.44863  1.0000
  Zn  Zn24      1.0  0.61184  0.10874999999999999  0.11670000000000003  1.0000
  Zn  Zn25      1.0  0.8911499999999999  0.4447599999999999  0.35779  1.0000
  Zn  Zn26      1.0  0.55526  0.10881  0.35783  1.0000
  Zn  Zn27      1.0  0.55362  0.44473  0.3577700000000001  1.0000
  H   H1        1.0  0.35496  0.13465  0.13405  1.0000
  H   H2        1.0  0.09359999999999993  0.98717  0.16760000000000003  1.0000
  H   H3        1.0  0.4343699999999998  0.14612  0.18402000000000002  1.0000
  H   H4        1.0  0.43223  0.06837  0.9072  1.0000
  H   H5        1.0  0.35461  0.05723  0.8405600000000001  1.0000
  H   H6        1.0  0.22573999999999994  0.17767  0.4293400000000001  1.0000
  H   H7        1.0  0.22666  0.17532  0.21424  1.0000
  H   H8        1.0  0.01274000000000002  0.90628  0.1675  1.0000
  H   H9        1.0  0.22559  0.04789  0.43082  1.0000
  H   H10       1.0  0.22658  0.050789999999999995  0.21571  1.0000
  H   H11       1.0  0.19888  0.88632  0.79987  1.0000
  H   H12       1.0  0.18783  0.95423  0.85236  1.0000
  H   H13       1.0  0.2656  0.03095  0.57647  1.0000
  H   H14       1.0  0.27602999999999983  0.96441  0.50701  1.0000
  H   H15       1.0  0.18021  0.09014  0.8512500000000001  1.0000
  H   H16       1.0  0.86564  0.22007  0.13556000000000004  1.0000
  H   H17       1.0  0.012889999999999995  0.10651  0.16822  1.0000
  H   H18       1.0  0.8539899999999998  0.2878999999999999  0.1847  1.0000
  H   H19       1.0  0.93163  0.36347  0.9074400000000001  1.0000
  H   H20       1.0  0.94295  0.29712  0.84159  1.0000
  H   H21       1.0  0.82228  0.04781  0.4304900000000001  1.0000
  H   H22       1.0  0.82422  0.05061  0.21537000000000006  1.0000
  H   H23       1.0  0.09371  0.10633  0.16805  1.0000
  H   H24       1.0  0.95191  0.17762  0.42929  1.0000
  H   H25       1.0  0.94862  0.17515  0.21419  1.0000
  H   H26       1.0  0.11331999999999998  0.31266999999999995  0.8017100000000001  1.0000
  H   H27       1.0  0.04568  0.23332  0.8516200000000002  1.0000
  H   H28       1.0  0.9696799999999999  0.23504  0.5744500000000001  1.0000
  H   H29       1.0  0.03605  0.31246  0.50718  1.0000
  H   H30       1.0  0.91012  0.09031  0.8511200000000001  1.0000
  H   H31       1.0  0.77981  0.64517  0.13552  1.0000
  H   H32       1.0  0.89369  0.90627  0.16799  1.0000
  H   H33       1.0  0.71193  0.56572  0.18486000000000002  1.0000
  H   H34       1.0  0.63645  0.56796  0.9071600000000001  1.0000
  H   H35       1.0  0.7028199999999999  0.6456599999999998  0.8413  1.0000
  H   H36       1.0  0.95215  0.77449  0.43089  1.0000
  H   H37       1.0  0.94927  0.77342  0.21578  1.0000
  H   H38       1.0  0.89337  0.98699  0.16794  1.0000
  H   H39       1.0  0.82225  0.7741899999999999  0.42919  1.0000
  H   H40       1.0  0.8246299999999999  0.7732199999999999  0.21409000000000003  1.0000
  H   H41       1.0  0.68802  0.80164  0.8037400000000001  1.0000
  H   H42       1.0  0.76735  0.81285  0.85313  1.0000
  H   H43       1.0  0.76457  0.73464  0.57676  1.0000
  H   H44       1.0  0.68687  0.7235299999999999  0.5109  1.0000
  H   H45       1.0  0.90966  0.81976  0.85114  1.0000
  H   H46       1.0  0.86543  0.64526  0.13324  1.0000
  H   H47       1.0  0.8542199999999999  0.56605  0.18362000000000003  1.0000
  H   H48       1.0  0.93183  0.56805  0.90671  1.0000
  H   H49       1.0  0.9427  0.64543  0.8393700000000001  1.0000
  H   H50       1.0  0.11353999999999997  0.80105  0.79875  1.0000
  H   H51       1.0  0.04571  0.81226  0.8517  1.0000
  H   H52       1.0  0.9686799999999998  0.7344299999999998  0.57626  1.0000
  H   H53       1.0  0.03504  0.72377  0.50651  1.0000
  H   H54       1.0  0.35443  0.22002  0.1348  1.0000
  H   H55       1.0  0.43385  0.28784999999999994  0.18448000000000006  1.0000
  H   H56       1.0  0.43180999999999997  0.36348999999999987  0.90701  1.0000
  H   H57       1.0  0.35421  0.29711  0.8405000000000001  1.0000
  H   H58       1.0  0.19838000000000003  0.31205  0.8035300000000002  1.0000
  H   H59       1.0  0.18718000000000004  0.23277  0.8530200000000002  1.0000
  H   H60       1.0  0.26544  0.23554  0.5766500000000001  1.0000
  H   H61       1.0  0.27654999999999996  0.3132  0.51073  1.0000
  H   H62       1.0  0.78011  0.13434  0.13337  1.0000
  H   H63       1.0  0.71227  0.14579999999999999  0.1834  1.0000
  H   H64       1.0  0.6363199999999998  0.06812  0.9066800000000002  1.0000
  H   H65       1.0  0.70272  0.05719  0.83943  1.0000
  H   H66       1.0  0.68727  0.8866299999999998  0.8016300000000001  1.0000
  H   H67       1.0  0.7665899999999999  0.9542599999999998  0.8518100000000001  1.0000
  H   H68       1.0  0.7649  0.0304  0.5749700000000001  1.0000
  H   H69       1.0  0.68759  0.96401  0.50721  1.0000
  H   H70       1.0  0.02056000000000001  0.46689  0.46545  1.0000
  H   H71       1.0  0.7605499999999998  0.3203  0.4993600000000001  1.0000
  H   H72       1.0  0.09974  0.47825  0.51715  1.0000
  H   H73       1.0  0.0986  0.40099  0.24032000000000006  1.0000
  H   H74       1.0  0.02137999999999997  0.3901299999999999  0.17173  1.0000
  H   H75       1.0  0.89205  0.51079  0.7597800000000001  1.0000
  H   H76       1.0  0.89283  0.50831  0.54492  1.0000
  H   H77       1.0  0.67963  0.23932  0.49929000000000007  1.0000
  H   H78       1.0  0.8921200000000001  0.38106  0.76162  1.0000
  H   H79       1.0  0.8929299999999999  0.38379  0.5467400000000001  1.0000
  H   H80       1.0  0.8467  0.4235  0.18162  1.0000
  H   H81       1.0  0.5318699999999998  0.55365  0.46806  1.0000
  H   H82       1.0  0.67965  0.44002  0.49981000000000003  1.0000
  H   H83       1.0  0.52128  0.6220399999999999  0.51763  1.0000
  H   H84       1.0  0.59863  0.69693  0.2393  1.0000
  H   H85       1.0  0.60918  0.63008  0.17347000000000004  1.0000
  H   H86       1.0  0.4889899999999999  0.38098  0.7613900000000001  1.0000
  H   H87       1.0  0.4909  0.38367  0.54649  1.0000
  H   H88       1.0  0.76066  0.44018  0.49962  1.0000
  H   H89       1.0  0.61865  0.51082  0.7599800000000001  1.0000
  H   H90       1.0  0.61541  0.50826  0.54511  1.0000
  H   H91       1.0  0.57669  0.4236  0.18158  1.0000
  H   H92       1.0  0.44639  0.97776  0.46847000000000005  1.0000
  H   H93       1.0  0.55999  0.23921  0.49949  1.0000
  H   H94       1.0  0.37774  0.89898  0.51796  1.0000
  H   H95       1.0  0.30304  0.90216  0.23971  1.0000
  H   H96       1.0  0.37015  0.97929  0.17363000000000006  1.0000
  H   H97       1.0  0.61904  0.10796  0.76163  1.0000
  H   H98       1.0  0.61627  0.10702  0.54672  1.0000
  H   H99       1.0  0.55973  0.32  0.49934  1.0000
  H   H100      1.0  0.48919  0.10788  0.75976  1.0000
  H   H101      1.0  0.49164  0.10702  0.54489  1.0000
  H   H102      1.0  0.57625  0.15302  0.18124  1.0000
  H   H103      1.0  0.53316  0.97946  0.46551  1.0000
  H   H104      1.0  0.5217399999999999  0.9002699999999999  0.51703  1.0000
  H   H105      1.0  0.59901  0.90143  0.24013  1.0000
  H   H106      1.0  0.60995  0.97869  0.17173  1.0000
  H   H107      1.0  0.02206000000000001  0.55351  0.46839000000000003  1.0000
  H   H108      1.0  0.10094  0.62203  0.51774  1.0000
  H   H109      1.0  0.09778  0.69679  0.23954  1.0000
  H   H110      1.0  0.02054999999999999  0.62979  0.1737  1.0000
  H   H111      1.0  0.44634  0.46693  0.46569  1.0000
  H   H112      1.0  0.37871  0.47868  0.51603  1.0000
  H   H113      1.0  0.30262  0.40148  0.23884  1.0000
  H   H114      1.0  0.36885  0.39019  0.17161  1.0000
  H   H115      1.0  0.42746  0.65334  0.8316400000000003  1.0000
  H   H116      1.0  0.55846  0.8441999999999997  0.09338  1.0000
  H   H117      1.0  0.55859  0.84201  0.87835  1.0000
  H   H118      1.0  0.34664  0.57248  0.83153  1.0000
  H   H119      1.0  0.55875  0.7145499999999998  0.09216000000000002  1.0000
  H   H120      1.0  0.55864  0.71752  0.87723  1.0000
  H   H121      1.0  0.51366  0.75665  0.51451  1.0000
  H   H122      1.0  0.34636  0.77428  0.83089  1.0000
  H   H123      1.0  0.1557  0.71423  0.09258  1.0000
  H   H124      1.0  0.15776  0.71696  0.8776  1.0000
  H   H125      1.0  0.42734  0.77435  0.83055  1.0000
  H   H126      1.0  0.2854  0.84406  0.09141000000000003  1.0000
  H   H127      1.0  0.28216999999999987  0.84149  0.87638  1.0000
  H   H128      1.0  0.24283000000000005  0.75727  0.51191  1.0000
  H   H129      1.0  0.22559  0.57249  0.83027  1.0000
  H   H130      1.0  0.28553  0.44131  0.09211  1.0000
  H   H131      1.0  0.28251  0.44133  0.8772000000000002  1.0000
  H   H132      1.0  0.22563  0.6534  0.8305600000000001  1.0000
  H   H133      1.0  0.15574999999999997  0.44146  0.09337  1.0000
  H   H134      1.0  0.15792  0.44128  0.87834  1.0000
  H   H135      1.0  0.24327000000000001  0.48631  0.51444  1.0000
  C   C1        1.0  0.10534999999999996  0.96889  0.99835  1.0000
  C   C2        1.0  0.15058  0.00919  0.9662400000000002  1.0000
  C   C3        1.0  0.37167  0.1202  0.08151  1.0000
  C   C4        1.0  0.30199  0.08855999999999999  0.95125  1.0000
  C   C5        1.0  0.08068999999999998  0.96178  0.09908000000000003  1.0000
  C   C6        1.0  0.34915  0.0952  0.98333  1.0000
  C   C7        1.0  0.41501  0.12601  0.11008  1.0000
  C   C8        1.0  0.41408  0.08292  0.9537900000000001  1.0000
  C   C9        1.0  0.3712  0.07658  0.91778  1.0000
  C   C10       1.0  0.22652  0.11324  0.57569  1.0000
  C   C11       1.0  0.22641999999999995  0.11317  0.44642000000000004  1.0000
  C   C12       1.0  0.22643000000000002  0.14933  0.38463  1.0000
  C   C13       1.0  0.22683999999999996  0.14817  0.26604  1.0000
  C   C14       1.0  0.0311  0.89463  0.99826  1.0000
  C   C15       1.0  0.9908000000000001  0.84941  0.9662  1.0000
  C   C16       1.0  0.03815999999999999  0.91924  0.09902  1.0000
  C   C17       1.0  0.22636  0.07688  0.38545000000000007  1.0000
  C   C18       1.0  0.22678  0.07823  0.26687000000000005  1.0000
  C   C19       1.0  0.2133  0.91768  0.74791  1.0000
  C   C20       1.0  0.244  0.87985  0.6144  1.0000
  C   C21       1.0  0.23791  0.92041  0.6488  1.0000
  C   C22       1.0  0.20778000000000002  0.95521  0.77793  1.0000
  C   C23       1.0  0.25082999999999983  0.9979999999999998  0.62212  1.0000
  C   C24       1.0  0.2567999999999999  0.96146  0.5845400000000001  1.0000
  C   C25       1.0  0.031029999999999985  0.13638  0.99862  1.0000
  C   C26       1.0  0.99065  0.14127  0.9663800000000002  1.0000
  C   C27       1.0  0.8800199999999999  0.25119  0.08272  1.0000
  C   C28       1.0  0.91147  0.21311  0.95228  1.0000
  C   C29       1.0  0.03821  0.11887  0.09950000000000003  1.0000
  C   C30       1.0  0.90498  0.25367  0.9845200000000001  1.0000
  C   C31       1.0  0.87411  0.28865  0.11086  1.0000
  C   C32       1.0  0.91712  0.33081  0.95432  1.0000
  C   C33       1.0  0.9235599999999999  0.29433  0.91874  1.0000
  C   C34       1.0  0.8867399999999998  0.11323  0.57555  1.0000
  C   C35       1.0  0.8867399999999998  0.1131  0.44627  1.0000
  C   C36       1.0  0.85052  0.07678  0.38521  1.0000
  C   C37       1.0  0.85145  0.07805  0.26662  1.0000
  C   C38       1.0  0.10535  0.13634  0.9986000000000002  1.0000
  C   C39       1.0  0.15059  0.14122  0.9664500000000003  1.0000
  C   C40       1.0  0.08075  0.11882  0.09947  1.0000
  C   C41       1.0  0.92288  0.14924  0.38455  1.0000
  C   C42       1.0  0.92132  0.14801  0.26597  1.0000
  C   C43       1.0  0.0822  0.29595  0.7488600000000001  1.0000
  C   C44       1.0  0.11993  0.36552  0.61779  1.0000
  C   C45       1.0  0.07960999999999996  0.31832  0.65029  1.0000
  C   C46       1.0  0.04477  0.25258  0.7775400000000002  1.0000
  C   C47       1.0  0.002409999999999992  0.25322  0.62108  1.0000
  C   C48       1.0  0.038900000000000025  0.29605  0.58475  1.0000
  C   C49       1.0  0.86376  0.89461  0.9984500000000001  1.0000
  C   C50       1.0  0.85888  0.84939  0.96641  1.0000
  C   C51       1.0  0.74868  0.62849  0.08269  1.0000
  C   C52       1.0  0.7867399999999998  0.69818  0.9523  1.0000
  C   C53       1.0  0.88121  0.9192  0.09932  1.0000
  C   C54       1.0  0.7462099999999998  0.65106  0.98445  1.0000
  C   C55       1.0  0.71118  0.58513  0.11093  1.0000
  C   C56       1.0  0.66908  0.58611  0.95418  1.0000
  C   C57       1.0  0.7055799999999998  0.62903  0.9185600000000002  1.0000
  C   C58       1.0  0.88666  0.77346  0.57562  1.0000
  C   C59       1.0  0.8867899999999997  0.77358  0.44637  1.0000
  C   C60       1.0  0.92314  0.77367  0.38548000000000004  1.0000
  C   C61       1.0  0.92181  0.77321  0.26689000000000007  1.0000
  C   C62       1.0  0.8635999999999999  0.96881  0.99825  1.0000
  C   C63       1.0  0.8586  0.009099999999999999  0.96617  1.0000
  C   C64       1.0  0.88109  0.96169  0.09924  1.0000
  C   C65       1.0  0.85062  0.77352  0.38451000000000013  1.0000
  C   C66       1.0  0.8518  0.77309  0.26594  1.0000
  C   C67       1.0  0.70451  0.7869599999999999  0.7511800000000001  1.0000
  C   C68       1.0  0.63491  0.75586  0.62037  1.0000
  C   C69       1.0  0.68182  0.76193  0.65317  1.0000
  C   C70       1.0  0.74784  0.79266  0.77945  1.0000
  C   C71       1.0  0.7465599999999999  0.7493099999999998  0.6234400000000001  1.0000
  C   C72       1.0  0.70363  0.7429999999999998  0.58785  1.0000
  C   C73       1.0  0.87991  0.6286  0.08063  1.0000
  C   C74       1.0  0.9111  0.69806  0.94983  1.0000
  C   C75       1.0  0.9047100000000001  0.65101  0.9820800000000001  1.0000
  C   C76       1.0  0.87424  0.58536  0.10951000000000002  1.0000
  C   C77       1.0  0.9172300000000001  0.58618  0.95313  1.0000
  C   C78       1.0  0.9234  0.6289599999999999  0.9167600000000002  1.0000
  C   C79       1.0  0.08206999999999995  0.7866  0.7472100000000002  1.0000
  C   C80       1.0  0.11975  0.75551  0.61503  1.0000
  C   C81       1.0  0.07918000000000001  0.76178  0.64846  1.0000
  C   C82       1.0  0.04462  0.79223  0.77736  1.0000
  C   C83       1.0  0.0016800000000000064  0.74912  0.62175  1.0000
  C   C84       1.0  0.03814999999999997  0.74302  0.58409  1.0000
  C   C85       1.0  0.37117  0.25114  0.08196  1.0000
  C   C86       1.0  0.30170999999999987  0.21303999999999995  0.9510600000000001  1.0000
  C   C87       1.0  0.34873  0.25361  0.98346  1.0000
  C   C88       1.0  0.41451  0.2886  0.11042000000000003  1.0000
  C   C89       1.0  0.4136699999999999  0.33079  0.95374  1.0000
  C   C90       1.0  0.37079  0.2943  0.9178000000000002  1.0000
  C   C91       1.0  0.21308  0.29558  0.75101  1.0000
  C   C92       1.0  0.24431  0.36522  0.62034  1.0000
  C   C93       1.0  0.23816  0.31828  0.65302  1.0000
  C   C94       1.0  0.20738  0.25226  0.77931  1.0000
  C   C95       1.0  0.25075  0.25354  0.62332  1.0000
  C   C96       1.0  0.25707  0.29645  0.5877  1.0000
  C   C97       1.0  0.74897  0.11997999999999999  0.08058  1.0000
  C   C98       1.0  0.78705  0.08865  0.94976  1.0000
  C   C99       1.0  0.7465  0.09519999999999999  0.9820300000000002  1.0000
  C   C100      1.0  0.71146  0.12576  0.10932  1.0000
  C   C101      1.0  0.66912  0.08276  0.9530800000000001  1.0000
  C   C102      1.0  0.70568  0.07655  0.91673  1.0000
  C   C103      1.0  0.704  0.91779  0.7489  1.0000
  C   C104      1.0  0.63445  0.88009  0.61776  1.0000
  C   C105      1.0  0.68166  0.92041  0.65031  1.0000
  C   C106      1.0  0.74732  0.95522  0.77779  1.0000
  C   C107      1.0  0.74671  0.99765  0.62147  1.0000
  C   C108      1.0  0.70394  0.96115  0.58486  1.0000
  C   C109      1.0  0.77201  0.30222  0.32967  1.0000
  C   C110      1.0  0.81718  0.34257  0.29762000000000005  1.0000
  C   C111      1.0  0.03742999999999995  0.4525399999999999  0.41317  1.0000
  C   C112      1.0  0.96821  0.42122  0.2812700000000001  1.0000
  C   C113      1.0  0.7475  0.29499  0.43069  1.0000
  C   C114      1.0  0.015290000000000014  0.42782  0.31431  1.0000
  C   C115      1.0  0.08067000000000002  0.45829  0.44274  1.0000
  C   C116      1.0  0.08031999999999995  0.4155099999999999  0.28643  1.0000
  C   C117      1.0  0.03759999999999999  0.40931  0.24938000000000002  1.0000
  C   C118      1.0  0.89313  0.44657  0.90665  1.0000
  C   C119      1.0  0.89288  0.44635  0.77729  1.0000
  C   C120      1.0  0.89278  0.48241999999999996  0.7153  1.0000
  C   C121      1.0  0.89312  0.4812  0.59672  1.0000
  C   C122      1.0  0.69781  0.22798  0.3296  1.0000
  C   C123      1.0  0.65749  0.18279  0.29752  1.0000
  C   C124      1.0  0.7049699999999998  0.25244  0.43065  1.0000
  C   C125      1.0  0.8928099999999999  0.41003  0.71635  1.0000
  C   C126      1.0  0.89315  0.41128  0.59776  1.0000
  C   C127      1.0  0.69748  0.46946  0.32978  1.0000
  C   C128      1.0  0.65699  0.47421  0.29773  1.0000
  C   C129      1.0  0.5464899999999999  0.5847299999999999  0.41507  1.0000
  C   C130      1.0  0.5775  0.54616  0.28411000000000003  1.0000
  C   C131      1.0  0.70489  0.45229  0.43092  1.0000
  C   C132      1.0  0.57122  0.58688  0.31664  1.0000
  C   C133      1.0  0.54112  0.62252  0.44344  1.0000
  C   C134      1.0  0.58401  0.66431  0.28639  1.0000
  C   C135      1.0  0.58999  0.62754  0.25079  1.0000
  C   C136      1.0  0.5533799999999999  0.4465799999999999  0.9066000000000001  1.0000
  C   C137      1.0  0.55344  0.44632  0.77723  1.0000
  C   C138      1.0  0.51723  0.40996  0.7161800000000001  1.0000
  C   C139      1.0  0.51815  0.41118  0.59759  1.0000
  C   C140      1.0  0.77194  0.46966  0.32968  1.0000
  C   C141      1.0  0.81726  0.47467  0.29762000000000005  1.0000
  C   C142      1.0  0.74751  0.4523699999999999  0.43083000000000005  1.0000
  C   C143      1.0  0.58959  0.48241  0.7153900000000001  1.0000
  C   C144      1.0  0.58804  0.48115  0.59681  1.0000
  C   C145      1.0  0.53057  0.22779  0.3295  1.0000
  C   C146      1.0  0.52596  0.18266  0.29758  1.0000
  C   C147      1.0  0.41529  0.96156  0.41544  1.0000
  C   C148      1.0  0.45399  0.0312  0.28412  1.0000
  C   C149      1.0  0.54769  0.25224  0.43068  1.0000
  C   C150      1.0  0.41325  0.98428  0.31695  1.0000
  C   C151      1.0  0.37734  0.91849  0.44386  1.0000
  C   C152      1.0  0.3356599999999999  0.9199599999999998  0.28687  1.0000
  C   C153      1.0  0.37256999999999996  0.96259  0.25111000000000006  1.0000
  C   C154      1.0  0.55344  0.10681  0.90659  1.0000
  C   C155      1.0  0.55368  0.10711  0.7772500000000001  1.0000
  C   C156      1.0  0.59004  0.10721  0.71634  1.0000
  C   C157      1.0  0.58876  0.1068  0.59775  1.0000
  C   C158      1.0  0.53023  0.30195  0.32944  1.0000
  C   C159      1.0  0.5253  0.3423  0.29744  1.0000
  C   C160      1.0  0.54753  0.29471  0.43061  1.0000
  C   C161      1.0  0.51757  0.10715999999999999  0.7152800000000002  1.0000
  C   C162      1.0  0.51878  0.10675999999999997  0.59671  1.0000
  C   C163      1.0  0.54751  0.9626  0.4131600000000001  1.0000
  C   C164      1.0  0.57898  0.03184  0.28129  1.0000
  C   C165      1.0  0.5722599999999999  0.98474  0.31434  1.0000
  C   C166      1.0  0.54172  0.91937  0.44266  1.0000
  C   C167      1.0  0.58451  0.91971  0.2863  1.0000
  C   C168      1.0  0.59075  0.96243  0.24934  1.0000
  C   C169      1.0  0.03832000000000001  0.58458  0.41531  1.0000
  C   C170      1.0  0.9686699999999999  0.54589  0.2840500000000001  1.0000
  C   C171      1.0  0.015599999999999998  0.58664  0.31685  1.0000
  C   C172      1.0  0.08144999999999998  0.62248  0.44365  1.0000
  C   C173      1.0  0.07997999999999998  0.66417  0.28671  1.0000
  C   C174      1.0  0.037289999999999976  0.62731  0.25105  1.0000
  C   C175      1.0  0.41519  0.45267  0.41298000000000007  1.0000
  C   C176      1.0  0.45294  0.42109  0.28147  1.0000
  C   C177      1.0  0.41257  0.42785  0.31435  1.0000
  C   C178      1.0  0.37777  0.4586  0.44189  1.0000
  C   C179      1.0  0.33535  0.41584  0.28541  1.0000
  C   C180      1.0  0.3718  0.40945  0.24903  1.0000
  C   C181      1.0  0.43844999999999984  0.6360199999999999  0.66061  1.0000
  C   C182      1.0  0.4837099999999999  0.6765  0.62877  1.0000
  C   C183      1.0  0.41421  0.62835  0.7622800000000001  1.0000
  C   C184      1.0  0.56058  0.78017  0.23844  1.0000
  C   C185      1.0  0.55953  0.7798  0.10921  1.0000
  C   C186      1.0  0.55902  0.81589  0.04821  1.0000
  C   C187      1.0  0.55892  0.81481  0.92964  1.0000
  C   C188      1.0  0.36412  0.5616  0.6606  1.0000
  C   C189      1.0  0.32378  0.51628  0.62875  1.0000
  C   C190      1.0  0.37168  0.58579  0.76225  1.0000
  C   C191      1.0  0.55918  0.74352  0.047500000000000014  1.0000
  C   C192      1.0  0.55902  0.74491  0.92896  1.0000
  C   C193      1.0  0.36358  0.80251  0.65973  1.0000
  C   C194      1.0  0.32311  0.80738  0.62832  1.0000
  C   C195      1.0  0.37131999999999993  0.7859399999999999  0.76144  1.0000
  C   C196      1.0  0.2193299999999999  0.7805299999999997  0.23773000000000002  1.0000
  C   C197      1.0  0.22001  0.7797  0.10848  1.0000
  C   C198      1.0  0.18396  0.74321  0.04739000000000001  1.0000
  C   C199      1.0  0.18496  0.74446  0.9288200000000001  1.0000
  C   C200      1.0  0.43806  0.80279  0.65959  1.0000
  C   C201      1.0  0.48349000000000003  0.80796  0.62827  1.0000
  C   C202      1.0  0.4139199999999999  0.7860399999999997  0.7613  1.0000
  C   C203      1.0  0.25635  0.81566  0.046770000000000006  1.0000
  C   C204      1.0  0.25484  0.81441  0.9281900000000001  1.0000
  C   C205      1.0  0.19728  0.56182  0.65929  1.0000
  C   C206      1.0  0.19226  0.51647  0.62815  1.0000
  C   C207      1.0  0.21391999999999994  0.5859199999999999  0.76102  1.0000
  C   C208      1.0  0.21987  0.43945  0.23844  1.0000
  C   C209      1.0  0.22022  0.44048  0.10919  1.0000
  C   C210      1.0  0.25652  0.44084  0.04747  1.0000
  C   C211      1.0  0.25511  0.4409599999999999  0.92892  1.0000
  C   C212      1.0  0.19737  0.63615  0.65944  1.0000
  C   C213      1.0  0.19246000000000005  0.67657  0.62816  1.0000
  C   C214      1.0  0.21394999999999995  0.6284499999999998  0.7611600000000001  1.0000
  C   C215      1.0  0.18409  0.44092  0.04819  1.0000
  C   C216      1.0  0.18516  0.441  0.92963  1.0000
  S   S1        1.0  0.07623  0.92381  0.90309  1.0000
  S   S2        1.0  0.0761  0.15228  0.9033  1.0000
  S   S3        1.0  0.84781  0.92378  0.9029800000000001  1.0000
  S   S4        1.0  0.7428099999999999  0.25726  0.23420000000000002  1.0000
  S   S5        1.0  0.74244  0.48521  0.23414  1.0000
  S   S6        1.0  0.51477  0.25705  0.23385000000000003  1.0000
  S   S7        1.0  0.4088499999999998  0.5913099999999998  0.56459  1.0000
  S   S8        1.0  0.40826  0.81776  0.56351  1.0000
  S   S9        1.0  0.18225999999999995  0.5915499999999999  0.5631300000000001  1.0000
  N   N1        1.0  0.43599  0.10746  0.04797  1.0000
  N   N2        1.0  0.22716  0.11331999999999998  0.20784  1.0000
  N   N3        1.0  0.22632999999999986  0.9949899999999998  0.71661  1.0000
  N   N4        1.0  0.3378300000000001  0.89788  0.38137  1.0000
  N   N5        1.0  0.89252  0.32813  0.04838  1.0000
  N   N6        1.0  0.8861799999999997  0.11311  0.20769  1.0000
  N   N7        1.0  0.005159999999999991  0.23142  0.7155  1.0000
  N   N8        1.0  0.10191  0.43989  0.38104000000000005  1.0000
  N   N9        1.0  0.67169  0.56415  0.04843000000000001  1.0000
  N   N10       1.0  0.88669  0.77279  0.20781  1.0000
  N   N11       1.0  0.76872  0.77404  0.71718  1.0000
  N   N12       1.0  0.55974  0.66198  0.38083000000000006  1.0000
  N   N13       1.0  0.89277  0.56435  0.04747  1.0000
  N   N14       1.0  0.004759999999999964  0.77362  0.7163  1.0000
  N   N15       1.0  0.10209999999999995  0.66196  0.38109  1.0000
  N   N16       1.0  0.43558  0.3281  0.04798000000000001  1.0000
  N   N17       1.0  0.22601  0.23139  0.7171  1.0000
  N   N18       1.0  0.33815  0.44027  0.37988  1.0000
  N   N19       1.0  0.67185  0.1073  0.04728  1.0000
  N   N20       1.0  0.7684600000000001  0.9949  0.7160200000000001  1.0000
  N   N21       1.0  0.56011  0.89812  0.38090000000000007  1.0000
  N   N22       1.0  0.89348  0.44633  0.53867  1.0000
  N   N23       1.0  0.55286  0.4462399999999999  0.53862  1.0000
  N   N24       1.0  0.5536599999999998  0.10639  0.53868  1.0000
  N   N25       1.0  0.55911  0.78004  0.87084  1.0000
  N   N26       1.0  0.21961000000000006  0.7796  0.86997  1.0000
  N   N27       1.0  0.21996  0.44083  0.87082  1.0000
  O   O1        1.0  0.21417  0.10702999999999997  0.8515300000000001  1.0000
  O   O2        1.0  0.17196  0.04037  0.04059000000000001  1.0000
  O   O3        1.0  0.2888  0.07516999999999997  0.84905  1.0000
  O   O4        1.0  0.16382  0.00838  0.86325  1.0000
  O   O5        1.0  0.22665  0.07864  0.62238  1.0000
  O   O6        1.0  0.28042  0.09650999999999998  0.028500000000000004  1.0000
  O   O7        1.0  0.9596099999999996  0.8280799999999998  0.04059000000000001  1.0000
  O   O8        1.0  0.9916100000000001  0.83613  0.86326  1.0000
  O   O9        1.0  0.22665  0.14792  0.6223300000000002  1.0000
  O   O10       1.0  0.2563  0.88016  0.5109  1.0000
  O   O11       1.0  0.23674999999999988  0.85023  0.69096  1.0000
  O   O12       1.0  0.22571  0.7741  0.51431  1.0000
  O   O13       1.0  0.17201  0.13132  0.04063  1.0000
  O   O14       1.0  0.32319  0.82086  0.52509  1.0000
  O   O15       1.0  0.25356  0.81556  0.28447  1.0000
  O   O16       1.0  0.28002  0.1835  0.028290000000000003  1.0000
  O   O17       1.0  0.89293  0.10708  0.85152  1.0000
  O   O18       1.0  0.95941  0.13139  0.04052000000000001  1.0000
  O   O19       1.0  0.92528  0.21376  0.85032  1.0000
  O   O20       1.0  0.99154  0.1554  0.86325  1.0000
  O   O21       1.0  0.92124  0.14799  0.62225  1.0000
  O   O22       1.0  0.90295  0.18312  0.028790000000000003  1.0000
  O   O23       1.0  0.16379999999999997  0.15536999999999998  0.86338  1.0000
  O   O24       1.0  0.85209  0.07859  0.6222  1.0000
  O   O25       1.0  0.12094999999999995  0.3775799999999999  0.51384  1.0000
  O   O26       1.0  0.14820000000000003  0.38832  0.69645  1.0000
  O   O27       1.0  0.22615  0.45236  0.51476  1.0000
  O   O28       1.0  0.8685099999999998  0.04027  0.04055  1.0000
  O   O29       1.0  0.17814  0.50291  0.5254  1.0000
  O   O30       1.0  0.18556  0.44002  0.28526  1.0000
  O   O31       1.0  0.81567  0.09473  0.028240000000000005  1.0000
  O   O32       1.0  0.8928899999999997  0.7858199999999997  0.8515400000000002  1.0000
  O   O33       1.0  0.8686599999999999  0.82793  0.04071  1.0000
  O   O34       1.0  0.7861799999999998  0.71143  0.8502900000000002  1.0000
  O   O35       1.0  0.84481  0.83623  0.8633  1.0000
  O   O36       1.0  0.85186  0.77314  0.62227  1.0000
  O   O37       1.0  0.81662  0.71963  0.028950000000000007  1.0000
  O   O38       1.0  0.84442  0.00832  0.8632200000000002  1.0000
  O   O39       1.0  0.92135  0.7735  0.62234  1.0000
  O   O40       1.0  0.62148  0.74156  0.51882  1.0000
  O   O41       1.0  0.61395  0.76529  0.6963200000000002  1.0000
  O   O42       1.0  0.5476199999999999  0.7739699999999999  0.51479  1.0000
  O   O43       1.0  0.49681999999999993  0.67632  0.5253  1.0000
  O   O44       1.0  0.5622999999999999  0.7463499999999998  0.28513  1.0000
  O   O45       1.0  0.9044200000000001  0.72015  0.02816  1.0000
  O   O46       1.0  0.92299  0.71072  0.84654  1.0000
  O   O47       1.0  0.11942999999999995  0.74257  0.5123500000000001  1.0000
  O   O48       1.0  0.14950999999999995  0.7633399999999999  0.6916500000000002  1.0000
  O   O49       1.0  0.17924  0.67671  0.52487  1.0000
  O   O50       1.0  0.18431  0.74632  0.28464000000000006  1.0000
  O   O51       1.0  0.28877999999999987  0.21320999999999996  0.8484100000000002  1.0000
  O   O52       1.0  0.25878  0.37878  0.51894  1.0000
  O   O53       1.0  0.23476  0.38609  0.69629  1.0000
  O   O54       1.0  0.32436  0.5031  0.52553  1.0000
  O   O55       1.0  0.25376  0.43785  0.28515  1.0000
  O   O56       1.0  0.78784  0.07715  0.84619  1.0000
  O   O57       1.0  0.62242  0.87906  0.51381  1.0000
  O   O58       1.0  0.61165  0.8518199999999999  0.6964600000000001  1.0000
  O   O59       1.0  0.49714999999999987  0.8223499999999999  0.5257  1.0000
  O   O60       1.0  0.5598899999999998  0.8144  0.28528  1.0000
  O   O61       1.0  0.88066  0.4403299999999999  0.18273000000000003  1.0000
  O   O62       1.0  0.83844  0.37371  0.37215  1.0000
  O   O63       1.0  0.95603  0.40977  0.17755  1.0000
  O   O64       1.0  0.8305199999999999  0.34189  0.19472  1.0000
  O   O65       1.0  0.89323  0.41198  0.9535100000000002  1.0000
  O   O66       1.0  0.94559  0.42726  0.35937  1.0000
  O   O67       1.0  0.62634  0.16154  0.3720700000000001  1.0000
  O   O68       1.0  0.65823  0.16947  0.19464  1.0000
  O   O69       1.0  0.8934199999999999  0.48132999999999987  0.95335  1.0000
  O   O70       1.0  0.83879  0.46496  0.37194  1.0000
  O   O71       1.0  0.94753  0.51549  0.35995  1.0000
  O   O72       1.0  0.55943  0.44031  0.18285  1.0000
  O   O73       1.0  0.62602  0.46482  0.37236  1.0000
  O   O74       1.0  0.59176  0.54707  0.18242  1.0000
  O   O75       1.0  0.65737  0.48768  0.19426000000000004  1.0000
  O   O76       1.0  0.58784  0.4813899999999999  0.95334  1.0000
  O   O77       1.0  0.56846  0.51586  0.36012  1.0000
  O   O78       1.0  0.83044  0.48873  0.19451  1.0000
  O   O79       1.0  0.51872  0.41201  0.9534400000000002  1.0000
  O   O80       1.0  0.53508  0.37341  0.37197  1.0000
  O   O81       1.0  0.48198  0.42766  0.35923  1.0000
  O   O82       1.0  0.55971  0.11908  0.18274  1.0000
  O   O83       1.0  0.5351499999999999  0.16098999999999997  0.37262000000000006  1.0000
  O   O84       1.0  0.45294  0.04461  0.18248  1.0000
  O   O85       1.0  0.51281  0.16972  0.19397  1.0000
  O   O86       1.0  0.5186  0.10641  0.95327  1.0000
  O   O87       1.0  0.48441  0.0524  0.35992  1.0000
  O   O88       1.0  0.51127  0.34167  0.19445  1.0000
  O   O89       1.0  0.58805  0.10677  0.95347  1.0000
  O   O90       1.0  0.57276  0.05438  0.3592  1.0000
  O   O91       1.0  0.59078  0.04409  0.17772  1.0000
  O   O92       1.0  0.9552299999999999  0.54689  0.18244  1.0000
  O   O93       1.0  0.45315  0.40898  0.17811  1.0000
  O   O94       1.0  0.50535  0.70729  0.7037200000000001  1.0000
  O   O95       1.0  0.29280999999999996  0.49468999999999996  0.70339  1.0000
  O   O96       1.0  0.5046999999999999  0.7980499999999999  0.7031000000000002  1.0000
  O   O97       1.0  0.29242999999999997  0.7980999999999999  0.7037200000000001  1.0000
  O   O98       1.0  0.20149  0.70708  0.70392  1.0000
  O   O99       1.0  0.20197  0.49522  0.70329  1.0000
