data_image0
_chemical_formula_structural       Co27H135C216S9N27O99
_chemical_formula_sum              "Co27 H135 C216 S9 N27 O99"
_cell_length_a       32.89005
_cell_length_b       32.90282
_cell_length_c       11.682709999999998
_cell_angle_alpha    90.03070000000001
_cell_angle_beta     89.98501000000002
_cell_angle_gamma    120.03562999999998

_symmetry_space_group_name_H-M    'P 1'
_symmetry_Int_Tables_number       1

loop_
  _symmetry_equiv_pos_as_xyz
  'x,y,z'

loop_
  _atom_site_type_symbol
  _atom_site_label
  _atom_site_symmetry_multiplicity
  _atom_site_fract_x
  _atom_site_fract_y
  _atom_site_fract_z
  _atom_site_occupancy
  Co  Co1       1.0  0.61329  0.10814  0.23632999999999996  1.0000
  Co  Co2       1.0  0.55389  0.10844  0.4817299999999999  1.0000
  Co  Co3       1.0  0.55793  0.8377900000000003  0.56865  1.0000
  Co  Co4       1.0  0.89172  0.38705  0.23641  1.0000
  Co  Co5       1.0  0.49499999999999994  0.10812  0.23636999999999994  1.0000
  Co  Co6       1.0  0.82831  0.05357  0.90066  1.0000
  Co  Co7       1.0  0.8913999999999999  0.44534  0.48164999999999997  1.0000
  Co  Co8       1.0  0.88749  0.1122  0.14562999999999998  1.0000
  Co  Co9       1.0  0.89165  0.50535  0.2363  1.0000
  Co  Co10      1.0  0.1616900000000001  0.7202000000000002  0.56851  1.0000
  Co  Co11      1.0  0.61331  0.50436  0.23652999999999993  1.0000
  Co  Co12      1.0  0.94647  0.7751  0.9009999999999999  1.0000
  Co  Co13      1.0  0.55404  0.44594  0.48198  1.0000
  Co  Co14      1.0  0.88741  0.77536  0.14566999999999997  1.0000
  Co  Co15      1.0  0.49574000000000007  0.38659  0.23653999999999997  1.0000
  Co  Co16      1.0  0.27993  0.44184  0.56852  1.0000
  Co  Co17      1.0  0.22491  0.17196  0.9014299999999998  1.0000
  Co  Co18      1.0  0.22459  0.11212000000000003  0.14568  1.0000
  Co  Co19      1.0  0.16225  0.44213  0.56854  1.0000
  Co  Co20      1.0  0.94676  0.17184  0.9014299999999998  1.0000
  Co  Co21      1.0  0.28004  0.8379700000000002  0.56884  1.0000
  Co  Co22      1.0  0.22522  0.05369  0.90076  1.0000
  Co  Co23      1.0  0.5576000000000001  0.7199200000000002  0.56846  1.0000
  Co  Co24      1.0  0.82797  0.77454  0.90074  1.0000
  Co  Co25      1.0  0.22084  0.44129  0.81369  1.0000
  Co  Co26      1.0  0.5586900000000002  0.7791200000000003  0.81359  1.0000
  Co  Co27      1.0  0.2208000000000001  0.7790000000000002  0.8136199999999998  1.0000
  H   H1        1.0  0.67868  0.23948  0.62207  1.0000
  H   H2        1.0  0.78066  0.13397  0.26132  1.0000
  H   H3        1.0  0.63842  0.07098000000000002  0.02437  1.0000
  H   H4        1.0  0.49088000000000004  0.10694  0.66888  1.0000
  H   H5        1.0  0.7061400000000001  0.06126000000000001  0.95736  1.0000
  H   H6        1.0  0.71167  0.14427000000000006  0.31195  1.0000
  H   H7        1.0  0.48875  0.10823  0.88422  1.0000
  H   H8        1.0  0.76048  0.3208  0.62215  1.0000
  H   H9        1.0  0.61975  0.10847  0.88467  1.0000
  H   H10       1.0  0.61647  0.10703  0.66912  1.0000
  H   H11       1.0  0.5324200000000001  0.9797100000000002  0.5957499999999999  1.0000
  H   H12       1.0  0.59572  0.90086  0.35853  1.0000
  H   H13       1.0  0.6057  0.97847  0.29243  1.0000
  H   H14       1.0  0.52214  0.90046  0.6459199999999999  1.0000
  H   H15       1.0  0.5752  0.15049000000000004  0.30313  1.0000
  H   H16       1.0  0.76035  0.4389  0.6222  1.0000
  H   H17       1.0  0.86578  0.64672  0.2617  1.0000
  H   H18       1.0  0.9290100000000001  0.5677500000000001  0.024929999999999997  1.0000
  H   H19       1.0  0.89305  0.384  0.66883  1.0000
  H   H20       1.0  0.93886  0.64521  0.9581299999999999  1.0000
  H   H21       1.0  0.85562  0.5675700000000001  0.31236  1.0000
  H   H22       1.0  0.89187  0.3806800000000001  0.8841899999999998  1.0000
  H   H23       1.0  0.67915  0.43950000000000006  0.6231299999999999  1.0000
  H   H24       1.0  0.89161  0.51137  0.8847199999999997  1.0000
  H   H25       1.0  0.89298  0.50946  0.66916  1.0000
  H   H26       1.0  0.020129999999999964  0.55254  0.5954199999999998  1.0000
  H   H27       1.0  0.09920000000000012  0.6948500000000002  0.35881  1.0000
  H   H28       1.0  0.02159000000000002  0.6270700000000001  0.29222999999999993  1.0000
  H   H29       1.0  0.09936000000000002  0.62172  0.64633  1.0000
  H   H30       1.0  0.8493  0.42481  0.30317  1.0000
  H   H31       1.0  0.56063  0.3209  0.62284  1.0000
  H   H32       1.0  0.3534399999999999  0.21927  0.26273  1.0000
  H   H33       1.0  0.4327  0.3615  0.026049999999999997  1.0000
  H   H34       1.0  0.61737  0.50809  0.66919  1.0000
  H   H35       1.0  0.35495  0.29393  0.9595899999999999  1.0000
  H   H36       1.0  0.43281  0.2881100000000001  0.31303999999999993  1.0000
  H   H37       1.0  0.61977  0.51123  0.88526  1.0000
  H   H38       1.0  0.56073  0.23948  0.62247  1.0000
  H   H39       1.0  0.48882  0.38031000000000004  0.88532  1.0000
  H   H40       1.0  0.49187  0.38266  0.66925  1.0000
  H   H41       1.0  0.44752  0.46741  0.59433  1.0000
  H   H42       1.0  0.30506  0.40417  0.35839  1.0000
  H   H43       1.0  0.37262  0.39434  0.29098  1.0000
  H   H44       1.0  0.3786300000000001  0.4776800000000001  0.6454499999999999  1.0000
  H   H45       1.0  0.57574  0.42433  0.3037  1.0000
  H   H46       1.0  0.86564  0.21922  0.26244  1.0000
  H   H47       1.0  0.92899  0.36164  0.02661  1.0000
  H   H48       1.0  0.93878  0.29407  0.9592699999999997  1.0000
  H   H49       1.0  0.8555300000000001  0.28812000000000004  0.31378  1.0000
  H   H50       1.0  0.020030000000000017  0.46732  0.59411  1.0000
  H   H51       1.0  0.09918  0.40403  0.35822  1.0000
  H   H52       1.0  0.021869999999999997  0.39434  0.29075999999999996  1.0000
  H   H53       1.0  0.09921000000000009  0.4774600000000001  0.64552  1.0000
  H   H54       1.0  0.3532600000000001  0.13401  0.26161  1.0000
  H   H55       1.0  0.43266  0.07094000000000002  0.025719999999999993  1.0000
  H   H56       1.0  0.35531  0.06126000000000001  0.9580299999999998  1.0000
  H   H57       1.0  0.43245000000000006  0.14427000000000006  0.31303  1.0000
  H   H58       1.0  0.44727000000000006  0.9798900000000001  0.5940699999999999  1.0000
  H   H59       1.0  0.30487999999999993  0.90043  0.35773  1.0000
  H   H60       1.0  0.37253  0.97792  0.29058  1.0000
  H   H61       1.0  0.37822000000000006  0.9006  0.64512  1.0000
  H   H62       1.0  0.7807  0.64669  0.26156  1.0000
  H   H63       1.0  0.63822  0.56711  0.02549  1.0000
  H   H64       1.0  0.7059200000000001  0.6445500000000002  0.9580399999999999  1.0000
  H   H65       1.0  0.71182  0.5673  0.3124  1.0000
  H   H66       1.0  0.53246  0.5526  0.5946199999999999  1.0000
  H   H67       1.0  0.5957200000000001  0.6949100000000002  0.35847999999999997  1.0000
  H   H68       1.0  0.60559  0.6273800000000003  0.29129  1.0000
  H   H69       1.0  0.52219  0.62147  0.64552  1.0000
  H   H70       1.0  0.34531  0.57295  0.9563899999999999  1.0000
  H   H71       1.0  0.15855  0.44229  0.0010499999999999997  1.0000
  H   H72       1.0  0.15562  0.44187  0.21719999999999998  1.0000
  H   H73       1.0  0.4269299999999999  0.65454  0.95634  1.0000
  H   H74       1.0  0.28646  0.44184  0.21709999999999996  1.0000
  H   H75       1.0  0.28396  0.44226  0.0009499999999999998  1.0000
  H   H76       1.0  0.19955000000000006  0.3137000000000001  0.92634  1.0000
  H   H77       1.0  0.26221  0.2339  0.6905499999999999  1.0000
  H   H78       1.0  0.2721  0.31126  0.62271  1.0000
  H   H79       1.0  0.18923  0.23453000000000004  0.97802  1.0000
  H   H80       1.0  0.24253  0.48473  0.6354699999999999  1.0000
  H   H81       1.0  0.42692  0.77235  0.9563799999999998  1.0000
  H   H82       1.0  0.55768  0.71605  0.00106  1.0000
  H   H83       1.0  0.55817  0.71368  0.21719999999999998  1.0000
  H   H84       1.0  0.34527  0.77201  0.95618  1.0000
  H   H85       1.0  0.55822  0.8445  0.217  1.0000
  H   H86       1.0  0.55768  0.84144  0.0008399999999999998  1.0000
  H   H87       1.0  0.68662  0.88586  0.92678  1.0000
  H   H88       1.0  0.76575  0.028510000000000004  0.69167  1.0000
  H   H89       1.0  0.68862  0.96063  0.6233999999999998  1.0000
  H   H90       1.0  0.7654700000000001  0.9551600000000002  0.9790799999999998  1.0000
  H   H91       1.0  0.51493  0.75751  0.63572  1.0000
  H   H92       1.0  0.22782000000000005  0.65467  0.9555699999999998  1.0000
  H   H93       1.0  0.28295999999999993  0.84306  0.0012299999999999998  1.0000
  H   H94       1.0  0.28639000000000003  0.8446300000000001  0.21675  1.0000
  H   H95       1.0  0.22751000000000005  0.57307  0.9560299999999998  1.0000
  H   H96       1.0  0.15537  0.71378  0.21589999999999995  1.0000
  H   H97       1.0  0.15731  0.71748  0.00058  1.0000
  H   H98       1.0  0.11394000000000001  0.80054  0.9261999999999999  1.0000
  H   H99       1.0  0.97139  0.7372700000000002  0.69044  1.0000
  H   H100      1.0  0.03912000000000009  0.7277800000000002  0.62267  1.0000
  H   H101      1.0  0.04480999999999998  0.8104  0.9781399999999998  1.0000
  H   H102      1.0  0.24197  0.75736  0.6358999999999999  1.0000
  H   H103      1.0  0.68639  0.80062  0.92642  1.0000
  H   H104      1.0  0.76576  0.7372800000000003  0.69148  1.0000
  H   H105      1.0  0.6886800000000001  0.7279200000000002  0.62288  1.0000
  H   H106      1.0  0.76519  0.81029  0.97902  1.0000
  H   H107      1.0  0.11412000000000003  0.3132400000000001  0.9268299999999998  1.0000
  H   H108      1.0  0.97165  0.23415  0.6905699999999999  1.0000
  H   H109      1.0  0.039459999999999974  0.31152  0.6233199999999999  1.0000
  H   H110      1.0  0.04488000000000002  0.23423000000000002  0.9780499999999998  1.0000
  H   H111      1.0  0.19927  0.88603  0.9275599999999998  1.0000
  H   H112      1.0  0.26274  0.02841  0.69141  1.0000
  H   H113      1.0  0.27229000000000003  0.96069  0.6241099999999999  1.0000
  H   H114      1.0  0.18960000000000013  0.9552200000000002  0.9792199999999998  1.0000
  H   H115      1.0  0.012220000000000005  0.90642  0.28793  1.0000
  H   H116      1.0  0.82425  0.77354  0.33234  1.0000
  H   H117      1.0  0.82201  0.77495  0.5477199999999999  1.0000
  H   H118      1.0  0.09375000000000003  0.9877800000000001  0.28761  1.0000
  H   H119      1.0  0.95303  0.77511  0.54855  1.0000
  H   H120      1.0  0.94973  0.77363  0.33285  1.0000
  H   H121      1.0  0.90847  0.81772  0.96651  1.0000
  H   H122      1.0  0.09337  0.10579000000000002  0.28879  1.0000
  H   H123      1.0  0.22638000000000003  0.050690000000000006  0.33277  1.0000
  H   H124      1.0  0.22506  0.04726  0.54819  1.0000
  H   H125      1.0  0.012050000000000016  0.10581000000000003  0.2886  1.0000
  H   H126      1.0  0.22493  0.17806  0.54856  1.0000
  H   H127      1.0  0.22628000000000006  0.17602000000000007  0.33281999999999995  1.0000
  H   H128      1.0  0.1823  0.09131  0.9663999999999999  1.0000
  H   H129      1.0  0.8939900000000001  0.9877700000000001  0.2873  1.0000
  H   H130      1.0  0.94977  0.17617  0.33288999999999996  1.0000
  H   H131      1.0  0.95312  0.17809  0.54857  1.0000
  H   H132      1.0  0.8939  0.90633  0.2874399999999999  1.0000
  H   H133      1.0  0.82203  0.04715  0.5478  1.0000
  H   H134      1.0  0.82423  0.05075000000000001  0.33245  1.0000
  H   H135      1.0  0.90886  0.09126  0.9662899999999999  1.0000
  C   C1        1.0  0.7483  0.09663  0.10555999999999999  1.0000
  C   C2        1.0  0.55363  0.10734  0.03073  1.0000
  C   C3        1.0  0.78883  0.08990000000000002  0.07408  1.0000
  C   C4        1.0  0.65501  0.18289  0.42003  1.0000
  C   C5        1.0  0.5538  0.10746  0.9016199999999999  1.0000
  C   C6        1.0  0.70384  0.25298  0.5523199999999999  1.0000
  C   C7        1.0  0.74977  0.12015  0.20675999999999994  1.0000
  C   C8        1.0  0.6708100000000001  0.08479000000000003  0.07336999999999999  1.0000
  C   C9        1.0  0.51832  0.10680000000000003  0.72053  1.0000
  C   C10       1.0  0.6959100000000003  0.22856000000000007  0.44994999999999996  1.0000
  C   C11       1.0  0.70803  0.07923  0.03706999999999999  1.0000
  C   C12       1.0  0.71165  0.12534  0.23562  1.0000
  C   C13       1.0  0.51732  0.10742  0.8394999999999999  1.0000
  C   C14       1.0  0.81679  0.34431  0.41935  1.0000
  C   C15       1.0  0.74682  0.2957  0.5523  1.0000
  C   C16       1.0  0.77112  0.30347  0.44978  1.0000
  C   C17       1.0  0.59037  0.10754  0.8397399999999998  1.0000
  C   C18       1.0  0.58886  0.10689000000000003  0.7207  1.0000
  C   C19       1.0  0.57  0.98494  0.44010999999999995  1.0000
  C   C20       1.0  0.57682  0.03221  0.40834  1.0000
  C   C21       1.0  0.54633  0.9627600000000002  0.54105  1.0000
  C   C22       1.0  0.58187  0.91935  0.40769  1.0000
  C   C23       1.0  0.58754  0.9621900000000001  0.37177  1.0000
  C   C24       1.0  0.54113  0.91944  0.56973  1.0000
  C   C25       1.0  0.9031100000000001  0.6518000000000002  0.10590999999999998  1.0000
  C   C26       1.0  0.89275  0.44645  0.030779999999999995  1.0000
  C   C27       1.0  0.90966  0.69902  0.07471  1.0000
  C   C28       1.0  0.81691  0.47213  0.41976  1.0000
  C   C29       1.0  0.89264  0.44648  0.90165  1.0000
  C   C30       1.0  0.74692  0.45075  0.55274  1.0000
  C   C31       1.0  0.87962  0.6297  0.20707  1.0000
  C   C32       1.0  0.91516  0.58629  0.07383999999999999  1.0000
  C   C33       1.0  0.89319  0.41159  0.7204999999999999  1.0000
  C   C34       1.0  0.77134  0.46742  0.45041  1.0000
  C   C35       1.0  0.92072  0.62908  0.03763  1.0000
  C   C36       1.0  0.87451  0.58645  0.23598  1.0000
  C   C37       1.0  0.89267  0.41004000000000007  0.8394899999999998  1.0000
  C   C38       1.0  0.65569  0.47261000000000003  0.4203299999999999  1.0000
  C   C39       1.0  0.70421  0.45102  0.55315  1.0000
  C   C40       1.0  0.69646  0.46773  0.45092  1.0000
  C   C41       1.0  0.8925299999999999  0.48292  0.8397599999999998  1.0000
  C   C42       1.0  0.8931  0.4820000000000001  0.7207  1.0000
  C   C43       1.0  0.015020000000000117  0.5849700000000002  0.44003  1.0000
  C   C44       1.0  0.96765  0.54459  0.40843  1.0000
  C   C45       1.0  0.03715000000000001  0.58347  0.541  1.0000
  C   C46       1.0  0.08061999999999998  0.66251  0.40790999999999994  1.0000
  C   C47       1.0  0.037819999999999986  0.62526  0.37170999999999993  1.0000
  C   C48       1.0  0.08041  0.62168  0.57005  1.0000
  C   C49       1.0  0.34834  0.2516  0.10698  1.0000
  C   C50       1.0  0.55346  0.4467  0.03094  1.0000
  C   C51       1.0  0.30103  0.21104  0.07505  1.0000
  C   C52       1.0  0.52752  0.34434  0.42013  1.0000
  C   C53       1.0  0.55384  0.44623  0.90184  1.0000
  C   C54       1.0  0.54893  0.29575  0.55305  1.0000
  C   C55       1.0  0.37049  0.25011  0.20802  1.0000
  C   C56       1.0  0.4141  0.32912  0.075  1.0000
  C   C57       1.0  0.58962  0.48093  0.72115  1.0000
  C   C58       1.0  0.53229  0.30352  0.45073  1.0000
  C   C59       1.0  0.3712  0.29196  0.0389  1.0000
  C   C60       1.0  0.41389000000000004  0.28820000000000007  0.23682  1.0000
  C   C61       1.0  0.59064  0.4825200000000001  0.84017  1.0000
  C   C62       1.0  0.52747  0.18295  0.4196499999999999  1.0000
  C   C63       1.0  0.54894  0.25291  0.5528899999999999  1.0000
  C   C64       1.0  0.53225  0.22852000000000006  0.45048999999999995  1.0000
  C   C65       1.0  0.51752  0.40942  0.8401999999999998  1.0000
  C   C66       1.0  0.5190600000000001  0.4104000000000001  0.72117  1.0000
  C   C67       1.0  0.41524  0.43026  0.43828999999999996  1.0000
  C   C68       1.0  0.45581000000000005  0.4235700000000001  0.40666999999999986  1.0000
  C   C69       1.0  0.41667  0.45369  0.5396599999999999  1.0000
  C   C70       1.0  0.33754  0.41808  0.4070799999999999  1.0000
  C   C71       1.0  0.37476  0.41258  0.37042999999999987  1.0000
  C   C72       1.0  0.37853  0.45878  0.56897  1.0000
  C   C73       1.0  0.90308  0.25159  0.10679  1.0000
  C   C74       1.0  0.90975  0.21099  0.07502999999999999  1.0000
  C   C75       1.0  0.87953  0.25012  0.20798999999999998  1.0000
  C   C76       1.0  0.91515  0.32923  0.07544999999999999  1.0000
  C   C77       1.0  0.92066  0.29201000000000005  0.03886  1.0000
  C   C78       1.0  0.87446  0.2882800000000001  0.23730999999999997  1.0000
  C   C79       1.0  0.015239999999999986  0.43018  0.43829999999999997  1.0000
  C   C80       1.0  0.9682  0.42393  0.40648  1.0000
  C   C81       1.0  0.03718999999999999  0.45355  0.53972  1.0000
  C   C82       1.0  0.08067999999999999  0.41797  0.40696  1.0000
  C   C83       1.0  0.03795999999999999  0.41249  0.3703099999999999  1.0000
  C   C84       1.0  0.08041  0.45861  0.569  1.0000
  C   C85       1.0  0.34839  0.09666  0.10597999999999999  1.0000
  C   C86       1.0  0.30115  0.09001000000000003  0.0742  1.0000
  C   C87       1.0  0.37037  0.12017  0.2073  1.0000
  C   C88       1.0  0.41401  0.08468000000000002  0.07459  1.0000
  C   C89       1.0  0.3713  0.07922  0.037849999999999995  1.0000
  C   C90       1.0  0.41362000000000004  0.12528  0.23666  1.0000
  C   C91       1.0  0.41491  0.98462  0.4382399999999999  1.0000
  C   C92       1.0  0.45564  0.03171  0.40646  1.0000
  C   C93       1.0  0.41635000000000005  0.9627000000000001  0.53962  1.0000
  C   C94       1.0  0.33731  0.91905  0.40653  1.0000
  C   C95       1.0  0.37453  0.96183  0.3701199999999999  1.0000
  C   C96       1.0  0.37821  0.91943  0.5686899999999999  1.0000
  C   C97       1.0  0.74821  0.6514800000000001  0.10592999999999997  1.0000
  C   C98       1.0  0.78871  0.69877  0.07423  1.0000
  C   C99       1.0  0.74977  0.62951  0.20712999999999998  1.0000
  C   C100      1.0  0.67068  0.5857300000000002  0.07423  1.0000
  C   C101      1.0  0.70787  0.62852  0.03772  1.0000
  C   C102      1.0  0.7117  0.58615  0.23612  1.0000
  C   C103      1.0  0.56969  0.5848200000000001  0.43858999999999987  1.0000
  C   C104      1.0  0.57641  0.54427  0.40685999999999994  1.0000
  C   C105      1.0  0.54621  0.58341  0.5398699999999999  1.0000
  C   C106      1.0  0.58178  0.66246  0.40721  1.0000
  C   C107      1.0  0.58734  0.62526  0.37069  1.0000
  C   C108      1.0  0.54109  0.62153  0.56906  1.0000
  C   C109      1.0  0.22028000000000006  0.44019000000000014  0.36284  1.0000
  C   C110      1.0  0.32218  0.51609  0.7541599999999999  1.0000
  C   C111      1.0  0.2206  0.44095  0.23369  1.0000
  C   C112      1.0  0.37058  0.58638  0.88684  1.0000
  C   C113      1.0  0.18573  0.44175  0.05301  1.0000
  C   C114      1.0  0.36293  0.5618  0.78476  1.0000
  C   C115      1.0  0.18427  0.44139  0.17206  1.0000
  C   C116      1.0  0.48375000000000007  0.6774900000000001  0.75406  1.0000
  C   C117      1.0  0.41347  0.62923  0.8868499999999999  1.0000
  C   C118      1.0  0.43801  0.63683  0.7847799999999998  1.0000
  C   C119      1.0  0.25734  0.44138  0.17197  1.0000
  C   C120      1.0  0.25626  0.44176  0.05294  1.0000
  C   C121      1.0  0.23657  0.31826  0.77034  1.0000
  C   C122      1.0  0.24338  0.36546  0.73821  1.0000
  C   C123      1.0  0.2132  0.29646000000000006  0.87188  1.0000
  C   C124      1.0  0.24848000000000003  0.25261  0.73921  1.0000
  C   C125      1.0  0.25403  0.2953  0.70238  1.0000
  C   C126      1.0  0.20805  0.25324  0.90141  1.0000
  C   C127      1.0  0.55981  0.77998  0.36276999999999987  1.0000
  C   C128      1.0  0.48383  0.80601  0.7542099999999998  1.0000
  C   C129      1.0  0.55911  0.7795600000000003  0.23362  1.0000
  C   C130      1.0  0.41351  0.78416  0.88678  1.0000
  C   C131      1.0  0.5582300000000001  0.7437900000000001  0.05298  1.0000
  C   C132      1.0  0.43815  0.80116  0.78483  1.0000
  C   C133      1.0  0.55865  0.74278  0.17202  1.0000
  C   C134      1.0  0.32218  0.80587  0.7539299999999998  1.0000
  C   C135      1.0  0.3706  0.78406  0.8867299999999998  1.0000
  C   C136      1.0  0.363  0.80107  0.7847999999999999  1.0000
  C   C137      1.0  0.55867  0.81584  0.17188  1.0000
  C   C138      1.0  0.55823  0.81429  0.05285  1.0000
  C   C139      1.0  0.68187  0.91813  0.7707499999999999  1.0000
  C   C140      1.0  0.63477  0.87747  0.73833  1.0000
  C   C141      1.0  0.70371  0.91679  0.8724299999999999  1.0000
  C   C142      1.0  0.7471700000000001  0.9960200000000001  0.74022  1.0000
  C   C143      1.0  0.70462  0.95864  0.70311  1.0000
  C   C144      1.0  0.74676  0.9551100000000002  0.9023199999999998  1.0000
  C   C145      1.0  0.22030000000000016  0.7794900000000002  0.36267  1.0000
  C   C146      1.0  0.19403000000000012  0.6777900000000002  0.75369  1.0000
  C   C147      1.0  0.22043000000000004  0.77962  0.23353  1.0000
  C   C148      1.0  0.21578999999999995  0.62933  0.8861599999999997  1.0000
  C   C149      1.0  0.25538  0.8155  0.05273  1.0000
  C   C150      1.0  0.19878  0.6369  0.7841699999999999  1.0000
  C   C151      1.0  0.25696  0.81621  0.17176  1.0000
  C   C152      1.0  0.1937  0.516  0.7541599999999999  1.0000
  C   C153      1.0  0.21567000000000003  0.58643  0.8863899999999999  1.0000
  C   C154      1.0  0.19863999999999998  0.56175  0.7844999999999998  1.0000
  C   C155      1.0  0.18390999999999993  0.74323  0.17127  1.0000
  C   C156      1.0  0.1848300000000001  0.7450000000000002  0.052309999999999995  1.0000
  C   C157      1.0  0.08159  0.76351  0.77024  1.0000
  C   C158      1.0  0.1224  0.75732  0.73813  1.0000
  C   C159      1.0  0.08299000000000013  0.7867500000000002  0.8718699999999999  1.0000
  C   C160      1.0  0.003840000000000024  0.75116  0.7392  1.0000
  C   C161      1.0  0.04114000000000011  0.7458200000000003  0.7023499999999999  1.0000
  C   C162      1.0  0.04476000000000004  0.79165  0.9014399999999999  1.0000
  C   C163      1.0  0.68173  0.76356  0.77038  1.0000
  C   C164      1.0  0.6346  0.75701  0.7381499999999998  1.0000
  C   C165      1.0  0.70352  0.7868000000000002  0.8721199999999998  1.0000
  C   C166      1.0  0.74711  0.75112  0.74001  1.0000
  C   C167      1.0  0.70457  0.7459000000000002  0.70271  1.0000
  C   C168      1.0  0.74656  0.79159  0.90218  1.0000
  C   C169      1.0  0.08187000000000003  0.3182  0.7707499999999999  1.0000
  C   C170      1.0  0.12245000000000002  0.36536  0.73847  1.0000
  C   C171      1.0  0.08325  0.29623000000000005  0.87217  1.0000
  C   C172      1.0  0.004100000000000002  0.25272  0.73937  1.0000
  C   C173      1.0  0.041420000000000005  0.29541  0.70282  1.0000
  C   C174      1.0  0.044979999999999985  0.25307  0.9015199999999999  1.0000
  C   C175      1.0  0.23676999999999995  0.91842  0.7719199999999999  1.0000
  C   C176      1.0  0.24342999999999992  0.87785  0.74  1.0000
  C   C177      1.0  0.21327000000000002  0.91697  0.87318  1.0000
  C   C178      1.0  0.24889000000000008  0.9960300000000001  0.7403599999999999  1.0000
  C   C179      1.0  0.25432  0.95877  0.70382  1.0000
  C   C180      1.0  0.2083500000000001  0.9552100000000002  0.90257  1.0000
  C   C181      1.0  0.8869499999999999  0.77404  0.69465  1.0000
  C   C182      1.0  0.9887600000000001  0.84954  0.08536999999999999  1.0000
  C   C183      1.0  0.88711  0.77421  0.5654699999999999  1.0000
  C   C184      1.0  0.037389999999999965  0.91972  0.21814999999999998  1.0000
  C   C185      1.0  0.8517  0.77354  0.3842699999999999  1.0000
  C   C186      1.0  0.029650000000000048  0.8951300000000001  0.11606999999999999  1.0000
  C   C187      1.0  0.85064  0.77415  0.50325  1.0000
  C   C188      1.0  0.15031  0.011090000000000001  0.08498999999999998  1.0000
  C   C189      1.0  0.08029000000000006  0.9625500000000001  0.21797  1.0000
  C   C190      1.0  0.10476000000000002  0.97015  0.11573999999999998  1.0000
  C   C191      1.0  0.9236699999999999  0.77423  0.50363  1.0000
  C   C192      1.0  0.92221  0.77359  0.38457999999999987  1.0000
  C   C193      1.0  0.22594000000000003  0.11319000000000003  0.69487  1.0000
  C   C194      1.0  0.15024  0.13925  0.08565999999999997  1.0000
  C   C195      1.0  0.22580000000000003  0.11309000000000002  0.56567  1.0000
  C   C196      1.0  0.08007  0.11757  0.21888999999999995  1.0000
  C   C197      1.0  0.22641  0.07819  0.38457  1.0000
  C   C198      1.0  0.10464  0.13441  0.11677999999999997  1.0000
  C   C199      1.0  0.22584  0.07662  0.50357  1.0000
  C   C200      1.0  0.9888400000000002  0.13926  0.08562  1.0000
  C   C201      1.0  0.03722  0.11758  0.21881999999999993  1.0000
  C   C202      1.0  0.029590000000000012  0.13443  0.11664999999999999  1.0000
  C   C203      1.0  0.22578  0.14955  0.5036999999999999  1.0000
  C   C204      1.0  0.22637  0.14862  0.38466  1.0000
  C   C205      1.0  0.88711  0.11308000000000003  0.69476  1.0000
  C   C206      1.0  0.86067  0.011100000000000002  0.08493999999999999  1.0000
  C   C207      1.0  0.88719  0.11305000000000003  0.56557  1.0000
  C   C208      1.0  0.88208  0.9625100000000001  0.21770999999999993  1.0000
  C   C209      1.0  0.92224  0.1487  0.3846399999999999  1.0000
  C   C210      1.0  0.8652  0.97013  0.11556999999999998  1.0000
  C   C211      1.0  0.92373  0.14957  0.50369  1.0000
  C   C212      1.0  0.86058  0.84958  0.08493999999999999  1.0000
  C   C213      1.0  0.88205  0.91967  0.21775999999999995  1.0000
  C   C214      1.0  0.86515  0.8951100000000001  0.11563999999999999  1.0000
  C   C215      1.0  0.85067  0.07659  0.50336  1.0000
  C   C216      1.0  0.8517  0.07823000000000001  0.3843599999999999  1.0000
  S   S1        1.0  0.74096  0.25842  0.35305  1.0000
  S   S2        1.0  0.74149  0.48279  0.35409  1.0000
  S   S3        1.0  0.51716  0.25848  0.35392  1.0000
  S   S4        1.0  0.40817999999999993  0.59158  0.68839  1.0000
  S   S5        1.0  0.40836  0.81667  0.68858  1.0000
  S   S6        1.0  0.18318  0.59151  0.68805  1.0000
  S   S7        1.0  0.07485999999999998  0.92486  0.01948  1.0000
  S   S8        1.0  0.07486  0.14982  0.02033  1.0000
  S   S9        1.0  0.84971  0.92486  0.01923  1.0000
  N   N1        1.0  0.55335  0.10629  0.6613599999999998  1.0000
  N   N2        1.0  0.67221  0.10756  0.17108999999999996  1.0000
  N   N3        1.0  0.55899  0.89786  0.5051899999999999  1.0000
  N   N4        1.0  0.89363  0.44706  0.66132  1.0000
  N   N5        1.0  0.89232  0.56486  0.1714  1.0000
  N   N6        1.0  0.1019600000000001  0.6611700000000003  0.5057199999999998  1.0000
  N   N7        1.0  0.55445  0.44555  0.6622899999999999  1.0000
  N   N8        1.0  0.43558  0.32766  0.17244  1.0000
  N   N9        1.0  0.33901  0.44093  0.50473  1.0000
  N   N10       1.0  0.8924  0.32783  0.17322999999999997  1.0000
  N   N11       1.0  0.10205999999999997  0.4408  0.50462  1.0000
  N   N12       1.0  0.43525  0.10735  0.17258  1.0000
  N   N13       1.0  0.3388000000000001  0.8977000000000003  0.50411  1.0000
  N   N14       1.0  0.67219  0.56441  0.17188  1.0000
  N   N15       1.0  0.5588900000000002  0.6610100000000002  0.50475  1.0000
  N   N16       1.0  0.22102  0.44181  0.9941399999999999  1.0000
  N   N17       1.0  0.22578  0.23147  0.83715  1.0000
  N   N18       1.0  0.55811  0.7789500000000003  0.99408  1.0000
  N   N19       1.0  0.76838  0.99466  0.8382299999999999  1.0000
  N   N20       1.0  0.21983  0.78063  0.9932999999999997  1.0000
  N   N21       1.0  0.0052700000000000125  0.77384  0.83709  1.0000
  N   N22       1.0  0.76821  0.77365  0.8381999999999998  1.0000
  N   N23       1.0  0.005480000000000003  0.23144  0.83718  1.0000
  N   N24       1.0  0.22626000000000007  0.99471  0.8382699999999997  1.0000
  N   N25       1.0  0.88676  0.77308  0.32528  1.0000
  N   N26       1.0  0.22686  0.11365  0.32544  1.0000
  N   N27       1.0  0.88676  0.11374  0.3253499999999999  1.0000
  O   O1        1.0  0.55808  0.11640000000000003  0.30815  1.0000
  O   O2        1.0  0.81732  0.09545  0.15352  1.0000
  O   O3        1.0  0.79018  0.07846000000000003  0.96993  1.0000
  O   O4        1.0  0.65473  0.16842  0.31664999999999993  1.0000
  O   O5        1.0  0.58833  0.10722  0.07895999999999999  1.0000
  O   O6        1.0  0.62428  0.16171  0.49658999999999986  1.0000
  O   O7        1.0  0.83042  0.34548  0.31476  1.0000
  O   O8        1.0  0.8387000000000001  0.37433  0.49698  1.0000
  O   O9        1.0  0.51873  0.10727  0.07848999999999999  1.0000
  O   O10       1.0  0.56974  0.05455  0.48633  1.0000
  O   O11       1.0  0.59022  0.04567  0.3052599999999999  1.0000
  O   O12       1.0  0.54909  0.77445  0.63895  1.0000
  O   O13       1.0  0.48427  0.054480000000000015  0.4858  1.0000
  O   O14       1.0  0.62173  0.87657  0.63469  1.0000
  O   O15       1.0  0.49813999999999997  0.8201700000000002  0.6508899999999999  1.0000
  O   O16       1.0  0.5605  0.81513  0.4105299999999999  1.0000
  O   O17       1.0  0.53585  0.16115  0.4969299999999999  1.0000
  O   O18       1.0  0.8834  0.44183  0.30812999999999996  1.0000
  O   O19       1.0  0.90297  0.72129  0.15375999999999998  1.0000
  O   O20       1.0  0.92241  0.71253  0.9714199999999997  1.0000
  O   O21       1.0  0.83129  0.4864900000000001  0.31640999999999997  1.0000
  O   O22       1.0  0.89273  0.4812  0.07904  1.0000
  O   O23       1.0  0.8381  0.46236  0.49581999999999987  1.0000
  O   O24       1.0  0.65493  0.48537  0.31575  1.0000
  O   O25       1.0  0.62544  0.46432  0.49736999999999987  1.0000
  O   O26       1.0  0.89291  0.41169  0.07852  1.0000
  O   O27       1.0  0.94536  0.51514  0.4863499999999999  1.0000
  O   O28       1.0  0.95404  0.54468  0.3056  1.0000
  O   O29       1.0  0.22505999999999995  0.77455  0.63986  1.0000
  O   O30       1.0  0.94551  0.42994  0.48576  1.0000
  O   O31       1.0  0.12383999999999998  0.74605  0.6338  1.0000
  O   O32       1.0  0.17976000000000006  0.6780900000000002  0.65065  1.0000
  O   O33       1.0  0.18549000000000004  0.7445500000000002  0.41043  1.0000
  O   O34       1.0  0.55868  0.44141  0.30753  1.0000
  O   O35       1.0  0.2787  0.18179000000000003  0.15346  1.0000
  O   O36       1.0  0.28758  0.21064  0.97179  1.0000
  O   O37       1.0  0.51495  0.34521  0.31540999999999997  1.0000
  O   O38       1.0  0.51883  0.41173  0.07882  1.0000
  O   O39       1.0  0.53569  0.37449  0.4973199999999999  1.0000
  O   O40       1.0  0.51484  0.16936000000000004  0.31508  1.0000
  O   O41       1.0  0.58784  0.4819600000000001  0.07867999999999999  1.0000
  O   O42       1.0  0.48466  0.42981  0.48584  1.0000
  O   O43       1.0  0.45672000000000007  0.41099000000000013  0.3034299999999999  1.0000
  O   O44       1.0  0.2255  0.45059  0.639  1.0000
  O   O45       1.0  0.57011  0.51535  0.48588  1.0000
  O   O46       1.0  0.25476  0.37808  0.6340599999999998  1.0000
  O   O47       1.0  0.32207  0.50171  0.65091  1.0000
  O   O48       1.0  0.25465000000000004  0.43929000000000007  0.4105  1.0000
  O   O49       1.0  0.90299  0.18187000000000003  0.15367  1.0000
  O   O50       1.0  0.92266  0.21043  0.9717199999999998  1.0000
  O   O51       1.0  0.95529  0.41236  0.3024  1.0000
  O   O52       1.0  0.12319000000000001  0.37861  0.6351199999999999  1.0000
  O   O53       1.0  0.17995  0.50189  0.6504899999999999  1.0000
  O   O54       1.0  0.18569000000000005  0.44058000000000014  0.4107499999999999  1.0000
  O   O55       1.0  0.27818  0.09554  0.15358  1.0000
  O   O56       1.0  0.28841  0.07865  0.96996  1.0000
  O   O57       1.0  0.45696  0.04456  0.30236999999999997  1.0000
  O   O58       1.0  0.25659000000000004  0.87742  0.6369299999999999  1.0000
  O   O59       1.0  0.3222400000000001  0.8203000000000001  0.65078  1.0000
  O   O60       1.0  0.25496  0.81436  0.41095  1.0000
  O   O61       1.0  0.81722  0.72181  0.15354999999999996  1.0000
  O   O62       1.0  0.7900200000000001  0.7114700000000003  0.9700199999999999  1.0000
  O   O63       1.0  0.58903  0.54343  0.3036499999999999  1.0000
  O   O64       1.0  0.6214  0.7448000000000002  0.63462  1.0000
  O   O65       1.0  0.49768000000000007  0.6776000000000002  0.65034  1.0000
  O   O66       1.0  0.5595200000000001  0.7450500000000002  0.41062999999999994  1.0000
  O   O67       1.0  0.29124000000000005  0.4948800000000001  0.83018  1.0000
  O   O68       1.0  0.50545  0.70823  0.83017  1.0000
  O   O69       1.0  0.23836  0.38887000000000005  0.81739  1.0000
  O   O70       1.0  0.2164  0.10837  0.9716499999999999  1.0000
  O   O71       1.0  0.15154  0.3881  0.81719  1.0000
  O   O72       1.0  0.16453  0.15377  0.9824299999999998  1.0000
  O   O73       1.0  0.22606000000000004  0.14805000000000001  0.7428899999999999  1.0000
  O   O74       1.0  0.20282000000000003  0.4944800000000001  0.83045  1.0000
  O   O75       1.0  0.5051200000000002  0.7963300000000002  0.8300599999999999  1.0000
  O   O76       1.0  0.2910000000000001  0.7960200000000002  0.82936  1.0000
  O   O77       1.0  0.61188  0.84856  0.8171799999999999  1.0000
  O   O78       1.0  0.89177  0.10824  0.9716399999999998  1.0000
  O   O79       1.0  0.61178  0.76301  0.81722  1.0000
  O   O80       1.0  0.84656  0.01146  0.98175  1.0000
  O   O81       1.0  0.8522  0.07827  0.74257  1.0000
  O   O82       1.0  0.20401000000000005  0.7088  0.82976  1.0000
  O   O83       1.0  0.15098  0.76301  0.8173699999999999  1.0000
  O   O84       1.0  0.89141  0.78364  0.97168  1.0000
  O   O85       1.0  0.23642  0.84854  0.8182199999999997  1.0000
  O   O86       1.0  0.9887  0.83511  0.9821599999999999  1.0000
  O   O87       1.0  0.92168  0.77395  0.74275  1.0000
  O   O88       1.0  0.84636  0.83507  0.98182  1.0000
  O   O89       1.0  0.85202  0.77388  0.7425099999999998  1.0000
  O   O90       1.0  0.98895  0.15373  0.9824199999999998  1.0000
  O   O91       1.0  0.92186  0.14794  0.7428799999999999  1.0000
  O   O92       1.0  0.16476  0.01146  0.9817599999999997  1.0000
  O   O93       1.0  0.22607000000000002  0.07842000000000003  0.7426899999999999  1.0000
  O   O94       1.0  0.9576500000000001  0.8282900000000001  0.16092  1.0000
  O   O95       1.0  0.17136  0.04207  0.16109  1.0000
  O   O96       1.0  0.8706900000000001  0.8286800000000002  0.16092999999999996  1.0000
  O   O97       1.0  0.17161  0.12939  0.16082999999999997  1.0000
  O   O98       1.0  0.95766  0.12942  0.16097999999999998  1.0000
  O   O99       1.0  0.87068  0.04209  0.16103  1.0000
