data_image0
_chemical_formula_structural       La6H90C162O36
_chemical_formula_sum              "La6 H90 C162 O36"
_cell_length_a       16.5428
_cell_length_b       16.5428
_cell_length_c       24.3988
_cell_angle_alpha    90.0
_cell_angle_beta     90.0
_cell_angle_gamma    119.99999999999999

_symmetry_space_group_name_H-M    'P 1'
_symmetry_Int_Tables_number       1

loop_
  _symmetry_equiv_pos_as_xyz
  'x,y,z'

loop_
  _atom_site_type_symbol
  _atom_site_label
  _atom_site_symmetry_multiplicity
  _atom_site_fract_x
  _atom_site_fract_y
  _atom_site_fract_z
  _atom_site_occupancy
  La  La1       1.0  0.08098  0.08098  0.0  1.0000
  La  La2       1.0  0.0  0.91902  0.33332999999999996  1.0000
  La  La3       1.0  0.91902  0.0  0.66667  1.0000
  La  La4       1.0  0.91902  0.91902  0.5  1.0000
  La  La5       1.0  0.0  0.08098  0.8333299999999998  1.0000
  La  La6       1.0  0.08098  0.0  0.16667  1.0000
  H   H1        1.0  0.9831  0.3220999999999999  0.0019  1.0000
  H   H2        1.0  0.8873  0.3873999999999999  0.9922999999999998  1.0000
  H   H3        1.0  0.7197  0.1752  0.8925  1.0000
  H   H4        1.0  0.8109000000000002  0.10629999999999998  0.9065  1.0000
  H   H5        1.0  0.8497999999999999  0.4710999999999999  0.9388  1.0000
  H   H6        1.0  0.8748  0.6066  0.9833999999999999  1.0000
  H   H7        1.0  0.9585000000000002  0.7682999999999998  0.982  1.0000
  H   H8        1.0  0.33900000000000013  0.0169  0.33523  1.0000
  H   H9        1.0  0.5001000000000001  0.1127  0.32563  1.0000
  H   H10       1.0  0.45549999999999996  0.2803  0.22582999999999998  1.0000
  H   H11       1.0  0.29540000000000005  0.18909999999999993  0.23982999999999996  1.0000
  H   H12       1.0  0.6213  0.1502  0.27213  1.0000
  H   H13       1.0  0.7318  0.1252  0.31673  1.0000
  H   H14       1.0  0.8098000000000001  0.041499999999999995  0.31533  1.0000
  H   H15       1.0  0.6779  0.661  0.66857  1.0000
  H   H16       1.0  0.6126  0.4998999999999999  0.6589699999999998  1.0000
  H   H17       1.0  0.8248  0.5445  0.55917  1.0000
  H   H18       1.0  0.8937000000000003  0.7046  0.57317  1.0000
  H   H19       1.0  0.5288999999999999  0.37869999999999987  0.60547  1.0000
  H   H20       1.0  0.3934000000000001  0.2682  0.65007  1.0000
  H   H21       1.0  0.23169999999999996  0.19019999999999995  0.64867  1.0000
  H   H22       1.0  0.016899999999999943  0.6778999999999998  0.5019  1.0000
  H   H23       1.0  0.1127  0.6125999999999999  0.4923  1.0000
  H   H24       1.0  0.2803  0.8247999999999998  0.3925  1.0000
  H   H25       1.0  0.18910000000000002  0.8937  0.40649999999999986  1.0000
  H   H26       1.0  0.1502  0.5289  0.4388  1.0000
  H   H27       1.0  0.1252  0.3933999999999999  0.4834  1.0000
  H   H28       1.0  0.04149999999999997  0.23169999999999993  0.48199999999999993  1.0000
  H   H29       1.0  0.6609999999999999  0.9830999999999998  0.8352299999999999  1.0000
  H   H30       1.0  0.4999  0.8873  0.82563  1.0000
  H   H31       1.0  0.5444999999999998  0.7196999999999998  0.72583  1.0000
  H   H32       1.0  0.7045999999999999  0.8108999999999997  0.7398299999999999  1.0000
  H   H33       1.0  0.3787  0.8498  0.7721299999999998  1.0000
  H   H34       1.0  0.2681999999999999  0.8747999999999998  0.81673  1.0000
  H   H35       1.0  0.19019999999999998  0.9584999999999998  0.81533  1.0000
  H   H36       1.0  0.3221  0.339  0.16857  1.0000
  H   H37       1.0  0.3874000000000002  0.5001  0.15897  1.0000
  H   H38       1.0  0.17519999999999994  0.45549999999999996  0.05916999999999999  1.0000
  H   H39       1.0  0.10629999999999996  0.2953999999999999  0.07317  1.0000
  H   H40       1.0  0.47109999999999996  0.6213  0.10547  1.0000
  H   H41       1.0  0.6066000000000003  0.7318  0.15007  1.0000
  H   H42       1.0  0.7683  0.8097999999999997  0.14867  1.0000
  H   H43       1.0  0.6609999999999999  0.6778999999999998  0.33143  1.0000
  H   H44       1.0  0.4999  0.6125999999999999  0.34103  1.0000
  H   H45       1.0  0.5445  0.8247999999999998  0.44082999999999994  1.0000
  H   H46       1.0  0.7046  0.8937  0.42682999999999993  1.0000
  H   H47       1.0  0.3787  0.5289  0.39453  1.0000
  H   H48       1.0  0.2682  0.3933999999999999  0.34993  1.0000
  H   H49       1.0  0.19020000000000004  0.23169999999999993  0.35132999999999986  1.0000
  H   H50       1.0  0.3220999999999999  0.9830999999999998  0.9981  1.0000
  H   H51       1.0  0.38740000000000013  0.8873  0.0077  1.0000
  H   H52       1.0  0.17519999999999983  0.7196999999999998  0.10749999999999998  1.0000
  H   H53       1.0  0.10629999999999991  0.8108999999999997  0.0935  1.0000
  H   H54       1.0  0.4711  0.8498  0.06119999999999999  1.0000
  H   H55       1.0  0.6066000000000001  0.8747999999999998  0.0166  1.0000
  H   H56       1.0  0.7683  0.9584999999999998  0.018  1.0000
  H   H57       1.0  0.016899999999999995  0.339  0.66477  1.0000
  H   H58       1.0  0.11270000000000005  0.5001  0.6743699999999999  1.0000
  H   H59       1.0  0.28030000000000005  0.45549999999999996  0.77417  1.0000
  H   H60       1.0  0.18909999999999993  0.2953999999999999  0.76017  1.0000
  H   H61       1.0  0.15019999999999994  0.6213  0.72787  1.0000
  H   H62       1.0  0.12520000000000006  0.7318  0.6832699999999998  1.0000
  H   H63       1.0  0.04149999999999991  0.8097999999999997  0.68467  1.0000
  H   H64       1.0  0.339  0.3220999999999999  0.83143  1.0000
  H   H65       1.0  0.5001000000000001  0.3873999999999999  0.84103  1.0000
  H   H66       1.0  0.4555  0.1752  0.94083  1.0000
  H   H67       1.0  0.29540000000000005  0.10629999999999998  0.92683  1.0000
  H   H68       1.0  0.6213000000000001  0.4710999999999999  0.8945299999999998  1.0000
  H   H69       1.0  0.7318  0.6066  0.84993  1.0000
  H   H70       1.0  0.8098  0.7682999999999998  0.8513299999999999  1.0000
  H   H71       1.0  0.6779  0.0169  0.4981  1.0000
  H   H72       1.0  0.6126  0.1127  0.5077  1.0000
  H   H73       1.0  0.8248  0.2803  0.6075  1.0000
  H   H74       1.0  0.8937000000000003  0.18909999999999993  0.5935  1.0000
  H   H75       1.0  0.5289  0.1502  0.5612  1.0000
  H   H76       1.0  0.3934000000000001  0.1252  0.5166  1.0000
  H   H77       1.0  0.2317  0.041499999999999995  0.518  1.0000
  H   H78       1.0  0.9831  0.661  0.16477  1.0000
  H   H79       1.0  0.8873  0.4998999999999999  0.17436999999999997  1.0000
  H   H80       1.0  0.7197  0.5445  0.27416999999999997  1.0000
  H   H81       1.0  0.8109000000000002  0.7046  0.26017  1.0000
  H   H82       1.0  0.8497999999999999  0.37869999999999987  0.22786999999999996  1.0000
  H   H83       1.0  0.8748000000000002  0.2682  0.18326999999999996  1.0000
  H   H84       1.0  0.9585000000000002  0.19019999999999995  0.18466999999999997  1.0000
  H   H85       1.0  0.6138000000000002  0.2276  0.9166699999999999  1.0000
  H   H86       1.0  0.6138000000000002  0.3861999999999999  0.25  1.0000
  H   H87       1.0  0.7724000000000002  0.3861999999999999  0.58333  1.0000
  H   H88       1.0  0.3862  0.7723999999999998  0.41667  1.0000
  H   H89       1.0  0.3862000000000001  0.6138  0.75  1.0000
  H   H90       1.0  0.22760000000000002  0.6138  0.08333  1.0000
  C   C1        1.0  0.9740000000000001  0.17339999999999997  0.9609  1.0000
  C   C2        1.0  0.9073  0.20929999999999999  0.9552  1.0000
  C   C3        1.0  0.9297999999999998  0.2922999999999999  0.9803  1.0000
  C   C4        1.0  0.8727000000000003  0.3326  0.9738  1.0000
  C   C5        1.0  0.7945  0.2911  0.9396  1.0000
  C   C6        1.0  0.7723  0.2049  0.9146999999999997  1.0000
  C   C7        1.0  0.8273  0.1634  0.9227  1.0000
  C   C8        1.0  0.7405000000000005  0.3385  0.9276  1.0000
  C   C9        1.0  0.7870999999999998  0.4378999999999999  0.929  1.0000
  C   C10       1.0  0.8628000000000003  0.639  0.9565  1.0000
  C   C11       1.0  0.9122000000000001  0.7359999999999998  0.956  1.0000
  C   C12       1.0  0.1994  0.025999999999999992  0.29423  1.0000
  C   C13       1.0  0.302  0.0927  0.28853  1.0000
  C   C14       1.0  0.3625000000000001  0.0702  0.31363  1.0000
  C   C15       1.0  0.4599000000000001  0.1273  0.30713  1.0000
  C   C16       1.0  0.4966  0.2055  0.27293  1.0000
  C   C17       1.0  0.4326000000000001  0.2277  0.24803  1.0000
  C   C18       1.0  0.3361000000000001  0.17269999999999994  0.2560299999999999  1.0000
  C   C19       1.0  0.5980000000000002  0.2595  0.26093  1.0000
  C   C20       1.0  0.6508  0.2129  0.26233  1.0000
  C   C21       1.0  0.7762000000000002  0.1372  0.28983  1.0000
  C   C22       1.0  0.8238  0.08779999999999998  0.28933  1.0000
  C   C23       1.0  0.8265999999999999  0.8005999999999998  0.62757  1.0000
  C   C24       1.0  0.7906999999999998  0.6979999999999998  0.62187  1.0000
  C   C25       1.0  0.7077  0.6375  0.64697  1.0000
  C   C26       1.0  0.6674000000000002  0.5401  0.64047  1.0000
  C   C27       1.0  0.7089000000000002  0.5034  0.60627  1.0000
  C   C28       1.0  0.7951000000000003  0.5674  0.58137  1.0000
  C   C29       1.0  0.8366000000000001  0.6638999999999998  0.58937  1.0000
  C   C30       1.0  0.6615000000000002  0.402  0.59427  1.0000
  C   C31       1.0  0.5621  0.3492  0.59567  1.0000
  C   C32       1.0  0.3610000000000001  0.22379999999999994  0.62317  1.0000
  C   C33       1.0  0.264  0.17619999999999997  0.62267  1.0000
  C   C34       1.0  0.025999999999999884  0.8265999999999998  0.4609  1.0000
  C   C35       1.0  0.0927  0.7907  0.4551999999999999  1.0000
  C   C36       1.0  0.07019999999999998  0.7077  0.4803  1.0000
  C   C37       1.0  0.12729999999999994  0.6673999999999999  0.4737999999999999  1.0000
  C   C38       1.0  0.20549999999999993  0.7088999999999999  0.4396  1.0000
  C   C39       1.0  0.2277  0.7951  0.4146999999999999  1.0000
  C   C40       1.0  0.17269999999999996  0.8366  0.4227  1.0000
  C   C41       1.0  0.2595  0.6614999999999998  0.4276  1.0000
  C   C42       1.0  0.2129  0.5621  0.42899999999999994  1.0000
  C   C43       1.0  0.13719999999999993  0.3609999999999999  0.4564999999999999  1.0000
  C   C44       1.0  0.08780000000000002  0.264  0.45599999999999996  1.0000
  C   C45       1.0  0.8006000000000002  0.974  0.79423  1.0000
  C   C46       1.0  0.698  0.9073  0.7885299999999998  1.0000
  C   C47       1.0  0.6375000000000002  0.9298  0.8136299999999997  1.0000
  C   C48       1.0  0.5401  0.8727  0.80713  1.0000
  C   C49       1.0  0.5033999999999997  0.7944999999999998  0.77293  1.0000
  C   C50       1.0  0.5674000000000001  0.7723  0.7480299999999999  1.0000
  C   C51       1.0  0.6639000000000003  0.8272999999999999  0.75603  1.0000
  C   C52       1.0  0.402  0.7404999999999998  0.7609299999999998  1.0000
  C   C53       1.0  0.3491999999999999  0.7870999999999998  0.76233  1.0000
  C   C54       1.0  0.2238  0.8628  0.7898299999999999  1.0000
  C   C55       1.0  0.17619999999999994  0.9121999999999998  0.78933  1.0000
  C   C56       1.0  0.1734  0.19939999999999994  0.12757  1.0000
  C   C57       1.0  0.20929999999999996  0.3019999999999999  0.12187  1.0000
  C   C58       1.0  0.2923000000000001  0.3625  0.14697  1.0000
  C   C59       1.0  0.33259999999999995  0.45989999999999986  0.14047  1.0000
  C   C60       1.0  0.2911000000000001  0.4965999999999999  0.10627  1.0000
  C   C61       1.0  0.2049  0.4326  0.08136999999999998  1.0000
  C   C62       1.0  0.16340000000000005  0.3361  0.08937  1.0000
  C   C63       1.0  0.33850000000000013  0.598  0.09427  1.0000
  C   C64       1.0  0.4379000000000001  0.6508  0.09567  1.0000
  C   C65       1.0  0.6389999999999999  0.7761999999999998  0.12316999999999997  1.0000
  C   C66       1.0  0.736  0.8237999999999998  0.12266999999999999  1.0000
  C   C67       1.0  0.8006  0.8265999999999998  0.37243  1.0000
  C   C68       1.0  0.698  0.7907  0.3781299999999999  1.0000
  C   C69       1.0  0.6375000000000002  0.7077  0.35303  1.0000
  C   C70       1.0  0.5400999999999999  0.6673999999999999  0.3595299999999999  1.0000
  C   C71       1.0  0.5033999999999998  0.7088999999999999  0.39372999999999997  1.0000
  C   C72       1.0  0.5674000000000001  0.7951  0.4186299999999999  1.0000
  C   C73       1.0  0.6639000000000003  0.8366  0.41063  1.0000
  C   C74       1.0  0.402  0.6614999999999998  0.40573  1.0000
  C   C75       1.0  0.3492  0.5621  0.40433  1.0000
  C   C76       1.0  0.22379999999999997  0.3609999999999999  0.3768299999999999  1.0000
  C   C77       1.0  0.17620000000000005  0.264  0.37733  1.0000
  C   C78       1.0  0.1734  0.974  0.0391  1.0000
  C   C79       1.0  0.20929999999999999  0.9073  0.04479999999999999  1.0000
  C   C80       1.0  0.29230000000000017  0.9298  0.0197  1.0000
  C   C81       1.0  0.3326  0.8727  0.0262  1.0000
  C   C82       1.0  0.2911  0.7944999999999998  0.0604  1.0000
  C   C83       1.0  0.2049  0.7723  0.0853  1.0000
  C   C84       1.0  0.16340000000000005  0.8272999999999999  0.0773  1.0000
  C   C85       1.0  0.3385  0.7404999999999998  0.0724  1.0000
  C   C86       1.0  0.4379  0.7870999999999998  0.071  1.0000
  C   C87       1.0  0.639  0.8628  0.0435  1.0000
  C   C88       1.0  0.736  0.9121999999999998  0.04399999999999999  1.0000
  C   C89       1.0  0.025999999999999968  0.19939999999999994  0.70577  1.0000
  C   C90       1.0  0.09269999999999995  0.3019999999999999  0.71147  1.0000
  C   C91       1.0  0.07020000000000003  0.3625  0.68637  1.0000
  C   C92       1.0  0.12729999999999994  0.45989999999999986  0.6928699999999998  1.0000
  C   C93       1.0  0.2054999999999999  0.4965999999999999  0.7270699999999999  1.0000
  C   C94       1.0  0.22770000000000007  0.4326  0.75197  1.0000
  C   C95       1.0  0.1727  0.3361  0.74397  1.0000
  C   C96       1.0  0.2595000000000001  0.598  0.73907  1.0000
  C   C97       1.0  0.21289999999999998  0.6508  0.73767  1.0000
  C   C98       1.0  0.1371999999999999  0.7761999999999998  0.71017  1.0000
  C   C99       1.0  0.0877999999999999  0.8237999999999998  0.71067  1.0000
  C   C100      1.0  0.1994  0.17339999999999997  0.8724299999999999  1.0000
  C   C101      1.0  0.302  0.20929999999999999  0.8781299999999997  1.0000
  C   C102      1.0  0.36250000000000004  0.2922999999999999  0.8530299999999998  1.0000
  C   C103      1.0  0.4599000000000001  0.3326  0.85953  1.0000
  C   C104      1.0  0.4966  0.2911  0.89373  1.0000
  C   C105      1.0  0.4326000000000001  0.2049  0.9186299999999997  1.0000
  C   C106      1.0  0.33610000000000007  0.1634  0.9106299999999999  1.0000
  C   C107      1.0  0.5980000000000002  0.3385  0.9057299999999998  1.0000
  C   C108      1.0  0.6507999999999999  0.4378999999999999  0.90433  1.0000
  C   C109      1.0  0.7762000000000002  0.639  0.87683  1.0000
  C   C110      1.0  0.8238  0.7359999999999998  0.8773299999999999  1.0000
  C   C111      1.0  0.8266  0.025999999999999992  0.5391  1.0000
  C   C112      1.0  0.7907  0.0927  0.5448  1.0000
  C   C113      1.0  0.7077  0.0702  0.5197  1.0000
  C   C114      1.0  0.6674  0.1273  0.5262  1.0000
  C   C115      1.0  0.7089000000000002  0.2055  0.5604  1.0000
  C   C116      1.0  0.7951000000000003  0.2277  0.5853  1.0000
  C   C117      1.0  0.8366000000000002  0.17269999999999994  0.5773  1.0000
  C   C118      1.0  0.6615000000000003  0.2595  0.5724  1.0000
  C   C119      1.0  0.5621  0.2129  0.571  1.0000
  C   C120      1.0  0.3610000000000001  0.1372  0.5435  1.0000
  C   C121      1.0  0.264  0.08779999999999998  0.5439999999999999  1.0000
  C   C122      1.0  0.9739999999999999  0.8005999999999998  0.20577  1.0000
  C   C123      1.0  0.9073  0.6979999999999998  0.21147  1.0000
  C   C124      1.0  0.9298  0.6375  0.18637  1.0000
  C   C125      1.0  0.8727  0.5401  0.19287  1.0000
  C   C126      1.0  0.7945  0.5034  0.22707  1.0000
  C   C127      1.0  0.7723  0.5674  0.25197  1.0000
  C   C128      1.0  0.8273  0.6638999999999998  0.24397  1.0000
  C   C129      1.0  0.7405000000000005  0.402  0.23906999999999995  1.0000
  C   C130      1.0  0.7871  0.3492  0.23766999999999996  1.0000
  C   C131      1.0  0.8628000000000001  0.22379999999999994  0.21016999999999997  1.0000
  C   C132      1.0  0.9122000000000002  0.17619999999999997  0.21066999999999997  1.0000
  C   C133      1.0  0.6462  0.2924  0.9166699999999999  1.0000
  C   C134      1.0  0.7423  0.4846  0.9166699999999999  1.0000
  C   C135      1.0  0.7953  0.5906  0.9166699999999999  1.0000
  C   C136      1.0  0.8927  0.7853999999999998  0.9166699999999999  1.0000
  C   C137      1.0  0.9448999999999997  0.8897999999999998  0.9166699999999999  1.0000
  C   C138      1.0  0.6462  0.3538  0.25  1.0000
  C   C139      1.0  0.7423  0.2577  0.25  1.0000
  C   C140      1.0  0.7953  0.20469999999999997  0.25  1.0000
  C   C141      1.0  0.8927  0.1073  0.25  1.0000
  C   C142      1.0  0.9449  0.05509999999999999  0.25  1.0000
  C   C143      1.0  0.7076  0.3538  0.58333  1.0000
  C   C144      1.0  0.5154  0.2577  0.58333  1.0000
  C   C145      1.0  0.4094000000000001  0.20469999999999997  0.58333  1.0000
  C   C146      1.0  0.2146  0.1073  0.58333  1.0000
  C   C147      1.0  0.11020000000000002  0.05509999999999999  0.58333  1.0000
  C   C148      1.0  0.3538  0.7076  0.41667  1.0000
  C   C149      1.0  0.2577  0.5154  0.41667  1.0000
  C   C150      1.0  0.20470000000000002  0.40939999999999993  0.41667  1.0000
  C   C151      1.0  0.1073  0.2146  0.41667  1.0000
  C   C152      1.0  0.0551  0.11019999999999998  0.41667  1.0000
  C   C153      1.0  0.3537999999999999  0.6461999999999998  0.75  1.0000
  C   C154      1.0  0.2577  0.7423  0.75  1.0000
  C   C155      1.0  0.20469999999999994  0.7952999999999998  0.75  1.0000
  C   C156      1.0  0.1073  0.8927  0.75  1.0000
  C   C157      1.0  0.05509999999999993  0.9448999999999997  0.75  1.0000
  C   C158      1.0  0.2923999999999999  0.6461999999999998  0.08333  1.0000
  C   C159      1.0  0.4846  0.7423  0.08333  1.0000
  C   C160      1.0  0.5906  0.7952999999999998  0.08333  1.0000
  C   C161      1.0  0.7854  0.8927  0.08333  1.0000
  C   C162      1.0  0.8898000000000001  0.9448999999999997  0.08333  1.0000
  O   O1        1.0  0.9641000000000002  0.10589999999999997  0.9302  1.0000
  O   O2        1.0  0.036999999999999963  0.20849999999999994  0.9955999999999999  1.0000
  O   O3        1.0  0.0016000000000000079  0.9298  0.9551  1.0000
  O   O4        1.0  0.1418  0.03589999999999999  0.26353  1.0000
  O   O5        1.0  0.17149999999999993  0.9629999999999997  0.3289299999999999  1.0000
  O   O6        1.0  0.9281999999999999  0.9983999999999997  0.28843  1.0000
  O   O7        1.0  0.8940999999999999  0.8581999999999997  0.59687  1.0000
  O   O8        1.0  0.7915  0.8284999999999998  0.66227  1.0000
  O   O9        1.0  0.07020000000000001  0.07179999999999997  0.62177  1.0000
  O   O10       1.0  0.035899999999999994  0.8941  0.4302  1.0000
  O   O11       1.0  0.9630000000000002  0.7914999999999998  0.4956  1.0000
  O   O12       1.0  0.9984  0.0702  0.4551  1.0000
  O   O13       1.0  0.8582  0.9641  0.7635299999999998  1.0000
  O   O14       1.0  0.8285  0.037  0.82893  1.0000
  O   O15       1.0  0.0718  0.0016  0.78843  1.0000
  O   O16       1.0  0.1059  0.1418  0.09687  1.0000
  O   O17       1.0  0.2085  0.17149999999999996  0.16227  1.0000
  O   O18       1.0  0.9298  0.9281999999999998  0.12176999999999998  1.0000
  O   O19       1.0  0.8582  0.8941  0.40312999999999993  1.0000
  O   O20       1.0  0.8284999999999999  0.7914999999999998  0.33773  1.0000
  O   O21       1.0  0.0718  0.0702  0.37823  1.0000
  O   O22       1.0  0.10590000000000004  0.9641  0.0698  1.0000
  O   O23       1.0  0.2085  0.037  0.0044  1.0000
  O   O24       1.0  0.9298  0.0016  0.044899999999999995  1.0000
  O   O25       1.0  0.0359  0.1418  0.73647  1.0000
  O   O26       1.0  0.9630000000000002  0.17149999999999996  0.6710699999999999  1.0000
  O   O27       1.0  0.9983999999999997  0.9281999999999998  0.7115699999999999  1.0000
  O   O28       1.0  0.1418  0.10589999999999997  0.9031299999999998  1.0000
  O   O29       1.0  0.17149999999999999  0.20849999999999994  0.83773  1.0000
  O   O30       1.0  0.9282  0.9298  0.87823  1.0000
  O   O31       1.0  0.8941  0.03589999999999999  0.5698  1.0000
  O   O32       1.0  0.7915  0.9629999999999997  0.5044  1.0000
  O   O33       1.0  0.07019999999999993  0.9983999999999997  0.5449  1.0000
  O   O34       1.0  0.9641  0.8581999999999997  0.23647  1.0000
  O   O35       1.0  0.0369999999999999  0.8284999999999998  0.17107  1.0000
  O   O36       1.0  0.0015999999999999877  0.07179999999999997  0.21156999999999998  1.0000
