data_image0
_chemical_formula_structural       Cu16H80C148O80
_chemical_formula_sum              "Cu16 H80 C148 O80"
_cell_length_a       12.19920046
_cell_length_b       26.300936710000002
_cell_length_c       26.410509969999996
_cell_angle_alpha    89.99815429999998
_cell_angle_beta     89.99802435
_cell_angle_gamma    90.00400661

_symmetry_space_group_name_H-M    'P 1'
_symmetry_Int_Tables_number       1

loop_
  _symmetry_equiv_pos_as_xyz
  'x,y,z'

loop_
  _atom_site_type_symbol
  _atom_site_label
  _atom_site_symmetry_multiplicity
  _atom_site_fract_x
  _atom_site_fract_y
  _atom_site_fract_z
  _atom_site_occupancy
  Cu  Cu1       1.0  0.0702683  0.99453017  0.03275139  1.0000
  Cu  Cu2       1.0  0.92958238  0.005501260000000001  0.53281493  1.0000
  Cu  Cu3       1.0  0.92966818  0.49450761  0.4672294200000001  1.0000
  Cu  Cu4       1.0  0.07043456  0.50550536  0.96717331  1.0000
  Cu  Cu5       1.0  0.92956476  0.00549541  0.9671673600000003  1.0000
  Cu  Cu6       1.0  0.07040103  0.99450484  0.4671999600000001  1.0000
  Cu  Cu7       1.0  0.07033632  0.50549254  0.53277038  1.0000
  Cu  Cu8       1.0  0.92986372  0.49451912  0.03268419  1.0000
  Cu  Cu9       1.0  0.00344107  0.70764594  0.7500052700000001  1.0000
  Cu  Cu10      1.0  0.86111982  0.77351143  0.75001218  1.0000
  Cu  Cu11      1.0  0.99655559  0.29234546  0.25001218  1.0000
  Cu  Cu12      1.0  0.13888804  0.22648184000000002  0.24999903000000007  1.0000
  Cu  Cu13      1.0  0.9966248899999999  0.20766473  0.75000348  1.0000
  Cu  Cu14      1.0  0.13874769  0.27344867  0.7499982900000002  1.0000
  Cu  Cu15      1.0  0.00344657  0.79237109  0.25000632  1.0000
  Cu  Cu16      1.0  0.86111503  0.7265024900000001  0.25001752000000005  1.0000
  H   H1        1.0  0.91477734  0.61068489  0.86677549  1.0000
  H   H2        1.0  0.69842934  0.61077395  0.9957539500000002  1.0000
  H   H3        1.0  0.66460436  0.7252396  0.8789183800000002  1.0000
  H   H4        1.0  0.59049865  0.7641405  0.9461364600000002  1.0000
  H   H5        1.0  0.48185637  0.7252922600000001  0.92169384  1.0000
  H   H6        1.0  0.43686951999999996  0.67172579  0.025961120000000004  1.0000
  H   H7        1.0  0.33088548999999995  0.69555451  0.9853278800000002  1.0000
  H   H8        1.0  0.24969288  0.63014174  0.022973250000000008  1.0000
  H   H9        1.0  0.98879675  0.62171432  0.13238097  1.0000
  H   H10       1.0  0.21291864  0.74853497  0.13526623000000002  1.0000
  H   H11       1.0  0.08516748  0.38930515  0.36676924  1.0000
  H   H12       1.0  0.30149144  0.38924792  0.49572368  1.0000
  H   H13       1.0  0.33537145  0.27476304  0.37890706  1.0000
  H   H14       1.0  0.40953063  0.23586331  0.4461509500000001  1.0000
  H   H15       1.0  0.51816352  0.27471705  0.42169297000000006  1.0000
  H   H16       1.0  0.56315471  0.32829002  0.5259679  1.0000
  H   H17       1.0  0.66915452  0.30445235  0.4853311400000001  1.0000
  H   H18       1.0  0.7502820699999999  0.36985819  0.52295379  1.0000
  H   H19       1.0  0.01115771  0.37830704  0.6323375300000003  1.0000
  H   H20       1.0  0.7870569  0.25146059  0.63524269  1.0000
  H   H21       1.0  0.08514082  0.11069027  0.63324538  1.0000
  H   H22       1.0  0.30152391  0.11075562  0.50427122  1.0000
  H   H23       1.0  0.3353670899999999  0.22523066  0.62107715  1.0000
  H   H24       1.0  0.40950549999999997  0.26413734  0.5538581700000001  1.0000
  H   H25       1.0  0.51814734  0.2252919  0.57830266  1.0000
  H   H26       1.0  0.56312646  0.17172665  0.4740388600000001  1.0000
  H   H27       1.0  0.6691192899999999  0.19556358  0.51467032  1.0000
  H   H28       1.0  0.75024572  0.13015618  0.47705415  1.0000
  H   H29       1.0  0.011163  0.12169153  0.36765358  1.0000
  H   H30       1.0  0.7871034799999999  0.24851954  0.3647514800000001  1.0000
  H   H31       1.0  0.9148556199999999  0.88931229  0.13327337  1.0000
  H   H32       1.0  0.6985077499999999  0.88926375  0.004280160000000001  1.0000
  H   H33       1.0  0.66466373  0.77477669  0.12109086000000002  1.0000
  H   H34       1.0  0.59047349  0.73587289  0.05384559  1.0000
  H   H35       1.0  0.48186141  0.7747272700000001  0.07830067000000003  1.0000
  H   H36       1.0  0.43686381  0.82829068  0.974033  1.0000
  H   H37       1.0  0.33086575  0.8044523200000001  0.014682850000000004  1.0000
  H   H38       1.0  0.24980922  0.86984938  0.97706581  1.0000
  H   H39       1.0  0.98886605  0.8783308600000002  0.8676664200000002  1.0000
  H   H40       1.0  0.21289526  0.7514981800000001  0.8647600700000002  1.0000
  H   H41       1.0  0.08516437999999998  0.38929152000000006  0.13327284  1.0000
  H   H42       1.0  0.30145833  0.38924500000000006  0.00428236  1.0000
  H   H43       1.0  0.33536897  0.27476439  0.12110902  1.0000
  H   H44       1.0  0.40947865  0.23586732  0.053874430000000015  1.0000
  H   H45       1.0  0.51812816  0.27471995  0.07831576000000001  1.0000
  H   H46       1.0  0.56312282  0.3282746000000001  0.9740419  1.0000
  H   H47       1.0  0.6691138399999998  0.30444097  0.014671970000000003  1.0000
  H   H48       1.0  0.75020844  0.36983253  0.9770554500000002  1.0000
  H   H49       1.0  0.0111288  0.3783065  0.86767608  1.0000
  H   H50       1.0  0.78704877  0.25146011  0.8647488000000002  1.0000
  H   H51       1.0  0.91483216  0.61069706  0.63323208  1.0000
  H   H52       1.0  0.69851143  0.61074839  0.5042713200000001  1.0000
  H   H53       1.0  0.66461201  0.72523823  0.62108523  1.0000
  H   H54       1.0  0.5904827  0.76413162  0.55384845  1.0000
  H   H55       1.0  0.48184964  0.72528041  0.57830238  1.0000
  H   H56       1.0  0.43685499  0.67171228  0.47402983  1.0000
  H   H57       1.0  0.33085599999999993  0.6955517  0.51466741  1.0000
  H   H58       1.0  0.24972698999999995  0.63014812  0.47704545  1.0000
  H   H59       1.0  0.98883961  0.62168688  0.36765944  1.0000
  H   H60       1.0  0.21293334999999997  0.7485344200000001  0.36475099  1.0000
  H   H61       1.0  0.91486046  0.88931025  0.36676181000000013  1.0000
  H   H62       1.0  0.69848049  0.8892427400000001  0.49573718  1.0000
  H   H63       1.0  0.66464593  0.77477163  0.37890964000000005  1.0000
  H   H64       1.0  0.59050694  0.73586494  0.4461383100000001  1.0000
  H   H65       1.0  0.48186744  0.7747085700000002  0.4216943500000001  1.0000
  H   H66       1.0  0.43689165999999996  0.82827626  0.52596196  1.0000
  H   H67       1.0  0.33089107  0.80443755  0.48532549  1.0000
  H   H68       1.0  0.24974413999999998  0.8698489200000001  0.52294618  1.0000
  H   H69       1.0  0.9888202899999999  0.8783147400000001  0.63234939  1.0000
  H   H70       1.0  0.21291484  0.75148523  0.63524453  1.0000
  H   H71       1.0  0.08516417  0.11067254  0.8667542500000002  1.0000
  H   H72       1.0  0.30155927  0.11075068  0.9957338700000002  1.0000
  H   H73       1.0  0.33533288999999994  0.22522443  0.87891902  1.0000
  H   H74       1.0  0.4095262499999999  0.26413508  0.94615457  1.0000
  H   H75       1.0  0.51815049  0.22527997  0.92170988  1.0000
  H   H76       1.0  0.56313296  0.17170965  0.025971080000000007  1.0000
  H   H77       1.0  0.6691112899999999  0.19555427  0.98532071  1.0000
  H   H78       1.0  0.75024864  0.13013903  0.02295064  1.0000
  H   H79       1.0  0.01116531  0.12169145  0.13236554  1.0000
  H   H80       1.0  0.78710782  0.24850651000000004  0.13524053000000003  1.0000
  C   C1        1.0  0.791374  0.6694006800000001  0.86800298  1.0000
  C   C2        1.0  0.84536426  0.6267049  0.88697368  1.0000
  C   C3        1.0  0.81159458  0.60573924  0.9330550800000003  1.0000
  C   C4        1.0  0.7238814099999998  0.62675099  0.9595795  1.0000
  C   C5        1.0  0.67070833  0.66987016  0.9404601700000003  1.0000
  C   C6        1.0  0.7033817999999998  0.69139384  0.89442103  1.0000
  C   C7        1.0  0.8356114699999999  0.69383876  0.82114546  1.0000
  C   C8        1.0  0.87617664  0.56350765  0.9561829100000001  1.0000
  C   C9        1.0  0.53219548  0.73346848  0.9553004800000001  1.0000
  C   C10       1.0  0.38720863  0.70531641  0.01646344  1.0000
  C   C11       1.0  0.2422376  0.69267405  0.07710600000000002  1.0000
  C   C12       1.0  0.20858626999999996  0.6468244100000001  0.055506530000000005  1.0000
  C   C13       1.0  0.11696111  0.62161693  0.07577157  1.0000
  C   C14       1.0  0.060283189999999987  0.64127234  0.11735313000000001  1.0000
  C   C15       1.0  0.09588146  0.6871600900000001  0.13868951  1.0000
  C   C16       1.0  0.18647471999999998  0.71261756  0.1188452  1.0000
  C   C17       1.0  0.07687294  0.57456575  0.0499701  1.0000
  C   C18       1.0  0.03563564  0.71172964  0.18143657000000005  1.0000
  C   C19       1.0  0.2085909  0.33060053  0.36800557000000006  1.0000
  C   C20       1.0  0.15458853  0.37329572  0.38697701  1.0000
  C   C21       1.0  0.18834884  0.39428254  0.43304880000000007  1.0000
  C   C22       1.0  0.27607931  0.3732555  0.45955166  1.0000
  C   C23       1.0  0.32926032  0.33013129  0.44043786  1.0000
  C   C24       1.0  0.29659051  0.30860218  0.39440904000000004  1.0000
  C   C25       1.0  0.16441893999999999  0.30614861  0.32115265  1.0000
  C   C26       1.0  0.12390268  0.43651836  0.45625847  1.0000
  C   C27       1.0  0.46781043  0.26655075  0.45529933  1.0000
  C   C28       1.0  0.61280836  0.29470072  0.51645867  1.0000
  C   C29       1.0  0.75777624  0.30733572  0.57709032  1.0000
  C   C30       1.0  0.79143771  0.35319202000000005  0.55548816  1.0000
  C   C31       1.0  0.88303834  0.3784106  0.5757454000000001  1.0000
  C   C32       1.0  0.93967966  0.3587377  0.61733363  1.0000
  C   C33       1.0  0.9040994399999998  0.31283868  0.6386710900000001  1.0000
  C   C34       1.0  0.8135050599999999  0.2873765  0.61882711  1.0000
  C   C35       1.0  0.9232841299999999  0.42546819  0.54999573  1.0000
  C   C36       1.0  0.9643265  0.28825251  0.6814241800000002  1.0000
  C   C37       1.0  0.20856225  0.1693927  0.6320003  1.0000
  C   C38       1.0  0.15457258  0.12668749  0.61302473  1.0000
  C   C39       1.0  0.18834100999999998  0.10571215  0.56694603  1.0000
  C   C40       1.0  0.27607079  0.12674543  0.5404384100000001  1.0000
  C   C41       1.0  0.32925584  0.16986409  0.55955926  1.0000
  C   C42       1.0  0.29659351  0.19138574000000003  0.6055950400000001  1.0000
  C   C43       1.0  0.16433365  0.19382732000000003  0.6788641700000002  1.0000
  C   C44       1.0  0.12388252999999999  0.0634815  0.5437404500000002  1.0000
  C   C45       1.0  0.46778591  0.23345995  0.5447009200000001  1.0000
  C   C46       1.0  0.61279685  0.20531358  0.48353862000000003  1.0000
  C   C47       1.0  0.75778412  0.19265846000000003  0.42290586  1.0000
  C   C48       1.0  0.7914295899999999  0.14680696  0.4445134900000001  1.0000
  C   C49       1.0  0.88303554  0.12158745000000001  0.4242531800000001  1.0000
  C   C50       1.0  0.93968488  0.14126117  0.3826656100000001  1.0000
  C   C51       1.0  0.9041080599999999  0.18714541000000004  0.3613292200000001  1.0000
  C   C52       1.0  0.81353069  0.21260847000000002  0.3811681  1.0000
  C   C53       1.0  0.92327827  0.07453812  0.4500073600000001  1.0000
  C   C54       1.0  0.96438627  0.21169517000000002  0.3185834900000001  1.0000
  C   C55       1.0  0.79143914  0.83062899  0.13200299  1.0000
  C   C56       1.0  0.84542152  0.8733393300000001  0.11303709  1.0000
  C   C57       1.0  0.81166877  0.89431395  0.06695447  1.0000
  C   C58       1.0  0.72393008  0.87328068  0.04044950000000001  1.0000
  C   C59       1.0  0.67077207  0.83014467  0.05956293  1.0000
  C   C60       1.0  0.7034569399999998  0.8086188100000001  0.10559203000000003  1.0000
  C   C61       1.0  0.83564235  0.80617477  0.17885238  1.0000
  C   C62       1.0  0.8760853099999998  0.93653201  0.04366849000000001  1.0000
  C   C63       1.0  0.53220775  0.76655825  0.044697660000000014  1.0000
  C   C64       1.0  0.38718554999999993  0.79470647  0.9835473600000002  1.0000
  C   C65       1.0  0.24222023  0.8073711100000001  0.9229188  1.0000
  C   C66       1.0  0.20859910999999995  0.8532296200000001  0.94452264  1.0000
  C   C67       1.0  0.11697773  0.87843986  0.9242672400000002  1.0000
  C   C68       1.0  0.06034069  0.85876657  0.88267221  1.0000
  C   C69       1.0  0.09590654  0.8128695500000002  0.8613422700000002  1.0000
  C   C70       1.0  0.18647211  0.78740837  0.88118523  1.0000
  C   C71       1.0  0.07656812  0.92549265  0.9499924400000003  1.0000
  C   C72       1.0  0.03562768  0.78830203  0.81859655  1.0000
  C   C73       1.0  0.208566  0.33059975  0.13200595  1.0000
  C   C74       1.0  0.15456988  0.37329328000000006  0.11303826  1.0000
  C   C75       1.0  0.18836597  0.39426132  0.06697157  1.0000
  C   C76       1.0  0.27607243  0.3732357  0.04044759000000001  1.0000
  C   C77       1.0  0.32925305  0.33011489  0.059560210000000016  1.0000
  C   C78       1.0  0.2965689  0.30860181  0.10559935000000002  1.0000
  C   C79       1.0  0.16440638999999999  0.30614236  0.178868  1.0000
  C   C80       1.0  0.12406897  0.43651165  0.04370518000000001  1.0000
  C   C81       1.0  0.4677949199999999  0.26653152  0.04470916  1.0000
  C   C82       1.0  0.6127716  0.29468241  0.98354553  1.0000
  C   C83       1.0  0.75775261  0.30732565  0.92291662  1.0000
  C   C84       1.0  0.79140687  0.35317481000000006  0.9445235000000001  1.0000
  C   C85       1.0  0.88299701  0.37837874000000005  0.92425213  1.0000
  C   C86       1.0  0.93967243  0.35872352  0.88266682  1.0000
  C   C87       1.0  0.90409655  0.3128296  0.8613275700000003  1.0000
  C   C88       1.0  0.8134905599999999  0.28737473  0.88117467  1.0000
  C   C89       1.0  0.9233562299999999  0.4254538  0.9499272700000001  1.0000
  C   C90       1.0  0.96435919  0.28825477  0.8185668  1.0000
  C   C91       1.0  0.7914070199999999  0.66940194  0.63199624  1.0000
  C   C92       1.0  0.84540747  0.62670674  0.6130214400000001  1.0000
  C   C93       1.0  0.8116538  0.60571838  0.56694805  1.0000
  C   C94       1.0  0.72392183  0.6267427100000001  0.54044053  1.0000
  C   C95       1.0  0.67074519  0.66986705  0.55955661  1.0000
  C   C96       1.0  0.7034046699999997  0.69139938  0.6055889300000001  1.0000
  C   C97       1.0  0.83560073  0.69384415  0.6788515000000002  1.0000
  C   C98       1.0  0.87610072  0.56348218  0.54373809  1.0000
  C   C99       1.0  0.53219991  0.73344632  0.54469702  1.0000
  C   C100      1.0  0.38719577  0.70529994  0.48353682  1.0000
  C   C101      1.0  0.24222768999999997  0.69266165  0.42290765000000013  1.0000
  C   C102      1.0  0.20857553  0.64680795  0.4445102800000001  1.0000
  C   C103      1.0  0.11696912999999998  0.62158586  0.4242523500000001  1.0000
  C   C104      1.0  0.06032049  0.6412632  0.3826638300000001  1.0000
  C   C105      1.0  0.09590597999999999  0.68715785  0.3613276300000001  1.0000
  C   C106      1.0  0.18648741  0.71261798  0.38117102000000014  1.0000
  C   C107      1.0  0.07672855  0.5745332  0.44999825000000004  1.0000
  C   C108      1.0  0.03566477  0.711724  0.31858721  1.0000
  C   C109      1.0  0.79143373  0.83060781  0.36799836  1.0000
  C   C110      1.0  0.84542553  0.87330317  0.38697879000000013  1.0000
  C   C111      1.0  0.8116583  0.89428865  0.43305078000000014  1.0000
  C   C112      1.0  0.72391578  0.87326138  0.45956381000000013  1.0000
  C   C113      1.0  0.67074644  0.83013554  0.44044409  1.0000
  C   C114      1.0  0.70342144  0.80861195  0.39441164  1.0000
  C   C115      1.0  0.83563649  0.80617832  0.3211492000000001  1.0000
  C   C116      1.0  0.8761104599999999  0.93651559  0.45625847  1.0000
  C   C117      1.0  0.53222151  0.76654011  0.4552994  1.0000
  C   C118      1.0  0.38720774  0.7946898600000001  0.51646272  1.0000
  C   C119      1.0  0.24221477999999994  0.80734521  0.57709238  1.0000
  C   C120      1.0  0.20856581  0.85319549  0.55548578  1.0000
  C   C121      1.0  0.11697124  0.87841418  0.57574414  1.0000
  C   C122      1.0  0.06030261  0.8587445900000001  0.61733841  1.0000
  C   C123      1.0  0.09588397  0.81285544  0.6386770900000002  1.0000
  C   C124      1.0  0.18646315  0.78739461  0.6188343500000002  1.0000
  C   C125      1.0  0.07672692  0.92546718  0.54999244  1.0000
  C   C126      1.0  0.03562769  0.78829285  0.68142339  1.0000
  C   C127      1.0  0.20857222999999997  0.16937359  0.86800931  1.0000
  C   C128      1.0  0.15461895  0.12664648  0.88697012  1.0000
  C   C129      1.0  0.18835529  0.10568424  0.9330590900000002  1.0000
  C   C130      1.0  0.27609589  0.12671624  0.95956313  1.0000
  C   C131      1.0  0.3292428  0.16984867  0.9404445600000002  1.0000
  C   C132      1.0  0.29656848  0.19138101  0.89441722  1.0000
  C   C133      1.0  0.16432157  0.19382297  0.8211477800000001  1.0000
  C   C134      1.0  0.12376891  0.06348332  0.95626887  1.0000
  C   C135      1.0  0.46778427  0.23344506  0.95530791  1.0000
  C   C136      1.0  0.61280407  0.20529634000000005  0.016460940000000004  1.0000
  C   C137      1.0  0.7577873799999999  0.19263450000000001  0.07709413000000001  1.0000
  C   C138      1.0  0.7914192199999999  0.14677295  0.05549872  1.0000
  C   C139      1.0  0.88305412  0.12156060000000002  0.07574885000000003  1.0000
  C   C140      1.0  0.93968071  0.14123435  0.11734115000000002  1.0000
  C   C141      1.0  0.90410649  0.18712957  0.13866204  1.0000
  C   C142      1.0  0.81354663  0.21259456000000002  0.1188241  1.0000
  C   C143      1.0  0.92329567  0.07452428  0.04994519  1.0000
  C   C144      1.0  0.96439412  0.21169298  0.18140782000000005  1.0000
  C   C145      1.0  0.4599956499999999  0.75001571  0.9999966900000001  1.0000
  C   C146      1.0  0.54000119  0.25000652  0.50000005  1.0000
  C   C147      1.0  0.53998785  0.24998563  1.27e-05  1.0000
  C   C148      1.0  0.46000158  0.74999429  0.4999976100000001  1.0000
  O   O1        1.0  0.92126151  0.67292752  0.80251723  1.0000
  O   O2        1.0  0.7882857  0.73387531  0.8045126700000003  1.0000
  O   O3        1.0  0.96748327  0.55273009  0.9350311000000002  1.0000
  O   O4        1.0  0.83680459  0.54298428  0.9961490500000002  1.0000
  O   O5        1.0  0.58960182  0.68863962  0.9708462  1.0000
  O   O6        1.0  0.32707273  0.7218682  0.05997904  1.0000
  O   O7        1.0  0.12652768  0.5615975  0.00929029  1.0000
  O   O8        1.0  0.99474507  0.55188588  0.06983238000000001  1.0000
  O   O9        1.0  0.94722272  0.6909644  0.19700989000000002  1.0000
  O   O10       1.0  0.07813023  0.7529312800000001  0.19818062  1.0000
  O   O11       1.0  0.07873633  0.32705668  0.30250736000000006  1.0000
  O   O12       1.0  0.21175091999999998  0.26612576  0.30451227  1.0000
  O   O13       1.0  0.03254258  0.44731903  0.4351134800000001  1.0000
  O   O14       1.0  0.1632669  0.45699686  0.49621174000000007  1.0000
  O   O15       1.0  0.4103807599999999  0.31137529  0.47082984  1.0000
  O   O16       1.0  0.6729314299999999  0.27814732  0.55996741  1.0000
  O   O17       1.0  0.8736199499999999  0.43844904  0.50929903  1.0000
  O   O18       1.0  0.00538752  0.44811370000000006  0.56984805  1.0000
  O   O19       1.0  0.05273767  0.3090087000000001  0.69700055  1.0000
  O   O20       1.0  0.92181368  0.24707619  0.69816735  1.0000
  O   O21       1.0  0.07872719  0.17290924  0.6974908100000001  1.0000
  O   O22       1.0  0.21167141  0.23385215000000006  0.69551054  1.0000
  O   O23       1.0  0.03252975  0.05270085000000001  0.56491368  1.0000
  O   O24       1.0  0.16325135  0.04300652  0.50378631  1.0000
  O   O25       1.0  0.41037571  0.18863370000000002  0.52916862  1.0000
  O   O26       1.0  0.67294799  0.22184997  0.4400254300000001  1.0000
  O   O27       1.0  0.8735979699999998  0.06156608  0.49071401000000003  1.0000
  O   O28       1.0  0.00538995  0.051896580000000005  0.4301556700000001  1.0000
  O   O29       1.0  0.05277051  0.19094028  0.30301049000000013  1.0000
  O   O30       1.0  0.92188966  0.25290415  0.30182375  1.0000
  O   O31       1.0  0.92130591  0.82707803  0.19748110000000002  1.0000
  O   O32       1.0  0.78827857  0.76613985  0.19548325000000005  1.0000
  O   O33       1.0  0.96747107  0.9472905  0.06480914  1.0000
  O   O34       1.0  0.83669678  0.95698688  0.003758720000000001  1.0000
  O   O35       1.0  0.58966499  0.81137809  0.029166950000000007  1.0000
  O   O36       1.0  0.3270356  0.77816816  0.9400414600000001  1.0000
  O   O37       1.0  0.1262315  0.93846309  0.9906847100000001  1.0000
  O   O38       1.0  0.9945338999999999  0.94808726  0.9301321600000002  1.0000
  O   O39       1.0  0.94722854  0.80906833  0.8030421100000003  1.0000
  O   O40       1.0  0.07811513  0.74710784  0.8018445100000001  1.0000
  O   O41       1.0  0.07873145  0.32705231  0.19751475  1.0000
  O   O42       1.0  0.21174594  0.26611976  0.195497  1.0000
  O   O43       1.0  0.03260531  0.44729177  0.06483766  1.0000
  O   O44       1.0  0.16346676  0.45700484  0.003789200000000001  1.0000
  O   O45       1.0  0.41036574  0.31136195000000005  0.0291726  1.0000
  O   O46       1.0  0.6729083  0.27813634  0.9400348  1.0000
  O   O47       1.0  0.87367168  0.43845038  0.9906449800000001  1.0000
  O   O48       1.0  0.00541279  0.4480827  0.93006394  1.0000
  O   O49       1.0  0.05275525  0.30902117  0.8029989100000001  1.0000
  O   O50       1.0  0.92184776  0.24708035  0.80183773  1.0000
  O   O51       1.0  0.92125933  0.6729431600000001  0.6974955800000001  1.0000
  O   O52       1.0  0.78825985  0.73387573  0.69549716  1.0000
  O   O53       1.0  0.96745407  0.55268322  0.5648818  1.0000
  O   O54       1.0  0.83673816  0.54300186  0.5037845700000001  1.0000
  O   O55       1.0  0.58962525  0.68862558  0.52916264  1.0000
  O   O56       1.0  0.32707565  0.72185277  0.4400260000000001  1.0000
  O   O57       1.0  0.12637724  0.56154416  0.49069809000000003  1.0000
  O   O58       1.0  0.99462374  0.55188659  0.4301472600000001  1.0000
  O   O59       1.0  0.9472440599999998  0.69095795  0.3030223300000001  1.0000
  O   O60       1.0  0.07814792  0.75292484  0.30182239  1.0000
  O   O61       1.0  0.9212832  0.82708707  0.30250096000000004  1.0000
  O   O62       1.0  0.78828676  0.76613901  0.30451351  1.0000
  O   O63       1.0  0.96747432  0.9473179600000002  0.43511910000000004  1.0000
  O   O64       1.0  0.83669985  0.9569791  0.49622036  1.0000
  O   O65       1.0  0.58962823  0.81136582  0.47083287000000007  1.0000
  O   O66       1.0  0.32705665  0.77815606  0.5599749300000001  1.0000
  O   O67       1.0  0.12637465  0.93846048  0.50929582  1.0000
  O   O68       1.0  0.9946019599999999  0.94808883  0.56986254  1.0000
  O   O69       1.0  0.9472300599999999  0.809053  0.69699945  1.0000
  O   O70       1.0  0.07810322  0.74709291  0.69817998  1.0000
  O   O71       1.0  0.0787054  0.17290399  0.80254404  1.0000
  O   O72       1.0  0.21167187999999998  0.23384496000000005  0.8045073200000002  1.0000
  O   O73       1.0  0.03249361  0.052715050000000006  0.9351280000000001  1.0000
  O   O74       1.0  0.16319655  0.04301514  0.99621396  1.0000
  O   O75       1.0  0.41034012  0.1886257  0.97084482  1.0000
  O   O76       1.0  0.67297145  0.22183635  0.05996777000000001  1.0000
  O   O77       1.0  0.87366951  0.06155035  0.00928656  1.0000
  O   O78       1.0  0.00540083  0.05191393  0.06982309  1.0000
  O   O79       1.0  0.05277226  0.19093212  0.19696665  1.0000
  O   O80       1.0  0.92188957  0.25289989  0.19816091  1.0000
