data_image0
_chemical_formula_structural       La4H48C96N24O24
_chemical_formula_sum              "La4 H48 C96 N24 O24"
_cell_length_a       4.44437217
_cell_length_b       18.94984377
_cell_length_c       29.877419700000004
_cell_angle_alpha    90.00011341999999
_cell_angle_beta     82.67332913999999
_cell_angle_gamma    90.00029979

_symmetry_space_group_name_H-M    'P 1'
_symmetry_Int_Tables_number       1

loop_
  _symmetry_equiv_pos_as_xyz
  'x,y,z'

loop_
  _atom_site_type_symbol
  _atom_site_label
  _atom_site_symmetry_multiplicity
  _atom_site_fract_x
  _atom_site_fract_y
  _atom_site_fract_z
  _atom_site_occupancy
  La  La1       1.0  0.80604042  0.89353636  0.51775942  1.0000
  La  La2       1.0  0.19395167  0.39353324  0.9822429  1.0000
  La  La3       1.0  0.1939558000000001  0.10646444000000001  0.48224152999999986  1.0000
  La  La4       1.0  0.8060423800000001  0.60646389  0.01775658  1.0000
  H   H1        1.0  0.71512366  0.67945809  0.49895967  1.0000
  H   H2        1.0  0.4720789499999999  0.5077335200000002  0.41609058  1.0000
  H   H3        1.0  0.06758498  0.5826450400000002  0.39106714  1.0000
  H   H4        1.0  0.9887710000000001  0.70496882  0.41838003  1.0000
  H   H5        1.0  0.8485729400000004  0.8177005  0.6697590699999998  1.0000
  H   H6        1.0  0.3883514599999999  0.8953082800000001  0.76884812  1.0000
  H   H7        1.0  0.7200364900000004  0.9595484  0.7075607499999997  1.0000
  H   H8        1.0  0.6144741700000002  0.9493136600000001  0.62812362  1.0000
  H   H9        1.0  0.6158973400000001  0.67117932  0.8869667799999997  1.0000
  H   H10       1.0  0.06972191000000022  0.66143443  0.7781876099999998  1.0000
  H   H11       1.0  0.7644372500000002  0.56347951  0.8177426599999997  1.0000
  H   H12       1.0  0.8922702700000003  0.52222547  0.8930815699999998  1.0000
  H   H13       1.0  0.28487907  0.17945721000000006  0.00104199  1.0000
  H   H14       1.0  0.5279191100000001  0.007730670000000001  0.08390822999999997  1.0000
  H   H15       1.0  0.93241361  0.08264153  0.10893156999999998  1.0000
  H   H16       1.0  0.011235090000000033  0.2049652  0.08162116999999998  1.0000
  H   H17       1.0  0.1514330000000002  0.31770037  0.8302420499999997  1.0000
  H   H18       1.0  0.6116519899999999  0.39531034  0.73115437  1.0000
  H   H19       1.0  0.2799707700000002  0.45954823000000006  0.7924432899999998  1.0000
  H   H20       1.0  0.38553110000000024  0.44931063  0.8718802399999998  1.0000
  H   H21       1.0  0.3841053  0.17118284000000003  0.61303398  1.0000
  H   H22       1.0  0.9302930200000004  0.16143601  0.7218114099999999  1.0000
  H   H23       1.0  0.23555943  0.0634802  0.68225539  1.0000
  H   H24       1.0  0.10771954000000004  0.02222752  0.60691728  1.0000
  H   H25       1.0  0.2848752  0.3205407900000001  0.50104257  1.0000
  H   H26       1.0  0.52793002  0.49226735000000005  0.58390937  1.0000
  H   H27       1.0  0.9324217999999999  0.41735518  0.60893315  1.0000
  H   H28       1.0  0.011233240000000018  0.29503101  0.58162164  1.0000
  H   H29       1.0  0.15143191000000011  0.18229949  0.3302407999999999  1.0000
  H   H30       1.0  0.61163924  0.10469152000000002  0.23115396  1.0000
  H   H31       1.0  0.27996292999999994  0.04045134  0.29244216  1.0000
  H   H32       1.0  0.3855405700000001  0.05068547  0.3718786  1.0000
  H   H33       1.0  0.3841068300000001  0.32881805  0.11303251999999997  1.0000
  H   H34       1.0  0.93028197  0.3385642  0.22181155999999994  1.0000
  H   H35       1.0  0.23556519000000006  0.43651841  0.18225587999999995  1.0000
  H   H36       1.0  0.10772618000000002  0.47777305  0.10691758999999998  1.0000
  H   H37       1.0  0.7151167900000001  0.82053962  0.9989559599999998  1.0000
  H   H38       1.0  0.4720645000000003  0.99226715  0.9160904999999998  1.0000
  H   H39       1.0  0.06757097000000024  0.91735522  0.8910666699999997  1.0000
  H   H40       1.0  0.9887585400000004  0.7950308200000001  0.9183770499999998  1.0000
  H   H41       1.0  0.8485706400000002  0.68230162  0.16975663999999993  1.0000
  H   H42       1.0  0.3883498800000001  0.60469388  0.2688450899999999  1.0000
  H   H43       1.0  0.7200304100000001  0.54045462  0.20755708999999997  1.0000
  H   H44       1.0  0.61446305  0.5506893200000001  0.12812004  1.0000
  H   H45       1.0  0.61589096  0.82881913  0.38696656999999995  1.0000
  H   H46       1.0  0.06972048  0.8385682700000002  0.27818766  1.0000
  H   H47       1.0  0.7644389600000001  0.93652076  0.31774463  1.0000
  H   H48       1.0  0.8922713700000001  0.9777729900000001  0.3930838499999999  1.0000
  C   C1        1.0  0.3005286100000001  0.77226374  0.4790747399999999  1.0000
  C   C2        1.0  0.3545834500000001  0.70087534  0.4596694399999999  1.0000
  C   C3        1.0  0.5748053800000003  0.6583974  0.4748397599999999  1.0000
  C   C4        1.0  0.6191937100000001  0.58827737  0.4597718899999999  1.0000
  C   C5        1.0  0.44303371000000014  0.5621302600000001  0.4275599899999999  1.0000
  C   C6        1.0  0.2227716400000001  0.6047553500000001  0.4127721399999999  1.0000
  C   C7        1.0  0.17262295000000002  0.67357642  0.4288852199999999  1.0000
  C   C8        1.0  0.8226543900000001  0.54210592  0.48114679  1.0000
  C   C9        1.0  0.14427836000000016  0.88070211  0.5979793299999998  1.0000
  C   C10       1.0  0.220991  0.88526309  0.64447159  1.0000
  C   C11       1.0  0.028965660000000015  0.8514289900000002  0.6785561  1.0000
  C   C12       1.0  0.09953601000000012  0.8519274000000001  0.7235046899999997  1.0000
  C   C13       1.0  0.35198002999999994  0.88936363  0.7336912499999999  1.0000
  C   C14       1.0  0.5429803400000001  0.9243490400000001  0.6990621499999998  1.0000
  C   C15       1.0  0.47117266000000024  0.9226059700000001  0.6549656599999998  1.0000
  C   C16       1.0  0.8957245300000002  0.8133021200000001  0.7562223099999997  1.0000
  C   C17       1.0  0.5381614599999999  0.7274059300000001  0.8054702  1.0000
  C   C18       1.0  0.3490157000000001  0.5630516300000001  0.9354710099999999  1.0000
  C   C19       1.0  0.2750978500000001  0.58935562  0.891653  1.0000
  C   C20       1.0  0.4505677300000003  0.64383799  0.8696144299999998  1.0000
  C   C21       1.0  0.3613488400000001  0.67169187  0.82952669  1.0000
  C   C22       1.0  0.11470855999999995  0.64350913  0.81123789  1.0000
  C   C23       1.0  0.9336156000000001  0.59086117  0.8344371799999998  1.0000
  C   C24       1.0  0.023352959999999957  0.5632380800000001  0.87425383  1.0000
  C   C25       1.0  0.6994822300000001  0.2722618400000001  0.020928809999999992  1.0000
  C   C26       1.0  0.6454201900000001  0.2008728  0.04033213  1.0000
  C   C27       1.0  0.4252013  0.15839648  0.025161199999999995  1.0000
  C   C28       1.0  0.38080572  0.08827579000000002  0.04022805  1.0000
  C   C29       1.0  0.5569633200000002  0.06212742000000001  0.07243909  1.0000
  C   C30       1.0  0.7772296500000001  0.10475212  0.08722782999999998  1.0000
  C   C31       1.0  0.82738022  0.17357451  0.07111593  1.0000
  C   C32       1.0  0.17734603000000004  0.04210461  0.018853319999999993  1.0000
  C   C33       1.0  0.8557014300000002  0.38070109  0.9020225599999998  1.0000
  C   C34       1.0  0.7790118099999999  0.3852608600000001  0.85553067  1.0000
  C   C35       1.0  0.9710400700000001  0.35142790000000007  0.8214448499999998  1.0000
  C   C36       1.0  0.9004692900000003  0.3519283100000001  0.7764965799999998  1.0000
  C   C37       1.0  0.64802845  0.3893641800000001  0.76631062  1.0000
  C   C38       1.0  0.4570223  0.4243491300000001  0.80094083  1.0000
  C   C39       1.0  0.5288332300000003  0.42260322000000006  0.8450369199999997  1.0000
  C   C40       1.0  0.10428612999999998  0.31330422  0.74377873  1.0000
  C   C41       1.0  0.46185189000000015  0.22740949  0.69453004  1.0000
  C   C42       1.0  0.6509660300000001  0.06305809000000001  0.5645290799999998  1.0000
  C   C43       1.0  0.7248986100000002  0.08936009  0.6083461099999998  1.0000
  C   C44       1.0  0.5494354599999999  0.14384125000000003  0.63038589  1.0000
  C   C45       1.0  0.6386584400000002  0.17169388  0.67047322  1.0000
  C   C46       1.0  0.8852999000000003  0.14351067  0.6887613399999998  1.0000
  C   C47       1.0  0.06638210000000005  0.09086246  0.66556126  1.0000
  C   C48       1.0  0.97664375  0.06324022  0.6257447199999999  1.0000
  C   C49       1.0  0.69948229  0.22773556000000006  0.52092777  1.0000
  C   C50       1.0  0.6454202000000001  0.29912473  0.5403323399999997  1.0000
  C   C51       1.0  0.42519929000000006  0.34160206  0.5251618599999999  1.0000
  C   C52       1.0  0.38081155  0.41172211  0.5402291  1.0000
  C   C53       1.0  0.5569736800000002  0.43787056000000013  0.5724402399999998  1.0000
  C   C54       1.0  0.7772336300000002  0.39524543  0.5872287399999999  1.0000
  C   C55       1.0  0.8273785600000001  0.3264226  0.57111688  1.0000
  C   C56       1.0  0.17734562000000006  0.4578930000000001  0.51885445  1.0000
  C   C57       1.0  0.8557302800000001  0.11929875  0.40202114999999994  1.0000
  C   C58       1.0  0.7790157700000001  0.11473774  0.3555292299999999  1.0000
  C   C59       1.0  0.97103848  0.14857118000000002  0.3214441899999999  1.0000
  C   C60       1.0  0.9004609199999999  0.14807286  0.276496  1.0000
  C   C61       1.0  0.64801412  0.11063645000000003  0.26631054  1.0000
  C   C62       1.0  0.45701848  0.07565122  0.30094007  1.0000
  C   C63       1.0  0.52883441  0.07739419  0.3450360299999999  1.0000
  C   C64       1.0  0.10427329000000006  0.18669752  0.24377842999999993  1.0000
  C   C65       1.0  0.46184031000000003  0.27259359  0.19452964999999994  1.0000
  C   C66       1.0  0.6509802500000003  0.43694701  0.06452823999999997  1.0000
  C   C67       1.0  0.7249039800000001  0.41064238  0.10834601999999997  1.0000
  C   C68       1.0  0.5494337800000001  0.35615947  0.13038465999999999  1.0000
  C   C69       1.0  0.6386520500000001  0.32830592  0.17047282999999994  1.0000
  C   C70       1.0  0.88529211  0.3564894  0.18876137  1.0000
  C   C71       1.0  0.06638431000000002  0.40913656  0.16556195999999998  1.0000
  C   C72       1.0  0.9766453400000001  0.43675956000000005  0.12574522999999996  1.0000
  C   C73       1.0  0.30050626000000025  0.7277344300000003  0.9790695899999998  1.0000
  C   C74       1.0  0.35457294000000017  0.79912375  0.9596659599999998  1.0000
  C   C75       1.0  0.5747935300000002  0.84160098  0.9748365999999998  1.0000
  C   C76       1.0  0.6191858400000003  0.91172108  0.9597702799999998  1.0000
  C   C77       1.0  0.4430229100000001  0.93787038  0.92755932  1.0000
  C   C78       1.0  0.2227577500000001  0.8952457400000001  0.9127705699999997  1.0000
  C   C79       1.0  0.17261205000000007  0.82642167  0.9288823899999997  1.0000
  C   C80       1.0  0.8226486600000001  0.9578921900000001  0.9811452599999998  1.0000
  C   C81       1.0  0.14428239000000004  0.6192979800000001  0.09797738999999997  1.0000
  C   C82       1.0  0.22098505  0.6147396900000001  0.14446893  1.0000
  C   C83       1.0  0.02896136000000005  0.6485741  0.17855437999999996  1.0000
  C   C84       1.0  0.09953588000000003  0.6480753800000001  0.22350239999999993  1.0000
  C   C85       1.0  0.3519770300000001  0.61063963  0.23368883999999995  1.0000
  C   C86       1.0  0.54298126  0.5756535900000002  0.19905887  1.0000
  C   C87       1.0  0.47116467999999995  0.57739724  0.15496271  1.0000
  C   C88       1.0  0.89572005  0.68669998  0.25622035  1.0000
  C   C89       1.0  0.53815939  0.7725956800000001  0.3054693199999999  1.0000
  C   C90       1.0  0.34902802000000005  0.93694463  0.43547262999999997  1.0000
  C   C91       1.0  0.27509739999999994  0.9106423400000001  0.39165486  1.0000
  C   C92       1.0  0.45056491000000004  0.85616074  0.36961479999999997  1.0000
  C   C93       1.0  0.36134519  0.82830844  0.32952635  1.0000
  C   C94       1.0  0.11470936  0.8564928900000001  0.31123823  1.0000
  C   C95       1.0  0.9336192100000001  0.90913908  0.33443856999999994  1.0000
  C   C96       1.0  0.023351979999999987  0.93676075  0.37425617  1.0000
  N   N1        1.0  0.82133407  0.47218041  0.4705405099999999  1.0000
  N   N2        1.0  0.9981326299999997  0.57013815  0.51056719  1.0000
  N   N3        1.0  0.6552008  0.7839368800000002  0.73948905  1.0000
  N   N4        1.0  0.4540631300000003  0.7469393700000002  0.7648443999999998  1.0000
  N   N5        1.0  0.7579953700000003  0.76187256  0.8242444899999998  1.0000
  N   N6        1.0  0.9165180599999999  0.8122766300000003  0.80133789  1.0000
  N   N7        1.0  0.17866237  0.97217844  0.02945893  1.0000
  N   N8        1.0  0.001869520000000201  0.07013789  0.9894326699999998  1.0000
  N   N9        1.0  0.3448099  0.28393768  0.76051145  1.0000
  N   N10       1.0  0.5459484600000001  0.24694269  0.7351560099999997  1.0000
  N   N11       1.0  0.24201857  0.26187657  0.67575661  1.0000
  N   N12       1.0  0.08350495  0.3122812300000001  0.69866293  1.0000
  N   N13       1.0  0.1786779000000002  0.5278192100000001  0.5294595299999998  1.0000
  N   N14       1.0  0.0018736999999999743  0.42986133  0.4894335  1.0000
  N   N15       1.0  0.3447962600000001  0.21606291  0.26051102  1.0000
  N   N16       1.0  0.5459380900000002  0.25306013  0.23515524999999995  1.0000
  N   N17       1.0  0.24200705  0.23812632000000003  0.17575572  1.0000
  N   N18       1.0  0.08348238000000004  0.18772215  0.19866276999999993  1.0000
  N   N19       1.0  0.8213216400000002  0.02781859  0.9705396099999998  1.0000
  N   N20       1.0  0.9981223400000001  0.92986021  0.0105659  1.0000
  N   N21       1.0  0.6552001000000001  0.71606571  0.23948732999999994  1.0000
  N   N22       1.0  0.45406062  0.75306328  0.26484334  1.0000
  N   N23       1.0  0.7579931200000001  0.73812913  0.3242428199999999  1.0000
  N   N24       1.0  0.9165134600000001  0.6877248800000001  0.30133581999999987  1.0000
  O   O1        1.0  0.4675159299999999  0.7945994600000001  0.50804441  1.0000
  O   O2        1.0  0.08332799000000016  0.8085269200000001  0.4663253599999999  1.0000
  O   O3        1.0  0.30868610000000024  0.91345393  0.5653331299999997  1.0000
  O   O4        1.0  0.9064390900000001  0.84662851  0.5917365399999998  1.0000
  O   O5        1.0  0.5869946500000002  0.58507446  0.9498402199999998  1.0000
  O   O6        1.0  0.16180646000000018  0.51986529  0.9582121499999998  1.0000
  O   O7        1.0  0.53249824  0.29459834  0.99195869  1.0000
  O   O8        1.0  0.9166792100000001  0.30852426  0.03367981999999999  1.0000
  O   O9        1.0  0.6913128099999999  0.41345003  0.93466753  1.0000
  O   O10       1.0  0.09356794000000003  0.34662204  0.90826738  1.0000
  O   O11       1.0  0.41298694000000014  0.08508183  0.5501610099999997  1.0000
  O   O12       1.0  0.8381648600000003  0.01987156  0.5417850999999998  1.0000
  O   O13       1.0  0.53250093  0.20540153000000005  0.4919570299999999  1.0000
  O   O14       1.0  0.9166772999999999  0.19147409  0.53367863  1.0000
  O   O15       1.0  0.6913237400000001  0.08654792000000001  0.4346671599999999  1.0000
  O   O16       1.0  0.09357231000000006  0.1533724  0.4082635899999999  1.0000
  O   O17       1.0  0.41300081  0.41492272  0.05016035999999999  1.0000
  O   O18       1.0  0.83818967  0.48013371  0.04178710999999999  1.0000
  O   O19       1.0  0.467491  0.7054003  0.00804094  1.0000
  O   O20       1.0  0.08331354000000023  0.69147213  0.9663190299999997  1.0000
  O   O21       1.0  0.30867778  0.5865485600000002  0.06533222  1.0000
  O   O22       1.0  0.90642312  0.65337564  0.09173317999999997  1.0000
  O   O23       1.0  0.5870068900000001  0.91491997  0.44984006999999987  1.0000
  O   O24       1.0  0.16182032000000007  0.9801306300000001  0.4582152599999999  1.0000
