data_image0
_chemical_formula_structural       Co8H24C64O32
_chemical_formula_sum              "Co8 H24 C64 O32"
_cell_length_a       12.9449914
_cell_length_b       14.33473903
_cell_length_c       18.062482820000003
_cell_angle_alpha    98.0236005
_cell_angle_beta     90.00058923999998
_cell_angle_gamma    89.99981605999999

_symmetry_space_group_name_H-M    'P 1'
_symmetry_Int_Tables_number       1

loop_
  _symmetry_equiv_pos_as_xyz
  'x,y,z'

loop_
  _atom_site_type_symbol
  _atom_site_label
  _atom_site_symmetry_multiplicity
  _atom_site_fract_x
  _atom_site_fract_y
  _atom_site_fract_z
  _atom_site_occupancy
  Co  Co1       1.0  0.07503501  0.006854970000000006  0.76184393  1.0000
  Co  Co2       1.0  0.30865911  0.4316345  0.16591571  1.0000
  Co  Co3       1.0  0.57503999  0.49314898000000007  0.7381536700000001  1.0000
  Co  Co4       1.0  0.80865994  0.06835575000000002  0.33408136000000005  1.0000
  Co  Co5       1.0  0.92496477  0.99314061  0.23815995  1.0000
  Co  Co6       1.0  0.69133585  0.56836287  0.83408229  1.0000
  Co  Co7       1.0  0.42496354  0.5068515  0.26184681  1.0000
  Co  Co8       1.0  0.19134984  0.9316386699999998  0.66590492  1.0000
  H   H1        1.0  0.6087545  0.23646616  0.23131551000000003  1.0000
  H   H2        1.0  0.55695066  0.3096522  0.01199501  1.0000
  H   H3        1.0  0.8013491  0.11520777000000001  0.04984397  1.0000
  H   H4        1.0  0.82883538  0.09544402  0.93718218  1.0000
  H   H5        1.0  0.81971363  0.22309492999999997  0.73641344  1.0000
  H   H6        1.0  0.6353982  0.33901177  0.92488373  1.0000
  H   H7        1.0  0.10875608  0.26352859  0.26868776  1.0000
  H   H8        1.0  0.05694354  0.1903517  0.48800987  1.0000
  H   H9        1.0  0.30134653  0.38478594  0.4501581  1.0000
  H   H10       1.0  0.32883568  0.4045526299999999  0.56282126  1.0000
  H   H11       1.0  0.31970797  0.27690317  0.7635863  1.0000
  H   H12       1.0  0.13539109  0.16099045  0.57511697  1.0000
  H   H13       1.0  0.39125046  0.76352132  0.76868272  1.0000
  H   H14       1.0  0.44304130999999997  0.69034073  0.98800581  1.0000
  H   H15       1.0  0.19865443999999996  0.88479308  0.9501490499999999  1.0000
  H   H16       1.0  0.17116335999999996  0.90455362  0.06281688  1.0000
  H   H17       1.0  0.18028791  0.77689889  0.2635821  1.0000
  H   H18       1.0  0.3646052799999999  0.66098497  0.07511531  1.0000
  H   H19       1.0  0.8912484499999999  0.73648799  0.73131335  1.0000
  H   H20       1.0  0.94304129  0.80966762  0.51199549  1.0000
  H   H21       1.0  0.69865389  0.61521493  0.54984797  1.0000
  H   H22       1.0  0.67116096  0.59545214  0.43718205  1.0000
  H   H23       1.0  0.68028893  0.72308799  0.23641063  1.0000
  H   H24       1.0  0.86460352  0.8390129  0.42488137000000004  1.0000
  C   C1        1.0  0.6285404099999999  0.22850376  0.1722253  1.0000
  C   C2        1.0  0.49458034  0.3467632  0.15459364  1.0000
  C   C3        1.0  0.57560976  0.27917473  0.12361654  1.0000
  C   C4        1.0  0.60177455  0.26986427  0.04793466  1.0000
  C   C5        1.0  0.72195083  0.21401224  0.94162563  1.0000
  C   C6        1.0  0.7068939099999999  0.16686735  0.14364266  1.0000
  C   C7        1.0  0.68585057  0.21365037999999997  0.01960717  1.0000
  C   C8        1.0  0.73645176  0.16077562999999997  0.068472  1.0000
  C   C9        1.0  0.79543029  0.1496524  0.90778556  1.0000
  C   C10       1.0  0.9190303799999999  0.09250523000000001  0.80611148  1.0000
  C   C11       1.0  0.72107407  0.28710665999999996  0.82701366  1.0000
  C   C12       1.0  0.6828764699999998  0.36439594999999997  0.78815057  1.0000
  C   C13       1.0  0.79210977  0.22088504  0.79315449  1.0000
  C   C14       1.0  0.6880248900000001  0.28413091000000007  0.9004778000000001  1.0000
  C   C15       1.0  0.83149027  0.15415563000000002  0.8352926600000001  1.0000
  C   C16       1.0  0.76185746  0.11114317999999998  0.19447864  1.0000
  C   C17       1.0  0.12854097  0.27149235  0.32777633  1.0000
  C   C18       1.0  0.99458052  0.15324065  0.34541033  1.0000
  C   C19       1.0  0.07560849  0.2208264  0.37638691  1.0000
  C   C20       1.0  0.10176798  0.23013522  0.45206818000000004  1.0000
  C   C21       1.0  0.22194362  0.28598272  0.55837675  1.0000
  C   C22       1.0  0.20689457999999997  0.33312955  0.3563591  1.0000
  C   C23       1.0  0.18584571999999996  0.2863455  0.48039541  1.0000
  C   C24       1.0  0.23644606  0.33922073  0.4315315  1.0000
  C   C25       1.0  0.29542643  0.35034593  0.59221681  1.0000
  C   C26       1.0  0.41903569  0.40749804000000006  0.69388764  1.0000
  C   C27       1.0  0.22106854  0.21289460999999996  0.67298811  1.0000
  C   C28       1.0  0.18286538  0.13561001  0.71187146  1.0000
  C   C29       1.0  0.29210749  0.27911727  0.70684726  1.0000
  C   C30       1.0  0.18802004  0.21586938999999997  0.59952655  1.0000
  C   C31       1.0  0.33149089  0.345844  0.66470942  1.0000
  C   C32       1.0  0.26186066  0.38886163  0.30552471  1.0000
  C   C33       1.0  0.37146191  0.77148852  0.82777129  1.0000
  C   C34       1.0  0.50541698  0.6532315  0.84540849  1.0000
  C   C35       1.0  0.42438589  0.72081695  0.8763836300000001  1.0000
  C   C36       1.0  0.39822341  0.73013036  0.95206478  1.0000
  C   C37       1.0  0.27805121  0.78597943  0.05837238  1.0000
  C   C38       1.0  0.29310772  0.83312541  0.85635331  1.0000
  C   C39       1.0  0.31414686  0.78634338  0.98039082  1.0000
  C   C40       1.0  0.2635481  0.8392177  0.9315238900000001  1.0000
  C   C41       1.0  0.20457051  0.85034487  0.09221147  1.0000
  C   C42       1.0  0.08096983  0.90749595  0.19388514  1.0000
  C   C43       1.0  0.27892951  0.7128922899999999  0.17298538  1.0000
  C   C44       1.0  0.31713000999999996  0.63560317  0.21186725  1.0000
  C   C45       1.0  0.20788879  0.77911431  0.20684314  1.0000
  C   C46       1.0  0.31197584999999994  0.71586581  0.09952338  1.0000
  C   C47       1.0  0.16850868  0.8458421899999998  0.16470381000000003  1.0000
  C   C48       1.0  0.23814971  0.88885347  0.80551485  1.0000
  C   C49       1.0  0.87145729  0.7285208499999999  0.6722253000000002  1.0000
  C   C50       1.0  0.00542146  0.8467675999999995  0.65458713  1.0000
  C   C51       1.0  0.92438613  0.7791887599999999  0.62361501  1.0000
  C   C52       1.0  0.89822064  0.76987718  0.54793468  1.0000
  C   C53       1.0  0.7780485999999999  0.7140228899999999  0.44162461  1.0000
  C   C54       1.0  0.79310545  0.66687963  0.64364526  1.0000
  C   C55       1.0  0.8141446699999999  0.71366332  0.51960827  1.0000
  C   C56       1.0  0.76354681  0.66078776  0.56847414  1.0000
  C   C57       1.0  0.70457162  0.64965905  0.40778543  1.0000
  C   C58       1.0  0.58097002  0.59250061  0.30611365  1.0000
  C   C59       1.0  0.77892382  0.7871090599999999  0.32700887  1.0000
  C   C60       1.0  0.8171296499999999  0.86439296  0.28814327  1.0000
  C   C61       1.0  0.70789284  0.72088092  0.29315214  1.0000
  C   C62       1.0  0.81197476  0.78413769  0.40047424  1.0000
  C   C63       1.0  0.6685127  0.65415388  0.33529035000000007  1.0000
  C   C64       1.0  0.73814224  0.61114774  0.69447832  1.0000
  O   O1        1.0  0.95475004  0.09653475  0.74036236  1.0000
  O   O2        1.0  0.96326707  0.03920065999999998  0.847603  1.0000
  O   O3        1.0  0.50925731  0.39218668999999995  0.21893747  1.0000
  O   O4        1.0  0.41337500999999993  0.35568413  0.11415776  1.0000
  O   O5        1.0  0.8360950799999999  0.05836523  0.17023174  1.0000
  O   O6        1.0  0.73053916  0.12078076  0.26370391  1.0000
  O   O7        1.0  0.64921001  0.44083220000000006  0.83244287  1.0000
  O   O8        1.0  0.67675725  0.36203827  0.7190913  1.0000
  O   O9        1.0  0.45477093999999996  0.40346541  0.75963318  1.0000
  O   O10       1.0  0.46325512  0.46080802  0.65239229  1.0000
  O   O11       1.0  0.00926019  0.10781425000000001  0.28106910000000007  1.0000
  O   O12       1.0  0.91337337  0.14432035  0.38584169  1.0000
  O   O13       1.0  0.33609628  0.44163631  0.3297828  1.0000
  O   O14       1.0  0.23054814  0.37922412  0.23629925  1.0000
  O   O15       1.0  0.14919884  0.05917531  0.66756585  1.0000
  O   O16       1.0  0.1767427  0.13798043  0.78090766  1.0000
  O   O17       1.0  0.04524445  0.90346741  0.25963277000000007  1.0000
  O   O18       1.0  0.03674533  0.96080499  0.15239045  1.0000
  O   O19       1.0  0.49074102  0.6078036  0.78106569  1.0000
  O   O20       1.0  0.58662712  0.64431708  0.88583995  1.0000
  O   O21       1.0  0.16391890999999997  0.94163715  0.8297693500000001  1.0000
  O   O22       1.0  0.26945891  0.87921305  0.73628963  1.0000
  O   O23       1.0  0.35079759  0.55917146  0.16756646  1.0000
  O   O24       1.0  0.32324708  0.63797101  0.28090771  1.0000
  O   O25       1.0  0.54523757  0.59653001  0.24036814  1.0000
  O   O26       1.0  0.53674653  0.53919214  0.3476076  1.0000
  O   O27       1.0  0.9907495299999999  0.8921937899999999  0.71893224  1.0000
  O   O28       1.0  0.08662369  0.85568285  0.61415173  1.0000
  O   O29       1.0  0.66391212  0.5583645599999999  0.67021879  1.0000
  O   O30       1.0  0.76944986  0.62078774  0.76370649  1.0000
  O   O31       1.0  0.8508010299999998  0.94082359  0.33243792  1.0000
  O   O32       1.0  0.82325012  0.86203057  0.21908477  1.0000
