data_image0
_chemical_formula_structural       Co2H18C22N4O4
_chemical_formula_sum              "Co2 H18 C22 N4 O4"
_cell_length_a       8.1405
_cell_length_b       10.524500000000002
_cell_length_c       11.429500000000003
_cell_angle_alpha    62.586400000000005
_cell_angle_beta     84.3939
_cell_angle_gamma    77.75

_symmetry_space_group_name_H-M    'P 1'
_symmetry_Int_Tables_number       1

loop_
  _symmetry_equiv_pos_as_xyz
  'x,y,z'

loop_
  _atom_site_type_symbol
  _atom_site_label
  _atom_site_symmetry_multiplicity
  _atom_site_fract_x
  _atom_site_fract_y
  _atom_site_fract_z
  _atom_site_occupancy
  Co  Co1       1.0  0.6279199999999999  0.20032000000000005  0.5074799999999999  1.0000
  Co  Co2       1.0  0.12791999999999998  0.7078  0.49251999999999996  1.0000
  H   H1        1.0  0.5417000000000001  0.8898000000000001  0.6329999999999998  1.0000
  H   H2        1.0  0.7266000000000001  0.0841  0.7986  1.0000
  H   H3        1.0  0.5591  0.30429999999999996  0.2142  1.0000
  H   H4        1.0  0.5384  0.6883000000000001  0.8294  1.0000
  H   H5        1.0  0.6781000000000001  0.7257999999999999  0.1854  1.0000
  H   H6        1.0  0.5632  0.4965  0.009999999999999997  1.0000
  H   H7        1.0  0.6748  0.5211999999999999  0.3848  1.0000
  H   H8        1.0  0.7222  0.8870999999999999  0.0022  1.0000
  H   H9        1.0  0.8560000000000001  0.9039999999999999  0.54  1.0000
  H   H10       1.0  0.04170000000000003  0.5228  0.36699999999999994  1.0000
  H   H11       1.0  0.2266  0.8826999999999999  0.20139999999999994  1.0000
  H   H12       1.0  0.059100000000000034  0.5185  0.7858  1.0000
  H   H13       1.0  0.03840000000000001  0.5177  0.1706  1.0000
  H   H14       1.0  0.17809999999999995  0.9111999999999999  0.8146  1.0000
  H   H15       1.0  0.06319999999999998  0.5065000000000001  0.9899999999999999  1.0000
  H   H16       1.0  0.17480000000000015  0.906  0.6152  1.0000
  H   H17       1.0  0.22219999999999998  0.8893000000000001  0.9978  1.0000
  H   H18       1.0  0.3559999999999999  0.44399999999999995  0.46  1.0000
  C   C1        1.0  0.5797999999999999  0.8895000000000002  0.7092  1.0000
  C   C2        1.0  0.6863000000000001  0.0029000000000001486  0.8047999999999997  1.0000
  C   C3        1.0  0.6276  0.7633  0.9413999999999999  1.0000
  C   C4        1.0  0.621  0.6357  0.0722  1.0000
  C   C5        1.0  0.5852  0.3909  0.20819999999999997  1.0000
  C   C6        1.0  0.5763  0.7692999999999998  0.8261999999999999  1.0000
  C   C7        1.0  0.6542  0.6399  0.1882  1.0000
  C   C8        1.0  0.5861  0.5054  0.0856  1.0000
  C   C9        1.0  0.6515  0.5167999999999999  0.307  1.0000
  C   C10       1.0  0.6843999999999997  0.885  0.9271999999999999  1.0000
  C   C11       1.0  0.8651  0.9676999999999999  0.45519999999999994  1.0000
  C   C12       1.0  0.07980000000000001  0.5987  0.2908  1.0000
  C   C13       1.0  0.18630000000000002  0.8077  0.1952  1.0000
  C   C14       1.0  0.12759999999999996  0.7047  0.05859999999999999  1.0000
  C   C15       1.0  0.12099999999999993  0.7079  0.9278  1.0000
  C   C16       1.0  0.08520000000000005  0.5990999999999999  0.7917999999999998  1.0000
  C   C17       1.0  0.07630000000000002  0.5955  0.1738  1.0000
  C   C18       1.0  0.15419999999999992  0.8281  0.8118  1.0000
  C   C19       1.0  0.08610000000000007  0.591  0.9143999999999999  1.0000
  C   C20       1.0  0.1515  0.8237999999999999  0.693  1.0000
  C   C21       1.0  0.18440000000000006  0.8121999999999999  0.07279999999999998  1.0000
  C   C22       1.0  0.3651000000000001  0.42290000000000005  0.5447999999999998  1.0000
  N   N1        1.0  0.6343  0.009299999999999996  0.6938  1.0000
  N   N2        1.0  0.6179  0.39119999999999994  0.3198  1.0000
  N   N3        1.0  0.13430000000000003  0.7031  0.3062  1.0000
  N   N4        1.0  0.11789999999999996  0.711  0.6802  1.0000
  O   O1        1.0  0.7774  0.09360000000000003  0.40519999999999995  1.0000
  O   O2        1.0  0.9789000000000001  0.9188299999999998  0.39713999999999994  1.0000
  O   O3        1.0  0.2774  0.4988  0.5948  1.0000
  O   O4        1.0  0.47890000000000005  0.31597  0.60286  1.0000
