data_image0
_chemical_formula_structural       Co2H18C22N4O4
_chemical_formula_sum              "Co2 H18 C22 N4 O4"
_cell_length_a       8.1309
_cell_length_b       10.5108
_cell_length_c       11.4194
_cell_angle_alpha    62.599000000000004
_cell_angle_beta     84.40849999999999
_cell_angle_gamma    77.777

_symmetry_space_group_name_H-M    'P 1'
_symmetry_Int_Tables_number       1

loop_
  _symmetry_equiv_pos_as_xyz
  'x,y,z'

loop_
  _atom_site_type_symbol
  _atom_site_label
  _atom_site_symmetry_multiplicity
  _atom_site_fract_x
  _atom_site_fract_y
  _atom_site_fract_z
  _atom_site_occupancy
  Co  Co1       1.0  0.4899299999999999  0.68825  0.50758  1.0000
  Co  Co2       1.0  0.9899299999999999  0.19583  0.49242  1.0000
  H   H1        1.0  0.5877999999999998  0.5699000000000002  0.799  1.0000
  H   H2        1.0  0.4055000000000001  0.37809999999999994  0.635  1.0000
  H   H3        1.0  0.5835  0.3733  0.0014  1.0000
  H   H4        1.0  0.39860000000000007  0.17880000000000004  0.83  1.0000
  H   H5        1.0  0.5381  0.2119  0.1856  1.0000
  H   H6        1.0  0.42299999999999993  0.9867  0.0112  1.0000
  H   H7        1.0  0.5367  0.00959999999999999  0.3838  1.0000
  H   H8        1.0  0.41899999999999993  0.7929000000000002  0.21600000000000003  1.0000
  H   H9        1.0  0.7024  0.39430000000000004  0.5416  1.0000
  H   H10       1.0  0.0878  0.36889999999999995  0.201  1.0000
  H   H11       1.0  0.9054999999999999  0.013099999999999995  0.365  1.0000
  H   H12       1.0  0.08349999999999998  0.3747  0.9986000000000002  1.0000
  H   H13       1.0  0.8986  0.008799999999999999  0.17  1.0000
  H   H14       1.0  0.038099999999999974  0.3975  0.8144000000000001  1.0000
  H   H15       1.0  0.9229999999999999  0.9979000000000001  0.9888  1.0000
  H   H16       1.0  0.03669999999999996  0.39340000000000014  0.6162  1.0000
  H   H17       1.0  0.9190000000000002  0.008899999999999943  0.784  1.0000
  H   H18       1.0  0.20239999999999989  0.9359000000000001  0.4584  1.0000
  C   C1        1.0  0.5481  0.4903900000000001  0.80502  1.0000
  C   C2        1.0  0.44189999999999996  0.37768  0.70984  1.0000
  C   C3        1.0  0.546  0.37166999999999994  0.92786  1.0000
  C   C4        1.0  0.4371  0.25762000000000007  0.82676  1.0000
  C   C5        1.0  0.48900000000000005  0.25144999999999995  0.9415  1.0000
  C   C6        1.0  0.48319999999999996  0.1231  0.0722  1.0000
  C   C7        1.0  0.5156  0.12720999999999996  0.18878  1.0000
  C   C8        1.0  0.44669999999999993  0.99463  0.08534  1.0000
  C   C9        1.0  0.5137  0.005030000000000001  0.30774  1.0000
  C   C10       1.0  0.44570000000000004  0.8777099999999999  0.20958  1.0000
  C   C11       1.0  0.7252999999999998  0.45657  0.45486  1.0000
  C   C12       1.0  0.04810000000000005  0.29540999999999995  0.19498  1.0000
  C   C13       1.0  0.9419  0.08751999999999997  0.29016000000000003  1.0000
  C   C14       1.0  0.046000000000000006  0.29953  0.07214  1.0000
  C   C15       1.0  0.9370999999999998  0.08438000000000002  0.17324  1.0000
  C   C16       1.0  0.989  0.19295  0.0585  1.0000
  C   C17       1.0  0.9832000000000001  0.19529999999999997  0.9278000000000001  1.0000
  C   C18       1.0  0.015599999999999984  0.31598999999999994  0.8112200000000002  1.0000
  C   C19       1.0  0.9466999999999999  0.07996999999999997  0.91466  1.0000
  C   C20       1.0  0.013700000000000021  0.31277  0.69226  1.0000
  C   C21       1.0  0.9456999999999995  0.08729000000000002  0.79042  1.0000
  C   C22       1.0  0.22529999999999997  0.9114300000000001  0.54514  1.0000
  N   N1        1.0  0.49649999999999994  0.49661000000000005  0.69578  1.0000
  N   N2        1.0  0.4808  0.87971  0.32038000000000005  1.0000
  N   N3        1.0  0.9965000000000002  0.19238999999999998  0.30422  1.0000
  N   N4        1.0  0.9808  0.20009  0.67962  1.0000
  O   O1        1.0  0.6388  0.5827100000000001  0.40498  1.0000
  O   O2        1.0  0.8404999999999999  0.40799  0.39662  1.0000
  O   O3        1.0  0.13880000000000006  0.9876899999999998  0.5950200000000001  1.0000
  O   O4        1.0  0.34049999999999997  0.80461  0.60338  1.0000
