data_image0
_chemical_formula_structural       Ni2H18C22N4O4
_chemical_formula_sum              "Ni2 H18 C22 N4 O4"
_cell_length_a       8.1266
_cell_length_b       10.4815
_cell_length_c       11.3167
_cell_angle_alpha    62.4127
_cell_angle_beta     84.187
_cell_angle_gamma    77.367

_symmetry_space_group_name_H-M    'P 1'
_symmetry_Int_Tables_number       1

loop_
  _symmetry_equiv_pos_as_xyz
  'x,y,z'

loop_
  _atom_site_type_symbol
  _atom_site_label
  _atom_site_symmetry_multiplicity
  _atom_site_fract_x
  _atom_site_fract_y
  _atom_site_fract_z
  _atom_site_occupancy
  Ni  Ni1       1.0  0.48977  0.68815  0.50778  1.0000
  Ni  Ni2       1.0  0.98977  0.19592999999999997  0.49222  1.0000
  H   H1        1.0  0.6  0.5731  0.7898000000000001  1.0000
  H   H2        1.0  0.4149999999999999  0.3813000000000001  0.6274  1.0000
  H   H3        1.0  0.606  0.3744  0.9992  1.0000
  H   H4        1.0  0.40079999999999993  0.17890000000000003  0.8274  1.0000
  H   H5        1.0  0.528  0.22080000000000002  0.1904  1.0000
  H   H6        1.0  0.418  0.9861  0.0098  1.0000
  H   H7        1.0  0.555  0.9945  0.395  1.0000
  H   H8        1.0  0.42500000000000004  0.7759999999999999  0.218  1.0000
  H   H9        1.0  0.709  0.3813  0.5594  1.0000
  H   H10       1.0  0.1  0.3629  0.2102  1.0000
  H   H11       1.0  0.915  0.008699999999999984  0.3726  1.0000
  H   H12       1.0  0.106  0.3736  0.0008  1.0000
  H   H13       1.0  0.9007999999999998  0.006299999999999991  0.1726  1.0000
  H   H14       1.0  0.02799999999999993  0.4112000000000001  0.8096  1.0000
  H   H15       1.0  0.9179999999999997  0.9959  0.9902000000000001  1.0000
  H   H16       1.0  0.05500000000000004  0.3895  0.605  1.0000
  H   H17       1.0  0.9249999999999999  0.9939999999999999  0.7820000000000001  1.0000
  H   H18       1.0  0.20899999999999994  0.9407000000000001  0.44060000000000005  1.0000
  C   C1        1.0  0.5473999999999999  0.49285  0.8033000000000001  1.0000
  C   C2        1.0  0.44329999999999986  0.38128999999999996  0.70542  1.0000
  C   C3        1.0  0.5439  0.37388000000000005  0.9282400000000001  1.0000
  C   C4        1.0  0.43819999999999976  0.25805000000000006  0.8245  1.0000
  C   C5        1.0  0.4895  0.25258  0.9408400000000001  1.0000
  C   C6        1.0  0.4837  0.12306999999999997  0.07306  1.0000
  C   C7        1.0  0.5173  0.12527000000000002  0.19066  1.0000
  C   C8        1.0  0.4456  0.99354  0.08652  1.0000
  C   C9        1.0  0.5172  0.0013899999999999982  0.31062  1.0000
  C   C10       1.0  0.44550000000000006  0.8755499999999997  0.21050000000000005  1.0000
  C   C11       1.0  0.7275999999999997  0.4546  0.45760000000000006  1.0000
  C   C12       1.0  0.04740000000000001  0.29614999999999997  0.1967  1.0000
  C   C13       1.0  0.9432999999999999  0.08671  0.29458  1.0000
  C   C14       1.0  0.04389999999999998  0.30212000000000006  0.07176  1.0000
  C   C15       1.0  0.9382  0.08254999999999998  0.17550000000000002  1.0000
  C   C16       1.0  0.9894999999999999  0.19342  0.05916  1.0000
  C   C17       1.0  0.9837000000000001  0.19612999999999994  0.9269400000000001  1.0000
  C   C18       1.0  0.01729999999999996  0.3159300000000001  0.80934  1.0000
  C   C19       1.0  0.9455999999999998  0.08006000000000005  0.91348  1.0000
  C   C20       1.0  0.017200000000000024  0.31200999999999995  0.68938  1.0000
  C   C21       1.0  0.9455  0.08604999999999999  0.7895  1.0000
  C   C22       1.0  0.2275999999999999  0.9122000000000001  0.5424  1.0000
  N   N1        1.0  0.49570000000000003  0.49877000000000005  0.69206  1.0000
  N   N2        1.0  0.4819  0.8754000000000001  0.323  1.0000
  N   N3        1.0  0.9957000000000001  0.19083  0.30794  1.0000
  N   N4        1.0  0.9819  0.1983999999999999  0.6770000000000002  1.0000
  O   O1        1.0  0.6381  0.58053  0.40718000000000004  1.0000
  O   O2        1.0  0.8431999999999998  0.40619  0.39864  1.0000
  O   O3        1.0  0.13810000000000003  0.9877100000000001  0.59282  1.0000
  O   O4        1.0  0.34320000000000006  0.80483  0.60136  1.0000
