data_image0
_chemical_formula_structural       Zn8H36C96O32
_chemical_formula_sum              "Zn8 H36 C96 O32"
_cell_length_a       12.19882682
_cell_length_b       15.193752950000002
_cell_length_c       26.50549206
_cell_angle_alpha    90.00007944
_cell_angle_beta     105.00435564
_cell_angle_gamma    90.00040027

_symmetry_space_group_name_H-M    'P 1'
_symmetry_Int_Tables_number       1

loop_
  _symmetry_equiv_pos_as_xyz
  'x,y,z'

loop_
  _atom_site_type_symbol
  _atom_site_label
  _atom_site_symmetry_multiplicity
  _atom_site_fract_x
  _atom_site_fract_y
  _atom_site_fract_z
  _atom_site_occupancy
  Zn  Zn1       1.0  0.9785622099999999  0.4970268599999999  0.13875571999999997  1.0000
  Zn  Zn2       1.0  0.16097678  0.37374007  0.2073433  1.0000
  Zn  Zn3       1.0  0.021441679999999994  0.99702429  0.36124391  1.0000
  Zn  Zn4       1.0  0.8390302899999998  0.8737406299999998  0.29265606999999993  1.0000
  Zn  Zn5       1.0  0.021447100000000004  0.50297313  0.86124088  1.0000
  Zn  Zn6       1.0  0.83903337  0.62625944  0.7926555699999998  1.0000
  Zn  Zn7       1.0  0.97855142  0.00297338  0.6387579  1.0000
  Zn  Zn8       1.0  0.1609637399999999  0.12625881  0.70734436  1.0000
  H   H1        1.0  0.22685701999999988  0.51424689  0.4057249699999999  1.0000
  H   H2        1.0  0.23869227  0.3767845999999999  0.45477308  1.0000
  H   H3        1.0  0.47767941999999997  0.75824048  0.40686909  1.0000
  H   H4        1.0  0.29471037999999994  0.2207715  0.44204650999999995  1.0000
  H   H5        1.0  0.09396197  0.07626386  0.52561497  1.0000
  H   H6        1.0  0.33583663999999996  0.26790429  0.60665162  1.0000
  H   H7        1.0  0.25651963  0.78448042  0.39469951  1.0000
  H   H8        1.0  0.04590418000000001  0.69675563  0.2466925  1.0000
  H   H9        1.0  0.31969596999999994  0.5337130899999998  0.33129747  1.0000
  H   H10       1.0  0.77314242  0.01424932  0.09427569  1.0000
  H   H11       1.0  0.7613068099999996  0.87678799  0.045226079999999995  1.0000
  H   H12       1.0  0.52232324  0.25824284  0.093131  1.0000
  H   H13       1.0  0.70528629  0.72077471  0.057953589999999985  1.0000
  H   H14       1.0  0.90603548  0.57626904  0.97438527  1.0000
  H   H15       1.0  0.66415855  0.76790176  0.89334818  1.0000
  H   H16       1.0  0.74347866  0.28448138  0.10530202  1.0000
  H   H17       1.0  0.95409185  0.19676501999999998  0.25331122  1.0000
  H   H18       1.0  0.68030755  0.03371212  0.16870403  1.0000
  H   H19       1.0  0.7731382199999999  0.48575604  0.59427725  1.0000
  H   H20       1.0  0.7613026  0.6232157799999998  0.54522741  1.0000
  H   H21       1.0  0.52231604  0.24176195  0.59313281  1.0000
  H   H22       1.0  0.70528902  0.77922821  0.55795386  1.0000
  H   H23       1.0  0.90603828  0.92373596  0.47438629999999987  1.0000
  H   H24       1.0  0.66416121  0.73209665  0.39334928  1.0000
  H   H25       1.0  0.74347136  0.21551848  0.60529997  1.0000
  H   H26       1.0  0.9540921299999999  0.30323671  0.7533082  1.0000
  H   H27       1.0  0.6803064799999999  0.4662858699999999  0.6687059999999998  1.0000
  H   H28       1.0  0.22685714999999998  0.9857488299999998  0.9057260499999998  1.0000
  H   H29       1.0  0.23869394999999996  0.12321211  0.9547742099999998  1.0000
  H   H30       1.0  0.47768026999999996  0.74175941  0.90686668  1.0000
  H   H31       1.0  0.29471337999999997  0.2792260299999999  0.9420429599999999  1.0000
  H   H32       1.0  0.09397241  0.4237376  0.025610579999999997  1.0000
  H   H33       1.0  0.33583725999999997  0.23209461  0.10664749999999998  1.0000
  H   H34       1.0  0.25652646  0.7155155399999997  0.89469584  1.0000
  H   H35       1.0  0.04591056000000002  0.8032389399999997  0.74668892  1.0000
  H   H36       1.0  0.3196973699999999  0.9662886899999997  0.8312978599999999  1.0000
  C   C1        1.0  0.3048202399999999  0.4978882  0.4349962199999999  1.0000
  C   C2        1.0  0.31142462  0.42102843  0.46230603  1.0000
  C   C3        1.0  0.41174294  0.39752371  0.50140841  1.0000
  C   C4        1.0  0.49624589999999985  0.54059334  0.48594972999999997  1.0000
  C   C5        1.0  0.39740305  0.55883497  0.4445719899999999  1.0000
  C   C6        1.0  0.39306686  0.6378706  0.41568192  1.0000
  C   C7        1.0  0.48218343  0.69790028  0.42964643  1.0000
  C   C8        1.0  0.42046223  0.31782282  0.52991168  1.0000
  C   C9        1.0  0.32634422  0.25371185  0.52452521  1.0000
  C   C10       1.0  0.27138321  0.20894033999999997  0.47851925  1.0000
  C   C11       1.0  0.18742794999999998  0.14572812  0.47889991  1.0000
  C   C12       1.0  0.15805126000000003  0.12607731  0.52533391  1.0000
  C   C13       1.0  0.21278856999999993  0.1702929  0.5711840799999999  1.0000
  C   C14       1.0  0.29511509  0.23386266  0.57050429  1.0000
  C   C15       1.0  0.2989938099999999  0.65632754  0.3691695799999999  1.0000
  C   C16       1.0  0.23727142999999998  0.7350732399999997  0.36382983  1.0000
  C   C17       1.0  0.14644503  0.7495001599999997  0.31987702  1.0000
  C   C18       1.0  0.11798749  0.6863806299999998  0.28022798  1.0000
  C   C19       1.0  0.18184527  0.60933487  0.28445002  1.0000
  C   C20       1.0  0.27144322  0.59449943  0.32868954  1.0000
  C   C21       1.0  0.15233238  0.54042928  0.24341698  1.0000
  C   C22       1.0  0.18784793999999996  0.14926510999999995  0.6212994099999999  1.0000
  C   C23       1.0  0.07213632999999998  0.82802841  0.3170780999999999  1.0000
  C   C24       1.0  0.1306887  0.09600126999999997  0.43043799  1.0000
  C   C25       1.0  0.69517674  0.9978893699999999  0.06500467  1.0000
  C   C26       1.0  0.68857569  0.9210291599999999  0.03769511  1.0000
  C   C27       1.0  0.58825313  0.8975238  0.99859281  1.0000
  C   C28       1.0  0.50375167  0.04059193  0.014051569999999996  1.0000
  C   C29       1.0  0.6025965499999999  0.05883156  0.05542991999999999  1.0000
  C   C30       1.0  0.60692923  0.1378723  0.08431970999999999  1.0000
  C   C31       1.0  0.51781825  0.19790052  0.07035321999999998  1.0000
  C   C32       1.0  0.57953476  0.81782141  0.97008847  1.0000
  C   C33       1.0  0.67365338  0.75371354  0.9754759599999998  1.0000
  C   C34       1.0  0.72861426  0.70894179  0.02148069  1.0000
  C   C35       1.0  0.81256925  0.6457309999999998  0.021101379999999993  1.0000
  C   C36       1.0  0.84194844  0.62607999  0.9746664999999998  1.0000
  C   C37       1.0  0.78720704  0.6702930699999998  0.9288165099999998  1.0000
  C   C38       1.0  0.70488091  0.7338611699999997  0.92949548  1.0000
  C   C39       1.0  0.7010052  0.15632711  0.1308342  1.0000
  C   C40       1.0  0.76272377  0.23507667  0.13617083  1.0000
  C   C41       1.0  0.8535540399999999  0.24950418  0.18012689  1.0000
  C   C42       1.0  0.8820051199999999  0.18638776  0.21977360999999998  1.0000
  C   C43       1.0  0.81815753  0.10934108  0.21555382  1.0000
  C   C44       1.0  0.7285538999999999  0.094501  0.17131239999999995  1.0000
  C   C45       1.0  0.84766234  0.04042918  0.25658096999999996  1.0000
  C   C46       1.0  0.8121468499999999  0.64926511  0.87870099  1.0000
  C   C47       1.0  0.92786007  0.32803471  0.18291820999999997  1.0000
  C   C48       1.0  0.86931212  0.59600255  0.06956141  1.0000
  C   C49       1.0  0.695173  0.50211465  0.5650056799999998  1.0000
  C   C50       1.0  0.68857216  0.5789748999999997  0.53769597  1.0000
  C   C51       1.0  0.58825157  0.6024775399999998  0.4985940499999999  1.0000
  C   C52       1.0  0.503749  0.45941047  0.51405295  1.0000
  C   C53       1.0  0.60259196  0.44116899999999987  0.55543042  1.0000
  C   C54       1.0  0.60692854  0.36213103  0.58432108  1.0000
  C   C55       1.0  0.51781265  0.3021027999999999  0.57035513  1.0000
  C   C56       1.0  0.57953198  0.68218045  0.47008951  1.0000
  C   C57       1.0  0.67365468  0.7462897499999998  0.4754754599999999  1.0000
  C   C58       1.0  0.7286141999999999  0.79105807  0.52148254  1.0000
  C   C59       1.0  0.8125736199999999  0.85427218  0.52110067  1.0000
  C   C60       1.0  0.8419454299999999  0.8739192999999997  0.47466744  1.0000
  C   C61       1.0  0.78721074  0.82970901  0.42881829  1.0000
  C   C62       1.0  0.7048794499999997  0.76613581  0.42949734999999994  1.0000
  C   C63       1.0  0.7010024799999999  0.34367143  0.63083202  1.0000
  C   C64       1.0  0.7627203299999995  0.26492681  0.6361705299999998  1.0000
  C   C65       1.0  0.8535482899999999  0.25049561  0.68012329  1.0000
  C   C66       1.0  0.8820069799999998  0.3136153399999999  0.7197728799999998  1.0000
  C   C67       1.0  0.81815667  0.39065954  0.71555241  1.0000
  C   C68       1.0  0.72855484  0.4055006399999999  0.6713127099999999  1.0000
  C   C69       1.0  0.8476642  0.45957099  0.75658137  1.0000
  C   C70       1.0  0.8121428299999998  0.85073363  0.37870074  1.0000
  C   C71       1.0  0.9278513199999998  0.17196388  0.682919  1.0000
  C   C72       1.0  0.86931618  0.9039986  0.56956069  1.0000
  C   C73       1.0  0.30482288  0.0021096  0.9349969599999999  1.0000
  C   C74       1.0  0.31142675  0.07896989  0.96230564  1.0000
  C   C75       1.0  0.41174831  0.10247608  0.00140678  1.0000
  C   C76       1.0  0.49624952  0.95940836  0.98594909  1.0000
  C   C77       1.0  0.39740555  0.9411663499999998  0.94457111  1.0000
  C   C78       1.0  0.39306949  0.86212747  0.9156799099999999  1.0000
  C   C79       1.0  0.4821837299999998  0.80210208  0.9296455399999998  1.0000
  C   C80       1.0  0.42047048  0.18217864  0.02991016  1.0000
  C   C81       1.0  0.3263484  0.2462885  0.024520889999999997  1.0000
  C   C82       1.0  0.2713849699999998  0.29106105  0.9785156999999998  1.0000
  C   C83       1.0  0.18743899000000006  0.3542669  0.97889636  1.0000
  C   C84       1.0  0.15805409999999998  0.3739262  0.02533137  1.0000
  C   C85       1.0  0.2128005  0.3297052799999999  0.07118034  1.0000
  C   C86       1.0  0.29511618999999994  0.2661417699999999  0.07050099999999998  1.0000
  C   C87       1.0  0.2989979099999998  0.84367425  0.8691667799999998  1.0000
  C   C88       1.0  0.2372797399999999  0.7649227  0.8638283099999999  1.0000
  C   C89       1.0  0.14645017  0.7504954899999998  0.8198720699999998  1.0000
  C   C90       1.0  0.11799549999999999  0.8136126599999998  0.7802262599999998  1.0000
  C   C91       1.0  0.18184658999999984  0.89066277  0.7844474199999998  1.0000
  C   C92       1.0  0.2714480599999998  0.9054984799999998  0.8286894899999998  1.0000
  C   C93       1.0  0.15233397  0.9595730599999998  0.74341941  1.0000
  C   C94       1.0  0.18785521999999996  0.3507406499999999  0.12129552  1.0000
  C   C95       1.0  0.07214238999999999  0.6719661799999997  0.81707563  1.0000
  C   C96       1.0  0.13069484999999992  0.40399628999999987  0.9304307499999999  1.0000
  O   O1        1.0  0.23505028999999983  0.19510868  0.6622811799999998  1.0000
  O   O2        1.0  0.12222608999999984  0.08521577  0.6251889499999999  1.0000
  O   O3        1.0  0.9768035599999999  0.82480597  0.28227131  1.0000
  O   O4        1.0  0.10563549999999991  0.8906154  0.3492863799999999  1.0000
  O   O5        1.0  0.21498145  0.47089556  0.25196199  1.0000
  O   O6        1.0  0.06866566999999994  0.55340763  0.20417634999999995  1.0000
  O   O7        1.0  0.04997237999999999  0.04213732999999999  0.43348008  1.0000
  O   O8        1.0  0.15976956999999992  0.10452459999999997  0.38825954999999995  1.0000
  O   O9        1.0  0.7649445999999998  0.69510475  0.8377186199999997  1.0000
  O   O10       1.0  0.8777736299999997  0.58521486  0.8748119099999998  1.0000
  O   O11       1.0  0.023201540000000003  0.32481194999999996  0.21773033  1.0000
  O   O12       1.0  0.89437203  0.39061113  0.15071107  1.0000
  O   O13       1.0  0.7850269  0.97089672  0.24803822  1.0000
  O   O14       1.0  0.9313436700000001  0.05340831  0.29582753  1.0000
  O   O15       1.0  0.9500306299999999  0.54214841  0.06652044  1.0000
  O   O16       1.0  0.8402237599999999  0.6045209199999998  0.11174168  1.0000
  O   O17       1.0  0.76494165  0.8048938999999998  0.33771975  1.0000
  O   O18       1.0  0.8777693899999998  0.9147874699999998  0.37481124  1.0000
  O   O19       1.0  0.02318763999999999  0.17518522  0.71773036  1.0000
  O   O20       1.0  0.89435583  0.10938265  0.6507126999999998  1.0000
  O   O21       1.0  0.7850295899999999  0.5291027  0.7480382199999998  1.0000
  O   O22       1.0  0.9313411499999995  0.44658707  0.7958272599999998  1.0000
  O   O23       1.0  0.9500274999999999  0.95785992  0.5665211999999998  1.0000
  O   O24       1.0  0.8402315299999998  0.89547368  0.61174515  1.0000
  O   O25       1.0  0.23506166  0.30489318  0.16227918  1.0000
  O   O26       1.0  0.12224216  0.41478899  0.12518836999999997  1.0000
  O   O27       1.0  0.97681038  0.67518637  0.7822681499999998  1.0000
  O   O28       1.0  0.10564103999999994  0.60938001  0.8492855699999999  1.0000
  O   O29       1.0  0.21497600000000008  0.02910761  0.75196332  1.0000
  O   O30       1.0  0.06865825999999993  0.9465959  0.7041774699999999  1.0000
  O   O31       1.0  0.04998756999999989  0.45786728  0.9334797299999997  1.0000
  O   O32       1.0  0.15975960999999986  0.39546353999999995  0.8882550999999997  1.0000
