data_image0
_chemical_formula_structural       Zn8H160C240N8O32
_chemical_formula_sum              "Zn8 H160 C240 N8 O32"
_cell_length_a       15.11014452
_cell_length_b       27.64624281
_cell_length_c       15.93747888
_cell_angle_alpha    90.00000361999999
_cell_angle_beta     95.02669713
_cell_angle_gamma    89.99999645999999

_symmetry_space_group_name_H-M    'P 1'
_symmetry_Int_Tables_number       1

loop_
  _symmetry_equiv_pos_as_xyz
  'x,y,z'

loop_
  _atom_site_type_symbol
  _atom_site_label
  _atom_site_symmetry_multiplicity
  _atom_site_fract_x
  _atom_site_fract_y
  _atom_site_fract_z
  _atom_site_occupancy
  Zn  Zn1       1.0  0.06117838999999997  0.50389454  0.4363122299999999  1.0000
  Zn  Zn2       1.0  0.43882159999999987  0.00389452  0.06368770999999997  1.0000
  Zn  Zn3       1.0  0.93882159  0.49610545  0.56368779  1.0000
  Zn  Zn4       1.0  0.5611784099999998  0.9961054699999999  0.9363122799999998  1.0000
  Zn  Zn5       1.0  0.5611783499999998  0.00389454  0.43631221999999986  1.0000
  Zn  Zn6       1.0  0.9388215999999998  0.50389455  0.0636877  1.0000
  Zn  Zn7       1.0  0.4388216199999999  0.99610546  0.56368779  1.0000
  Zn  Zn8       1.0  0.061178399999999966  0.49610545  0.9363122799999998  1.0000
  H   H1        1.0  0.025603139999999983  0.36037132  0.6806807999999998  1.0000
  H   H2        1.0  0.09351528  0.28258745  0.72881487  1.0000
  H   H3        1.0  0.27562527  0.29231459  0.5355024  1.0000
  H   H4        1.0  0.20604368999999995  0.37100281  0.48837213  1.0000
  H   H5        1.0  0.29240571  0.22712645  0.63082342  1.0000
  H   H6        1.0  0.14406143999999993  0.21495748999999997  0.7499417099999998  1.0000
  H   H7        1.0  0.16540865  0.16075298  0.8577703499999998  1.0000
  H   H8        1.0  0.2502664999999999  0.09422536  0.93411078  1.0000
  H   H9        1.0  0.42550412  0.08672453  0.7360175999999998  1.0000
  H   H10       1.0  0.34342766  0.15317904  0.6603433199999997  1.0000
  H   H11       1.0  0.24049258  0.46770399  0.4391771499999999  1.0000
  H   H12       1.0  0.36673515000000007  0.46743409  0.34823931  1.0000
  H   H13       1.0  0.20010945999999993  0.54858036  0.16430754  1.0000
  H   H14       1.0  0.08157262  0.54570054  0.26241831  1.0000
  H   H15       1.0  0.43200101  0.49757473  0.22440586999999995  1.0000
  H   H16       1.0  0.2905396299999999  0.51553746  0.07719722999999998  1.0000
  H   H17       1.0  0.58301365  0.57671482  0.84738639  1.0000
  H   H18       1.0  0.48746425999999987  0.6487632  0.84514386  1.0000
  H   H19       1.0  0.3683995499999999  0.6554583  0.9435456499999998  1.0000
  H   H20       1.0  0.34517615  0.58926886  0.043475739999999985  1.0000
  H   H21       1.0  0.47439686  0.8603713  0.8193191799999998  1.0000
  H   H22       1.0  0.40648469  0.78258744  0.77118513  1.0000
  H   H23       1.0  0.22437472999999988  0.79231464  0.9644976699999998  1.0000
  H   H24       1.0  0.29395637  0.8710028599999999  0.011627889999999997  1.0000
  H   H25       1.0  0.20759421999999994  0.72712652  0.86917662  1.0000
  H   H26       1.0  0.35593844999999996  0.71495751  0.75005827  1.0000
  H   H27       1.0  0.33459124  0.66075303  0.64222967  1.0000
  H   H28       1.0  0.24973351  0.5942253599999999  0.56588928  1.0000
  H   H29       1.0  0.07449587999999999  0.5867245  0.7639824199999998  1.0000
  H   H30       1.0  0.1565722  0.65317906  0.83965667  1.0000
  H   H31       1.0  0.25950754  0.96770394  0.06082286999999999  1.0000
  H   H32       1.0  0.13326492  0.96743408  0.15176063999999995  1.0000
  H   H33       1.0  0.2998905599999998  0.04858036  0.3356924799999999  1.0000
  H   H34       1.0  0.41842742  0.04570052  0.23758171999999997  1.0000
  H   H35       1.0  0.06799903  0.9975747099999999  0.27559409  1.0000
  H   H36       1.0  0.20946040999999993  0.01553741  0.4228027399999999  1.0000
  H   H37       1.0  0.91698639  0.07671482  0.6526135999999998  1.0000
  H   H38       1.0  0.01253575999999998  0.1487632  0.6548561199999998  1.0000
  H   H39       1.0  0.13160047  0.15545829  0.55645433  1.0000
  H   H40       1.0  0.15482388  0.08926884999999998  0.4565242599999999  1.0000
  H   H41       1.0  0.9743968399999998  0.63962868  0.31931916  1.0000
  H   H42       1.0  0.9064846699999999  0.71741256  0.27118516  1.0000
  H   H43       1.0  0.72437473  0.70768539  0.46449765999999987  1.0000
  H   H44       1.0  0.7939563599999998  0.62899716  0.51162793  1.0000
  H   H45       1.0  0.70759425  0.77287351  0.36917663  1.0000
  H   H46       1.0  0.8559384999999997  0.7850424699999999  0.25005832  1.0000
  H   H47       1.0  0.8345912899999998  0.83924696  0.14222965  1.0000
  H   H48       1.0  0.74973352  0.90577464  0.0658893  1.0000
  H   H49       1.0  0.57449589  0.91327547  0.2639824899999999  1.0000
  H   H50       1.0  0.6565723  0.84682093  0.3396566799999999  1.0000
  H   H51       1.0  0.75950752  0.53229602  0.56082291  1.0000
  H   H52       1.0  0.63326489  0.53256591  0.6517606799999998  1.0000
  H   H53       1.0  0.7998905399999998  0.45141960999999997  0.83569249  1.0000
  H   H54       1.0  0.9184274099999998  0.4542994299999999  0.73758174  1.0000
  H   H55       1.0  0.56799903  0.5024253  0.77559416  1.0000
  H   H56       1.0  0.70946044  0.48446255  0.9228027799999998  1.0000
  H   H57       1.0  0.4169864  0.4232852  0.15261363999999994  1.0000
  H   H58       1.0  0.51253575  0.3512368  0.15485613  1.0000
  H   H59       1.0  0.63160044  0.34454169  0.05645433  1.0000
  H   H60       1.0  0.6548238699999998  0.41073114  0.9565242699999997  1.0000
  H   H61       1.0  0.52560313  0.1396287  0.18068082999999993  1.0000
  H   H62       1.0  0.5935153  0.21741257  0.22881488999999994  1.0000
  H   H63       1.0  0.77562525  0.20768537999999998  0.03550236  1.0000
  H   H64       1.0  0.7060436099999998  0.12899717  0.9883721099999998  1.0000
  H   H65       1.0  0.7924057399999999  0.27287351  0.13082341  1.0000
  H   H66       1.0  0.6440614299999998  0.2850425  0.24994168999999994  1.0000
  H   H67       1.0  0.6654086799999998  0.33924701  0.3577703799999999  1.0000
  H   H68       1.0  0.7502665499999999  0.40577464  0.43411076999999987  1.0000
  H   H69       1.0  0.9255041099999998  0.41327544999999993  0.23601754  1.0000
  H   H70       1.0  0.84342761  0.34682094  0.16034329999999994  1.0000
  H   H71       1.0  0.7404925699999998  0.03229605  0.9391770799999998  1.0000
  H   H72       1.0  0.86673514  0.03256593  0.84823924  1.0000
  H   H73       1.0  0.7001094499999998  0.95141962  0.66430752  1.0000
  H   H74       1.0  0.58157263  0.95429945  0.7624182899999998  1.0000
  H   H75       1.0  0.932001  0.0024252799999999997  0.72440578  1.0000
  H   H76       1.0  0.79053957  0.98446258  0.5771971599999998  1.0000
  H   H77       1.0  0.0830136  0.9232851699999999  0.3473863499999999  1.0000
  H   H78       1.0  0.98746427  0.85123678  0.3451438599999999  1.0000
  H   H79       1.0  0.86839956  0.84454169  0.44354565  1.0000
  H   H80       1.0  0.8451761299999998  0.91073115  0.5434756899999997  1.0000
  H   H81       1.0  0.52560316  0.86037133  0.68068084  1.0000
  H   H82       1.0  0.59351531  0.78258745  0.72881487  1.0000
  H   H83       1.0  0.7756252599999999  0.79231461  0.53550237  1.0000
  H   H84       1.0  0.70604367  0.87100284  0.4883721099999999  1.0000
  H   H85       1.0  0.79240572  0.72712648  0.6308233999999998  1.0000
  H   H86       1.0  0.6440614999999997  0.7149575199999999  0.7499417199999998  1.0000
  H   H87       1.0  0.6654087299999998  0.66075305  0.85777036  1.0000
  H   H88       1.0  0.75026648  0.5942253699999999  0.9341107399999998  1.0000
  H   H89       1.0  0.9255041199999998  0.58672453  0.73601755  1.0000
  H   H90       1.0  0.8434277199999999  0.65317909  0.66034333  1.0000
  H   H91       1.0  0.74049246  0.96770394  0.4391770899999999  1.0000
  H   H92       1.0  0.86673509  0.9674340699999999  0.34823933  1.0000
  H   H93       1.0  0.7001094699999998  0.04858036  0.16430750999999993  1.0000
  H   H94       1.0  0.58157263  0.04570057  0.2624182799999999  1.0000
  H   H95       1.0  0.93200099  0.9975747099999999  0.22440587999999995  1.0000
  H   H96       1.0  0.79053958  0.01553744  0.07719724999999997  1.0000
  H   H97       1.0  0.08301361  0.07671483  0.84738638  1.0000
  H   H98       1.0  0.98746425  0.14876321999999997  0.8451438999999997  1.0000
  H   H99       1.0  0.86839955  0.15545832  0.94354569  1.0000
  H   H100      1.0  0.8451761299999998  0.08926886  0.04347572999999998  1.0000
  H   H101      1.0  0.9743968499999998  0.36037131  0.8193191999999998  1.0000
  H   H102      1.0  0.9064847099999997  0.28258744  0.77118513  1.0000
  H   H103      1.0  0.72437473  0.29231459  0.96449763  1.0000
  H   H104      1.0  0.7939563299999998  0.37100281  0.0116279  1.0000
  H   H105      1.0  0.70759428  0.22712646  0.8691765999999997  1.0000
  H   H106      1.0  0.8559385699999997  0.2149575  0.7500583  1.0000
  H   H107      1.0  0.8345913499999997  0.16075299  0.64222963  1.0000
  H   H108      1.0  0.74973349  0.09422536  0.56588922  1.0000
  H   H109      1.0  0.5744959  0.08672454  0.7639824299999998  1.0000
  H   H110      1.0  0.6565723799999998  0.15317905  0.8396566799999998  1.0000
  H   H111      1.0  0.75950753  0.46770396  0.06082289  1.0000
  H   H112      1.0  0.63326493  0.46743408  0.15176067999999995  1.0000
  H   H113      1.0  0.7998905899999997  0.54858038  0.33569247  1.0000
  H   H114      1.0  0.9184274199999998  0.54570055  0.23758171999999997  1.0000
  H   H115      1.0  0.56799905  0.49757472  0.27559412  1.0000
  H   H116      1.0  0.70946042  0.51553739  0.4228027899999999  1.0000
  H   H117      1.0  0.41698643999999996  0.57671484  0.6526136599999998  1.0000
  H   H118      1.0  0.5125357999999999  0.64876322  0.6548561299999998  1.0000
  H   H119      1.0  0.63160049  0.6554583  0.5564543  1.0000
  H   H120      1.0  0.6548238699999998  0.58926885  0.4565242399999999  1.0000
  H   H121      1.0  0.47439685  0.13962868  0.3193191699999999  1.0000
  H   H122      1.0  0.4064847  0.21741256  0.27118512  1.0000
  H   H123      1.0  0.22437473999999988  0.2076854  0.46449762  1.0000
  H   H124      1.0  0.29395633  0.12899719  0.51162788  1.0000
  H   H125      1.0  0.20759425999999995  0.27287354  0.36917659  1.0000
  H   H126      1.0  0.3559385399999999  0.2850425  0.2500583  1.0000
  H   H127      1.0  0.3345913499999999  0.33924701  0.14222967  1.0000
  H   H128      1.0  0.24973351  0.40577464  0.06588926  1.0000
  H   H129      1.0  0.07449586999999999  0.41327546  0.2639824099999999  1.0000
  H   H130      1.0  0.15657232  0.34682095  0.33965669  1.0000
  H   H131      1.0  0.25950749  0.03229603  0.56082288  1.0000
  H   H132      1.0  0.13326487  0.03256592  0.65176067  1.0000
  H   H133      1.0  0.2998905199999999  0.95141961  0.8356924699999998  1.0000
  H   H134      1.0  0.41842738  0.95429946  0.73758173  1.0000
  H   H135      1.0  0.06799900999999997  0.0024253  0.7755941399999998  1.0000
  H   H136      1.0  0.20946039999999994  0.98446256  0.9228027799999998  1.0000
  H   H137      1.0  0.91698638  0.9232851799999999  0.15261362  1.0000
  H   H138      1.0  0.012535749999999997  0.8512368  0.15485612  1.0000
  H   H139      1.0  0.13160046  0.8445417  0.05645433  1.0000
  H   H140      1.0  0.15482386  0.91073114  0.9565242699999997  1.0000
  H   H141      1.0  0.02560314999999999  0.6396287  0.18068082999999993  1.0000
  H   H142      1.0  0.09351531999999997  0.71741257  0.22881487  1.0000
  H   H143      1.0  0.27562524  0.70768539  0.03550235  1.0000
  H   H144      1.0  0.2060436599999999  0.6289971699999999  0.9883721099999998  1.0000
  H   H145      1.0  0.29240572  0.77287354  0.1308234  1.0000
  H   H146      1.0  0.14406142999999993  0.7850424999999999  0.24994167999999994  1.0000
  H   H147      1.0  0.16540865  0.839247  0.3577703599999999  1.0000
  H   H148      1.0  0.2502665  0.90577463  0.43411077999999986  1.0000
  H   H149      1.0  0.4255041  0.91327546  0.23601755999999993  1.0000
  H   H150      1.0  0.34342762  0.84682095  0.16034331  1.0000
  H   H151      1.0  0.24049251999999993  0.53229604  0.93917712  1.0000
  H   H152      1.0  0.36673511  0.53256593  0.84823931  1.0000
  H   H153      1.0  0.20010946999999996  0.45141964  0.6643074999999998  1.0000
  H   H154      1.0  0.08157264  0.45429945  0.76241827  1.0000
  H   H155      1.0  0.432001  0.5024253  0.7244058499999998  1.0000
  H   H156      1.0  0.2905396099999999  0.48446257  0.5771972299999998  1.0000
  H   H157      1.0  0.5830136  0.42328519  0.34738636  1.0000
  H   H158      1.0  0.4874642399999999  0.35123679  0.3451438599999999  1.0000
  H   H159      1.0  0.3683995499999999  0.3445417  0.44354567  1.0000
  H   H160      1.0  0.34517612999999997  0.41073115  0.54347573  1.0000
  C   C1        1.0  0.07184227  0.41793599  0.55466573  1.0000
  C   C2        1.0  0.11200639999999999  0.37043228  0.5819333899999998  1.0000
  C   C3        1.0  0.08026816999999997  0.34488422  0.64924064  1.0000
  C   C4        1.0  0.11806407  0.30107698  0.67507189  1.0000
  C   C5        1.0  0.18893189  0.28101488  0.63440799  1.0000
  C   C6        1.0  0.22032714999999994  0.30711667  0.5670407199999998  1.0000
  C   C7        1.0  0.18226948  0.3509872  0.5408892799999998  1.0000
  C   C8        1.0  0.23178007999999997  0.23569055  0.6606338399999998  1.0000
  C   C9        1.0  0.20420005999999988  0.20553408  0.7199766299999998  1.0000
  C   C10       1.0  0.24957514999999994  0.16286378  0.7549507399999997  1.0000
  C   C11       1.0  0.22232316999999996  0.14435296  0.8309635699999998  1.0000
  C   C12       1.0  0.26931297  0.10749643  0.8738939599999997  1.0000
  C   C13       1.0  0.34425113  0.08747785  0.8411691799999997  1.0000
  C   C14       1.0  0.36899437999999996  0.10350424999999999  0.7628204899999997  1.0000
  C   C15       1.0  0.32231113  0.14071486  0.7203860099999998  1.0000
  C   C16       1.0  0.39931354999999996  0.05140878  0.8924185599999997  1.0000
  C   C17       1.0  0.23558536999999993  0.48595247  0.3784095299999999  1.0000
  C   C18       1.0  0.30503690999999994  0.48574916  0.32739891999999987  1.0000
  C   C19       1.0  0.29416624  0.50781704  0.24792535999999996  1.0000
  C   C20       1.0  0.21239187  0.53034276  0.22466535999999995  1.0000
  C   C21       1.0  0.14609408  0.52923455  0.27939756  1.0000
  C   C22       1.0  0.36613398  0.50504902  0.19320728  1.0000
  C   C23       1.0  0.35679550999999987  0.50888025  0.10873776999999997  1.0000
  C   C24       1.0  0.43028719999999987  0.50382477  0.05485910999999999  1.0000
  C   C25       1.0  0.4463793299999999  0.54212315  0.99916701  1.0000
  C   C26       1.0  0.51628531  0.53845501  0.94313291  1.0000
  C   C27       1.0  0.5295404299999997  0.578458  0.8887040799999998  1.0000
  C   C28       1.0  0.4766305199999998  0.61895281  0.8880658999999997  1.0000
  C   C29       1.0  0.40885377  0.62276295  0.9439966699999998  1.0000
  C   C30       1.0  0.39531055  0.5856325800000001  0.9987231199999997  1.0000
  C   C31       1.0  0.42815775  0.91793601  0.94533423  1.0000
  C   C32       1.0  0.38799359  0.8704322799999998  0.9180666199999998  1.0000
  C   C33       1.0  0.41973184  0.84488422  0.85075936  1.0000
  C   C34       1.0  0.3819359199999998  0.80107698  0.8249281199999998  1.0000
  C   C35       1.0  0.3110681  0.78101489  0.86559202  1.0000
  C   C36       1.0  0.2796728399999999  0.8071166899999999  0.9329593199999999  1.0000
  C   C37       1.0  0.31773053  0.85098722  0.95911074  1.0000
  C   C38       1.0  0.26821983  0.73569059  0.83936614  1.0000
  C   C39       1.0  0.29579979  0.70553411  0.7800233399999997  1.0000
  C   C40       1.0  0.2504247399999999  0.66286383  0.7450492299999998  1.0000
  C   C41       1.0  0.2776766999999999  0.64435301  0.6690363999999998  1.0000
  C   C42       1.0  0.23068693  0.60749647  0.626106  1.0000
  C   C43       1.0  0.15574877999999998  0.58747786  0.65883086  1.0000
  C   C44       1.0  0.13100550999999994  0.60350428  0.7371794699999997  1.0000
  C   C45       1.0  0.17768870999999997  0.64071491  0.7796139699999998  1.0000
  C   C46       1.0  0.10068650999999997  0.55140875  0.6075814099999998  1.0000
  C   C47       1.0  0.26441471  0.98595244  0.12159047999999997  1.0000
  C   C48       1.0  0.19496315  0.98574914  0.17260107  1.0000
  C   C49       1.0  0.20583379  0.00781703  0.2520746299999999  1.0000
  C   C50       1.0  0.28760815  0.030342749999999998  0.27533465  1.0000
  C   C51       1.0  0.35390594999999997  0.02923453  0.22060245999999994  1.0000
  C   C52       1.0  0.13386604  0.00504901  0.30679268  1.0000
  C   C53       1.0  0.14320452  0.00888022  0.39126222  1.0000
  C   C54       1.0  0.06971282999999999  0.00382475  0.4451408699999999  1.0000
  C   C55       1.0  0.05362070999999999  0.04212313  0.50083297  1.0000
  C   C56       1.0  0.98371473  0.03845501  0.5568670699999998  1.0000
  C   C57       1.0  0.9704595899999998  0.078458  0.6112959099999998  1.0000
  C   C58       1.0  0.02336951  0.11895282  0.61193408  1.0000
  C   C59       1.0  0.09114624999999997  0.12276294  0.55600331  1.0000
  C   C60       1.0  0.10468949  0.08563257  0.50127687  1.0000
  C   C61       1.0  0.92815782  0.582064  0.44533419  1.0000
  C   C62       1.0  0.8879936  0.62956771  0.41806664  1.0000
  C   C63       1.0  0.91973183  0.6551157699999999  0.3507593599999999  1.0000
  C   C64       1.0  0.88193592  0.69892302  0.32492815  1.0000
  C   C65       1.0  0.8110681  0.71898512  0.3655920499999999  1.0000
  C   C66       1.0  0.77967285  0.6928833299999999  0.4329593399999999  1.0000
  C   C67       1.0  0.8177305399999998  0.64901279  0.45911076  1.0000
  C   C68       1.0  0.7682198399999998  0.76430942  0.33936618  1.0000
  C   C69       1.0  0.7957998399999998  0.79446589  0.28002333  1.0000
  C   C70       1.0  0.7504247999999998  0.83713616  0.24504923999999995  1.0000
  C   C71       1.0  0.7776767399999998  0.8556469699999999  0.16903639999999995  1.0000
  C   C72       1.0  0.73068694  0.89250352  0.12610603  1.0000
  C   C73       1.0  0.65574879  0.91252213  0.15883087999999995  1.0000
  C   C74       1.0  0.6310055199999998  0.8964957  0.23717951  1.0000
  C   C75       1.0  0.67768877  0.85928508  0.27961398  1.0000
  C   C76       1.0  0.60068648  0.94859123  0.10758145999999998  1.0000
  C   C77       1.0  0.76441469  0.51404754  0.62159053  1.0000
  C   C78       1.0  0.69496314  0.51425084  0.67260111  1.0000
  C   C79       1.0  0.70583377  0.49218296  0.7520746699999997  1.0000
  C   C80       1.0  0.78760815  0.4696572299999999  0.7753346699999998  1.0000
  C   C81       1.0  0.85390594  0.47076544  0.7206024999999998  1.0000
  C   C82       1.0  0.63386604  0.49495098  0.80679273  1.0000
  C   C83       1.0  0.6432045399999998  0.49111976  0.8912622599999998  1.0000
  C   C84       1.0  0.56971285  0.49617524999999996  0.94514092  1.0000
  C   C85       1.0  0.55362072  0.45787687  0.000833  1.0000
  C   C86       1.0  0.48371474  0.461545  0.05686711  1.0000
  C   C87       1.0  0.4704596099999999  0.42154201  0.11129593999999997  1.0000
  C   C88       1.0  0.52336949  0.38104719  0.11193409  1.0000
  C   C89       1.0  0.59114624  0.37723705  0.05600331999999999  1.0000
  C   C90       1.0  0.60468948  0.41436742  0.0012769  1.0000
  C   C91       1.0  0.57184221  0.08206401  0.054665789999999985  1.0000
  C   C92       1.0  0.61200637  0.12956773  0.08193339999999998  1.0000
  C   C93       1.0  0.58026816  0.15511579  0.14924067  1.0000
  C   C94       1.0  0.61806407  0.19892303  0.17507190999999994  1.0000
  C   C95       1.0  0.68893189  0.21898512  0.13440798  1.0000
  C   C96       1.0  0.72032712  0.19288332  0.0670407  1.0000
  C   C97       1.0  0.68226944  0.14901280000000003  0.040889279999999986  1.0000
  C   C98       1.0  0.73178008  0.26430945  0.16063385  1.0000
  C   C99       1.0  0.7042000699999996  0.2944659  0.2199766  1.0000
  C   C100      1.0  0.74957514  0.33713621  0.2549507499999999  1.0000
  C   C101      1.0  0.7223232099999998  0.35564703999999997  0.3309635699999999  1.0000
  C   C102      1.0  0.76931301  0.39250356  0.37389395  1.0000
  C   C103      1.0  0.84425117  0.41252214  0.34116916  1.0000
  C   C104      1.0  0.8689943799999997  0.39649573  0.26282047  1.0000
  C   C105      1.0  0.82231113  0.35928513  0.22038598999999995  1.0000
  C   C106      1.0  0.8993135699999999  0.44859123  0.3924184899999999  1.0000
  C   C107      1.0  0.7355853799999998  0.01404755  0.8784094799999997  1.0000
  C   C108      1.0  0.8050369  0.014250839999999999  0.8273988699999998  1.0000
  C   C109      1.0  0.79416625  0.9921829499999999  0.74792532  1.0000
  C   C110      1.0  0.7123918699999999  0.96965723  0.72466534  1.0000
  C   C111      1.0  0.64609411  0.97076545  0.77939755  1.0000
  C   C112      1.0  0.8661339599999998  0.99495098  0.6932071999999998  1.0000
  C   C113      1.0  0.8567954699999998  0.99111978  0.60873772  1.0000
  C   C114      1.0  0.93028716  0.99617525  0.55485905  1.0000
  C   C115      1.0  0.94637929  0.9578768599999999  0.49916696  1.0000
  C   C116      1.0  0.01628527  0.9615449799999999  0.44313287  1.0000
  C   C117      1.0  0.029540399999999994  0.921542  0.38870404  1.0000
  C   C118      1.0  0.9766305099999998  0.88104717  0.38806589  1.0000
  C   C119      1.0  0.9088537699999998  0.87723704  0.4439966599999999  1.0000
  C   C120      1.0  0.8953105199999998  0.9143674199999999  0.4987230699999999  1.0000
  C   C121      1.0  0.57184218  0.91793599  0.55466583  1.0000
  C   C122      1.0  0.61200641  0.87043229  0.5819333799999997  1.0000
  C   C123      1.0  0.58026817  0.84488424  0.6492406599999998  1.0000
  C   C124      1.0  0.61806409  0.80107698  0.6750718799999997  1.0000
  C   C125      1.0  0.68893189  0.78101488  0.63440798  1.0000
  C   C126      1.0  0.72032715  0.8071166700000001  0.5670406899999998  1.0000
  C   C127      1.0  0.68226947  0.85098722  0.5408892799999998  1.0000
  C   C128      1.0  0.73178015  0.73569058  0.6606338399999998  1.0000
  C   C129      1.0  0.7042001499999997  0.70553411  0.7199766999999998  1.0000
  C   C130      1.0  0.74957521  0.66286384  0.7549507699999998  1.0000
  C   C131      1.0  0.7223232599999998  0.64435303  0.8309636099999997  1.0000
  C   C132      1.0  0.76931305  0.60749647  0.8738940199999998  1.0000
  C   C133      1.0  0.8442511999999998  0.58747787  0.84116914  1.0000
  C   C134      1.0  0.8689944799999998  0.60350429  0.7628205299999998  1.0000
  C   C135      1.0  0.82231124  0.64071493  0.7203860299999998  1.0000
  C   C136      1.0  0.89931346  0.55140878  0.8924185899999998  1.0000
  C   C137      1.0  0.73558531  0.98595243  0.3784094799999999  1.0000
  C   C138      1.0  0.80503685  0.98574914  0.32739891999999987  1.0000
  C   C139      1.0  0.79416623  0.00781703  0.24792535  1.0000
  C   C140      1.0  0.7123918699999999  0.030342749999999998  0.22466534  1.0000
  C   C141      1.0  0.64609408  0.029234549999999998  0.2793975199999999  1.0000
  C   C142      1.0  0.8661339699999998  0.00504901  0.19320728  1.0000
  C   C143      1.0  0.8567954899999998  0.00888024  0.10873778  1.0000
  C   C144      1.0  0.93028717  0.0038247599999999995  0.05485909  1.0000
  C   C145      1.0  0.94637929  0.04212314  0.9991669899999999  1.0000
  C   C146      1.0  0.016285269999999987  0.03845502  0.9431328999999998  1.0000
  C   C147      1.0  0.029540399999999974  0.07845801  0.8887040799999998  1.0000
  C   C148      1.0  0.9766305099999998  0.11895282  0.88806592  1.0000
  C   C149      1.0  0.9088537599999998  0.12276296  0.94399669  1.0000
  C   C150      1.0  0.8953105099999997  0.08563258  0.9987231099999998  1.0000
  C   C151      1.0  0.9281576  0.41793597  0.9453342799999997  1.0000
  C   C152      1.0  0.88799356  0.37043225  0.9180665899999998  1.0000
  C   C153      1.0  0.9197318  0.3448841999999999  0.8507593699999998  1.0000
  C   C154      1.0  0.88193594  0.30107697  0.8249280999999998  1.0000
  C   C155      1.0  0.81106809  0.28101488  0.8655920299999997  1.0000
  C   C156      1.0  0.77967285  0.30711666  0.93295929  1.0000
  C   C157      1.0  0.81773047  0.35098718  0.9591107499999998  1.0000
  C   C158      1.0  0.7682199199999997  0.23569054  0.8393661499999998  1.0000
  C   C159      1.0  0.7957999399999998  0.20553409  0.78002339  1.0000
  C   C160      1.0  0.7504248799999996  0.16286379  0.7450492399999997  1.0000
  C   C161      1.0  0.77767683  0.14435296  0.66903642  1.0000
  C   C162      1.0  0.73068703  0.10749643999999998  0.6261060399999998  1.0000
  C   C163      1.0  0.65574888  0.08747785  0.6588308099999998  1.0000
  C   C164      1.0  0.6310056299999998  0.10350426  0.73717952  1.0000
  C   C165      1.0  0.67768889  0.14071487  0.7796139899999998  1.0000
  C   C166      1.0  0.60068644  0.05140877  0.60758149  1.0000
  C   C167      1.0  0.76441471  0.48595245  0.12159049  1.0000
  C   C168      1.0  0.69496316  0.48574915  0.1726011  1.0000
  C   C169      1.0  0.7058338  0.50781704  0.25207465  1.0000
  C   C170      1.0  0.78760816  0.53034276  0.27533466  1.0000
  C   C171      1.0  0.85390597  0.52923455  0.22060245  1.0000
  C   C172      1.0  0.63386606  0.50504901  0.30679273  1.0000
  C   C173      1.0  0.64320451  0.50888022  0.39126224  1.0000
  C   C174      1.0  0.56971281  0.50382476  0.4451408899999999  1.0000
  C   C175      1.0  0.5536207  0.54212314  0.50083298  1.0000
  C   C176      1.0  0.4837147299999998  0.53845502  0.5568670999999997  1.0000
  C   C177      1.0  0.4704596299999999  0.57845801  0.6112959399999998  1.0000
  C   C178      1.0  0.52336953  0.61895282  0.61193409  1.0000
  C   C179      1.0  0.59114627  0.62276295  0.5560033  1.0000
  C   C180      1.0  0.60468949  0.5856325699999999  0.50127688  1.0000
  C   C181      1.0  0.42815770999999997  0.08206401  0.44533429  1.0000
  C   C182      1.0  0.38799359  0.12956772  0.4180665999999999  1.0000
  C   C183      1.0  0.4197318  0.15511577  0.35075935  1.0000
  C   C184      1.0  0.38193592999999987  0.19892300999999998  0.3249280899999999  1.0000
  C   C185      1.0  0.31106809  0.21898511  0.36559202  1.0000
  C   C186      1.0  0.2796728499999999  0.19288332  0.43295928  1.0000
  C   C187      1.0  0.31773051  0.14901280000000003  0.45911073  1.0000
  C   C188      1.0  0.2682199  0.26430945  0.3393661699999999  1.0000
  C   C189      1.0  0.2957999199999999  0.29446591  0.28002339999999987  1.0000
  C   C190      1.0  0.25042484  0.33713621  0.24504927  1.0000
  C   C191      1.0  0.27767682  0.35564703  0.16903645  1.0000
  C   C192      1.0  0.2306870299999999  0.39250356  0.12610607999999995  1.0000
  C   C193      1.0  0.15574887  0.41252215  0.15883083999999995  1.0000
  C   C194      1.0  0.13100559999999994  0.39649575  0.23717952999999994  1.0000
  C   C195      1.0  0.17768886  0.35928513  0.279614  1.0000
  C   C196      1.0  0.10068642999999997  0.44859124  0.10758151999999997  1.0000
  C   C197      1.0  0.26441468  0.01404755  0.62159051  1.0000
  C   C198      1.0  0.19496312  0.01425086  0.6726010999999997  1.0000
  C   C199      1.0  0.20583377  0.9921829699999999  0.7520746599999998  1.0000
  C   C200      1.0  0.28760811  0.96965724  0.77533466  1.0000
  C   C201      1.0  0.35390592  0.97076545  0.72060247  1.0000
  C   C202      1.0  0.13386603  0.99495099  0.80679273  1.0000
  C   C203      1.0  0.14320451  0.99111976  0.89126225  1.0000
  C   C204      1.0  0.06971280999999997  0.99617525  0.9451408999999997  1.0000
  C   C205      1.0  0.05362068999999999  0.9578768699999999  0.00083299  1.0000
  C   C206      1.0  0.98371471  0.961545  0.0568671  1.0000
  C   C207      1.0  0.9704595899999998  0.92154201  0.11129593  1.0000
  C   C208      1.0  0.023369499999999994  0.88104719  0.11193407999999998  1.0000
  C   C209      1.0  0.09114624999999997  0.87723705  0.05600331999999999  1.0000
  C   C210      1.0  0.10468947  0.91436743  0.0012768799999999996  1.0000
  C   C211      1.0  0.07184215999999997  0.58206402  0.05466584  1.0000
  C   C212      1.0  0.11200639  0.62956772  0.08193339  1.0000
  C   C213      1.0  0.08026816999999997  0.65511579  0.14924066  1.0000
  C   C214      1.0  0.11806408999999997  0.69892303  0.17507189999999995  1.0000
  C   C215      1.0  0.1889319  0.71898512  0.13440797  1.0000
  C   C216      1.0  0.22032712999999995  0.69288332  0.06704068999999997  1.0000
  C   C217      1.0  0.18226945999999994  0.64901279  0.040889279999999986  1.0000
  C   C218      1.0  0.23178008  0.76430945  0.16063382999999995  1.0000
  C   C219      1.0  0.20420005999999993  0.79446591  0.21997658999999994  1.0000
  C   C220      1.0  0.24957512  0.8371362099999999  0.2549507499999999  1.0000
  C   C221      1.0  0.22232318  0.85564703  0.3309635699999999  1.0000
  C   C222      1.0  0.26931296  0.89250355  0.37389397  1.0000
  C   C223      1.0  0.34425114  0.91252214  0.3411691699999999  1.0000
  C   C224      1.0  0.36899435  0.89649573  0.26282048  1.0000
  C   C225      1.0  0.32231112  0.85928513  0.22038599999999994  1.0000
  C   C226      1.0  0.3993134799999999  0.94859121  0.3924185999999999  1.0000
  C   C227      1.0  0.23558533999999992  0.51404756  0.8784095  1.0000
  C   C228      1.0  0.30503687  0.51425085  0.8273988999999998  1.0000
  C   C229      1.0  0.29416626  0.49218296  0.74792535  1.0000
  C   C230      1.0  0.21239187999999998  0.4696572299999999  0.72466534  1.0000
  C   C231      1.0  0.14609411  0.47076546  0.77939752  1.0000
  C   C232      1.0  0.36613398  0.494951  0.69320728  1.0000
  C   C233      1.0  0.3567954999999999  0.49111977  0.6087377599999998  1.0000
  C   C234      1.0  0.4302871899999999  0.49617526  0.55485908  1.0000
  C   C235      1.0  0.44637928  0.45787688  0.49916698  1.0000
  C   C236      1.0  0.51628526  0.46154499  0.44313287  1.0000
  C   C237      1.0  0.5295403899999997  0.42154201  0.3887040499999999  1.0000
  C   C238      1.0  0.4766304999999999  0.38104719  0.3880658999999999  1.0000
  C   C239      1.0  0.40885377  0.37723706  0.44399667999999987  1.0000
  C   C240      1.0  0.39531052  0.41436743  0.49872309999999986  1.0000
  N   N1        1.0  0.15733959  0.50747315  0.3552628699999999  1.0000
  N   N2        1.0  0.34266047  0.00747314  0.14473716  1.0000
  N   N3        1.0  0.8426604599999997  0.49252685  0.64473721  1.0000
  N   N4        1.0  0.6573396  0.99252686  0.8552628399999997  1.0000
  N   N5        1.0  0.6573395399999998  0.00747313  0.35526281999999987  1.0000
  N   N6        1.0  0.8426604699999998  0.50747315  0.14473716999999994  1.0000
  N   N7        1.0  0.34266042999999996  0.99252687  0.6447371899999997  1.0000
  N   N8        1.0  0.15733955  0.49252686  0.85526283  1.0000
  O   O1        1.0  0.10481107  0.43908954  0.49368616  1.0000
  O   O2        1.0  0.008420519999999973  0.43362634  0.5950139999999998  1.0000
  O   O3        1.0  0.37136613  0.03861429  0.96237907  1.0000
  O   O4        1.0  0.47075856  0.03704483  0.86356978  1.0000
  O   O5        1.0  0.3951888699999999  0.9390895599999999  0.006313879999999998  1.0000
  O   O6        1.0  0.4915793799999999  0.93362635  0.9049860199999997  1.0000
  O   O7        1.0  0.12863392  0.53861429  0.53762097  1.0000
  O   O8        1.0  0.02924141999999997  0.53704478  0.6364302099999998  1.0000
  O   O9        1.0  0.8951889199999998  0.56091041  0.50631387  1.0000
  O   O10       1.0  0.99157944  0.56637368  0.4049860099999999  1.0000
  O   O11       1.0  0.62863394  0.96138569  0.03762096  1.0000
  O   O12       1.0  0.52924143  0.96295519  0.1364302  1.0000
  O   O13       1.0  0.6048110699999998  0.06091045  0.9936861799999998  1.0000
  O   O14       1.0  0.50842052  0.06637367  0.09501401  1.0000
  O   O15       1.0  0.87136611  0.46138572  0.46237906  1.0000
  O   O16       1.0  0.97075853  0.46295518  0.36356975  1.0000
  O   O17       1.0  0.6048110699999998  0.93908957  0.49368611  1.0000
  O   O18       1.0  0.50842058  0.93362633  0.5950139999999998  1.0000
  O   O19       1.0  0.87136609  0.53861431  0.9623790199999998  1.0000
  O   O20       1.0  0.97075859  0.53704481  0.86356977  1.0000
  O   O21       1.0  0.8951888599999998  0.43908953  0.00631381  1.0000
  O   O22       1.0  0.99157945  0.4336263  0.9049859999999997  1.0000
  O   O23       1.0  0.62863395  0.03861427  0.5376209  1.0000
  O   O24       1.0  0.5292415099999999  0.03704482  0.6364302099999998  1.0000
  O   O25       1.0  0.3951889299999999  0.06091045  0.50631383  1.0000
  O   O26       1.0  0.4915794699999999  0.06637367  0.404986  1.0000
  O   O27       1.0  0.12863399  0.46138572  0.037620899999999985  1.0000
  O   O28       1.0  0.029241499999999993  0.46295518999999996  0.13643016999999993  1.0000
  O   O29       1.0  0.10481111  0.56091043  0.99368614  1.0000
  O   O30       1.0  0.008420529999999997  0.56637369  0.09501394999999997  1.0000
  O   O31       1.0  0.37136609999999987  0.9613857  0.46237903  1.0000
  O   O32       1.0  0.47075857  0.9629551699999999  0.36356975  1.0000
