data_image0
_chemical_formula_structural       Zn8H128C176N16O32
_chemical_formula_sum              "Zn8 H128 C176 N16 O32"
_cell_length_a       26.93866311
_cell_length_b       26.93866309
_cell_length_c       4.36575611
_cell_angle_alpha    90.0
_cell_angle_beta     90.0
_cell_angle_gamma    89.99999998

_symmetry_space_group_name_H-M    'P 1'
_symmetry_Int_Tables_number       1

loop_
  _symmetry_equiv_pos_as_xyz
  'x,y,z'

loop_
  _atom_site_type_symbol
  _atom_site_label
  _atom_site_symmetry_multiplicity
  _atom_site_fract_x
  _atom_site_fract_y
  _atom_site_fract_z
  _atom_site_occupancy
  Zn  Zn1       1.0  0.26441503  0.21430679999999994  0.10298078  1.0000
  Zn  Zn2       1.0  0.76441503  0.7143067999999998  0.60298078  1.0000
  Zn  Zn3       1.0  0.73558497  0.7856932  0.10298078  1.0000
  Zn  Zn4       1.0  0.23558496999999995  0.2856932  0.60298078  1.0000
  Zn  Zn5       1.0  0.2143068  0.7355849699999999  0.8970192200000002  1.0000
  Zn  Zn6       1.0  0.7143067999999999  0.23558497  0.39701922  1.0000
  Zn  Zn7       1.0  0.7856932  0.26441503  0.8970192200000002  1.0000
  Zn  Zn8       1.0  0.2856932  0.76441503  0.39701922  1.0000
  H   H1        1.0  0.19746803999999996  0.27860302  0.10365839000000003  1.0000
  H   H2        1.0  0.27848272  0.11163779  0.42163395  1.0000
  H   H3        1.0  0.17760227  0.19275656999999996  0.61745419  1.0000
  H   H4        1.0  0.12290071  0.18793706  0.16525126  1.0000
  H   H5        1.0  0.07531075999999999  0.13727094  0.7957986200000002  1.0000
  H   H6        1.0  0.06925838999999999  0.04629943  0.86191868  1.0000
  H   H7        1.0  0.10577611  0.00501777  0.30970248  1.0000
  H   H8        1.0  0.16212911  0.00825285  0.75597678  1.0000
  H   H9        1.0  0.35913164  0.04572388999999999  0.94452622  1.0000
  H   H10       1.0  0.4005816399999999  0.95220258  0.14897149000000007  1.0000
  H   H11       1.0  0.21680467  0.8947679399999998  0.41185417  1.0000
  H   H12       1.0  0.17966193  0.9874549399999998  0.30386167  1.0000
  H   H13       1.0  0.3092048099999999  0.043646479999999994  0.53985571  1.0000
  H   H14       1.0  0.33878631  0.96401981  0.69076326  1.0000
  H   H15       1.0  0.27260327  0.8983384499999999  0.8574706  1.0000
  H   H16       1.0  0.23293316  0.9866479599999998  0.7288826  1.0000
  H   H17       1.0  0.6974680399999998  0.77860302  0.60365839  1.0000
  H   H18       1.0  0.7784827199999997  0.61163779  0.92163395  1.0000
  H   H19       1.0  0.67760227  0.6927565699999998  0.11745419  1.0000
  H   H20       1.0  0.62290071  0.68793706  0.66525126  1.0000
  H   H21       1.0  0.57531076  0.63727094  0.29579862  1.0000
  H   H22       1.0  0.56925839  0.54629943  0.3619186700000001  1.0000
  H   H23       1.0  0.6057761099999999  0.50501777  0.80970248  1.0000
  H   H24       1.0  0.66212911  0.5082528499999999  0.25597679  1.0000
  H   H25       1.0  0.85913164  0.54572389  0.44452621  1.0000
  H   H26       1.0  0.9005816399999997  0.45220258  0.6489714900000001  1.0000
  H   H27       1.0  0.71680467  0.3947679399999999  0.91185417  1.0000
  H   H28       1.0  0.67966193  0.48745494  0.8038616700000002  1.0000
  H   H29       1.0  0.8092048099999998  0.5436464799999999  0.03985571  1.0000
  H   H30       1.0  0.83878631  0.46401981  0.19076326  1.0000
  H   H31       1.0  0.77260327  0.39833845  0.3574706  1.0000
  H   H32       1.0  0.7329331599999998  0.48664795999999994  0.2288826  1.0000
  H   H33       1.0  0.80253196  0.7213969799999997  0.10365839000000003  1.0000
  H   H34       1.0  0.72151728  0.8883622099999998  0.42163395  1.0000
  H   H35       1.0  0.82239773  0.80724343  0.61745419  1.0000
  H   H36       1.0  0.87709929  0.8120629399999998  0.16525126  1.0000
  H   H37       1.0  0.92468924  0.8627290599999998  0.7957986200000002  1.0000
  H   H38       1.0  0.93074161  0.9537005699999997  0.86191867  1.0000
  H   H39       1.0  0.89422389  0.9949822299999999  0.30970248  1.0000
  H   H40       1.0  0.8378708899999998  0.9917471499999998  0.75597679  1.0000
  H   H41       1.0  0.64086836  0.9542761099999999  0.94452622  1.0000
  H   H42       1.0  0.59941836  0.04779742  0.14897149000000007  1.0000
  H   H43       1.0  0.7831953299999997  0.10523206  0.41185417  1.0000
  H   H44       1.0  0.82033807  0.012545059999999999  0.30386167  1.0000
  H   H45       1.0  0.69079519  0.9563535199999997  0.53985571  1.0000
  H   H46       1.0  0.66121369  0.035980189999999995  0.69076326  1.0000
  H   H47       1.0  0.72739673  0.10166155  0.8574706  1.0000
  H   H48       1.0  0.76706684  0.01335204  0.7288826  1.0000
  H   H49       1.0  0.30253195999999993  0.22139697999999994  0.60365839  1.0000
  H   H50       1.0  0.22151727999999998  0.38836221  0.92163395  1.0000
  H   H51       1.0  0.32239773  0.30724342999999993  0.11745419  1.0000
  H   H52       1.0  0.37709929  0.3120629399999999  0.66525126  1.0000
  H   H53       1.0  0.42468924  0.36272906  0.29579862  1.0000
  H   H54       1.0  0.4307416099999999  0.45370057  0.36191868  1.0000
  H   H55       1.0  0.39422389  0.49498223  0.80970248  1.0000
  H   H56       1.0  0.33787089  0.49174715  0.25597678  1.0000
  H   H57       1.0  0.14086836  0.45427611  0.44452622  1.0000
  H   H58       1.0  0.09941836  0.54779742  0.6489714900000001  1.0000
  H   H59       1.0  0.28319533  0.60523206  0.91185417  1.0000
  H   H60       1.0  0.32033807  0.5125450599999999  0.8038616700000002  1.0000
  H   H61       1.0  0.19079519  0.45635351999999996  0.03985571  1.0000
  H   H62       1.0  0.16121369  0.53598019  0.19076326  1.0000
  H   H63       1.0  0.22739673  0.60166155  0.3574706  1.0000
  H   H64       1.0  0.26706684  0.51335204  0.2288826  1.0000
  H   H65       1.0  0.27860302  0.80253196  0.8963416100000002  1.0000
  H   H66       1.0  0.11163778999999997  0.7215172799999998  0.57836605  1.0000
  H   H67       1.0  0.19275657  0.82239773  0.38254581  1.0000
  H   H68       1.0  0.18793705999999996  0.87709929  0.83474874  1.0000
  H   H69       1.0  0.13727094  0.92468924  0.20420138  1.0000
  H   H70       1.0  0.04629943  0.93074161  0.13808132  1.0000
  H   H71       1.0  0.0050177699999999995  0.8942238899999998  0.6902975200000002  1.0000
  H   H72       1.0  0.00825285  0.8378708899999998  0.24402322000000004  1.0000
  H   H73       1.0  0.045723889999999996  0.64086836  0.05547378  1.0000
  H   H74       1.0  0.9522025799999999  0.5994183599999998  0.85102851  1.0000
  H   H75       1.0  0.8947679399999998  0.78319533  0.58814583  1.0000
  H   H76       1.0  0.98745494  0.82033807  0.69613833  1.0000
  H   H77       1.0  0.04364647999999999  0.6907951899999999  0.46014429000000007  1.0000
  H   H78       1.0  0.9640198099999998  0.66121369  0.3092367400000001  1.0000
  H   H79       1.0  0.89833845  0.72739673  0.1425294  1.0000
  H   H80       1.0  0.98664796  0.76706684  0.2711174  1.0000
  H   H81       1.0  0.77860302  0.30253196  0.39634161  1.0000
  H   H82       1.0  0.61163779  0.22151727999999996  0.07836605000000003  1.0000
  H   H83       1.0  0.6927565699999999  0.32239773  0.8825458000000002  1.0000
  H   H84       1.0  0.68793706  0.37709928999999986  0.33474874  1.0000
  H   H85       1.0  0.63727094  0.42468924  0.70420138  1.0000
  H   H86       1.0  0.54629943  0.43074160999999994  0.63808132  1.0000
  H   H87       1.0  0.50501777  0.3942238899999999  0.19029752  1.0000
  H   H88       1.0  0.50825285  0.33787088999999987  0.74402322  1.0000
  H   H89       1.0  0.54572389  0.14086835999999997  0.55547378  1.0000
  H   H90       1.0  0.45220258  0.09941836  0.35102851  1.0000
  H   H91       1.0  0.39476793999999993  0.28319533  0.08814583  1.0000
  H   H92       1.0  0.48745494  0.32033807  0.19613833  1.0000
  H   H93       1.0  0.54364648  0.19079518999999998  0.96014429  1.0000
  H   H94       1.0  0.46401981  0.16121368999999994  0.80923674  1.0000
  H   H95       1.0  0.39833844999999996  0.22739672999999994  0.6425294  1.0000
  H   H96       1.0  0.48664796  0.26706684  0.7711174  1.0000
  H   H97       1.0  0.7213969799999999  0.19746804  0.8963416100000002  1.0000
  H   H98       1.0  0.8883622099999998  0.27848272  0.57836605  1.0000
  H   H99       1.0  0.80724343  0.17760226999999995  0.38254581  1.0000
  H   H100      1.0  0.8120629399999999  0.12290070999999998  0.83474874  1.0000
  H   H101      1.0  0.8627290599999999  0.07531076  0.20420138  1.0000
  H   H102      1.0  0.9537005699999999  0.06925839  0.13808132  1.0000
  H   H103      1.0  0.99498223  0.10577611  0.6902975200000002  1.0000
  H   H104      1.0  0.99174715  0.16212911  0.24402322000000004  1.0000
  H   H105      1.0  0.95427611  0.35913164  0.05547378  1.0000
  H   H106      1.0  0.04779742  0.40058164  0.85102851  1.0000
  H   H107      1.0  0.10523206  0.21680466999999995  0.58814583  1.0000
  H   H108      1.0  0.01254506  0.17966193  0.69613833  1.0000
  H   H109      1.0  0.9563535199999998  0.3092048099999999  0.46014429000000007  1.0000
  H   H110      1.0  0.03598019  0.33878631  0.3092367400000001  1.0000
  H   H111      1.0  0.10166154999999998  0.27260327  0.1425294  1.0000
  H   H112      1.0  0.013352039999999999  0.23293316  0.2711174  1.0000
  H   H113      1.0  0.22139697999999997  0.69746804  0.39634161  1.0000
  H   H114      1.0  0.38836221  0.77848272  0.07836605000000003  1.0000
  H   H115      1.0  0.30724343  0.6776022699999997  0.88254581  1.0000
  H   H116      1.0  0.31206294  0.6229007099999999  0.33474874  1.0000
  H   H117      1.0  0.36272906  0.57531076  0.70420138  1.0000
  H   H118      1.0  0.45370057  0.56925839  0.63808132  1.0000
  H   H119      1.0  0.49498223  0.60577611  0.19029752  1.0000
  H   H120      1.0  0.49174715  0.66212911  0.74402322  1.0000
  H   H121      1.0  0.45427611  0.8591316399999999  0.55547378  1.0000
  H   H122      1.0  0.54779742  0.90058164  0.35102851  1.0000
  H   H123      1.0  0.60523206  0.71680467  0.08814583  1.0000
  H   H124      1.0  0.51254506  0.6796619299999997  0.19613833  1.0000
  H   H125      1.0  0.45635352  0.80920481  0.96014429  1.0000
  H   H126      1.0  0.53598019  0.8387863099999999  0.80923674  1.0000
  H   H127      1.0  0.6016615499999998  0.77260327  0.6425294  1.0000
  H   H128      1.0  0.51335204  0.73293316  0.7711174  1.0000
  C   C1        1.0  0.25041229  0.10833625999999998  0.24545785000000003  1.0000
  C   C2        1.0  0.20229019  0.12823437  0.86413209  1.0000
  C   C3        1.0  0.17523980999999997  0.15256208999999996  0.63825995  1.0000
  C   C4        1.0  0.14460295  0.12535376  0.44234795  1.0000
  C   C5        1.0  0.11912238999999997  0.14814921  0.19916496000000003  1.0000
  C   C6        1.0  0.09188211999999997  0.12024230999999998  0.99623614  1.0000
  C   C7        1.0  0.08847554  0.06822603  0.034559120000000006  1.0000
  C   C8        1.0  0.1099948  0.04500904  0.2830032  1.0000
  C   C9        1.0  0.13974443  0.07180986  0.48803402  1.0000
  C   C10       1.0  0.16692193  0.04781342  0.72279394  1.0000
  C   C11       1.0  0.20021061  0.07522199  0.8967182200000002  1.0000
  C   C12       1.0  0.25658541999999995  0.01610199  0.20185973000000001  1.0000
  C   C13       1.0  0.29581854  0.9227345299999998  0.34300222  1.0000
  C   C14       1.0  0.34956475  0.0184559  0.11932241000000002  1.0000
  C   C15       1.0  0.36895394  0.97497321  0.2157417  1.0000
  C   C16       1.0  0.23928309999999994  0.92489302  0.32983144  1.0000
  C   C17       1.0  0.21761699999999995  0.97652922  0.26833806  1.0000
  C   C18       1.0  0.31390142  0.8699568599999998  0.3908069800000001  1.0000
  C   C19       1.0  0.3070321599999999  0.01759579  0.34618634  1.0000
  C   C20       1.0  0.3284877999999999  0.9651578299999998  0.44073358  1.0000
  C   C21       1.0  0.26916841  0.9264893599999999  0.03670800000000001  1.0000
  C   C22       1.0  0.24591287999999994  0.97763946  0.9660523600000002  1.0000
  C   C23       1.0  0.75041229  0.60833626  0.7454578500000002  1.0000
  C   C24       1.0  0.7022901899999999  0.62823437  0.3641320800000001  1.0000
  C   C25       1.0  0.6752398099999999  0.65256209  0.13825995  1.0000
  C   C26       1.0  0.64460295  0.6253537599999998  0.9423479500000002  1.0000
  C   C27       1.0  0.61912238  0.64814921  0.6991649600000001  1.0000
  C   C28       1.0  0.59188212  0.62024231  0.49623615  1.0000
  C   C29       1.0  0.5884755399999999  0.56822603  0.53455912  1.0000
  C   C30       1.0  0.6099948  0.5450090399999998  0.7830032000000002  1.0000
  C   C31       1.0  0.6397444299999998  0.5718098499999998  0.98803402  1.0000
  C   C32       1.0  0.6669219299999998  0.5478134199999999  0.22279394  1.0000
  C   C33       1.0  0.70021061  0.57522199  0.39671821  1.0000
  C   C34       1.0  0.7565854199999998  0.51610199  0.7018597300000001  1.0000
  C   C35       1.0  0.7958185399999997  0.4227345299999999  0.8430022200000002  1.0000
  C   C36       1.0  0.8495647499999998  0.5184559  0.61932241  1.0000
  C   C37       1.0  0.86895394  0.47497320999999987  0.7157417  1.0000
  C   C38       1.0  0.7392831  0.4248930199999999  0.82983144  1.0000
  C   C39       1.0  0.717617  0.47652921999999986  0.76833806  1.0000
  C   C40       1.0  0.81390142  0.3699568599999999  0.89080698  1.0000
  C   C41       1.0  0.8070321599999998  0.51759579  0.84618634  1.0000
  C   C42       1.0  0.8284878  0.46515783  0.94073358  1.0000
  C   C43       1.0  0.7691684099999998  0.4264893599999999  0.536708  1.0000
  C   C44       1.0  0.7459128799999998  0.47763946  0.46605236  1.0000
  C   C45       1.0  0.7495877099999999  0.8916637399999998  0.24545785000000003  1.0000
  C   C46       1.0  0.79770981  0.8717656299999997  0.86413209  1.0000
  C   C47       1.0  0.82476019  0.8474379099999999  0.6382599400000002  1.0000
  C   C48       1.0  0.85539705  0.87464624  0.44234795  1.0000
  C   C49       1.0  0.8808776199999998  0.85185079  0.19916496000000003  1.0000
  C   C50       1.0  0.90811788  0.8797576899999999  0.99623614  1.0000
  C   C51       1.0  0.91152446  0.9317739699999997  0.034559120000000006  1.0000
  C   C52       1.0  0.8900052  0.95499096  0.2830032  1.0000
  C   C53       1.0  0.86025557  0.9281901399999998  0.48803402  1.0000
  C   C54       1.0  0.83307807  0.95218658  0.72279394  1.0000
  C   C55       1.0  0.7997893899999999  0.9247780099999998  0.89671821  1.0000
  C   C56       1.0  0.74341458  0.9838980099999998  0.20185973000000001  1.0000
  C   C57       1.0  0.70418146  0.07726547  0.34300222  1.0000
  C   C58       1.0  0.65043525  0.9815440999999998  0.11932241000000002  1.0000
  C   C59       1.0  0.63104606  0.02502679  0.2157417  1.0000
  C   C60       1.0  0.7607168999999998  0.07510698  0.32983144  1.0000
  C   C61       1.0  0.7823829999999999  0.02347078  0.26833806  1.0000
  C   C62       1.0  0.6860985899999998  0.13004314  0.3908069800000001  1.0000
  C   C63       1.0  0.69296784  0.98240421  0.34618634  1.0000
  C   C64       1.0  0.6715121999999999  0.03484217  0.44073358  1.0000
  C   C65       1.0  0.73083159  0.07351064  0.03670800000000001  1.0000
  C   C66       1.0  0.75408712  0.022360539999999995  0.9660523600000002  1.0000
  C   C67       1.0  0.24958770999999993  0.39166373999999987  0.7454578500000002  1.0000
  C   C68       1.0  0.29770981  0.3717656299999999  0.36413209  1.0000
  C   C69       1.0  0.3247601899999999  0.34743791  0.13825995  1.0000
  C   C70       1.0  0.35539705  0.37464624  0.9423479500000002  1.0000
  C   C71       1.0  0.38087761  0.35185079  0.6991649600000001  1.0000
  C   C72       1.0  0.4081178799999999  0.37975769  0.49623614  1.0000
  C   C73       1.0  0.41152446  0.43177397  0.53455912  1.0000
  C   C74       1.0  0.3900052  0.45499096  0.7830032000000002  1.0000
  C   C75       1.0  0.36025556999999997  0.42819014  0.98803402  1.0000
  C   C76       1.0  0.33307807  0.45218658  0.22279394  1.0000
  C   C77       1.0  0.29978939  0.4247780099999999  0.39671822  1.0000
  C   C78       1.0  0.24341458  0.4838980099999999  0.7018597300000001  1.0000
  C   C79       1.0  0.20418145  0.57726547  0.8430022200000002  1.0000
  C   C80       1.0  0.15043525  0.48154409999999986  0.61932241  1.0000
  C   C81       1.0  0.13104606  0.52502679  0.7157417  1.0000
  C   C82       1.0  0.2607169  0.57510698  0.82983144  1.0000
  C   C83       1.0  0.282383  0.52347078  0.76833806  1.0000
  C   C84       1.0  0.18609857999999999  0.63004314  0.89080698  1.0000
  C   C85       1.0  0.19296783999999997  0.4824042099999999  0.84618634  1.0000
  C   C86       1.0  0.1715122  0.5348421699999999  0.94073358  1.0000
  C   C87       1.0  0.23083159  0.57351064  0.536708  1.0000
  C   C88       1.0  0.25408712  0.52236054  0.46605236  1.0000
  C   C89       1.0  0.10833626  0.7495877099999999  0.75454215  1.0000
  C   C90       1.0  0.12823437  0.7977098099999997  0.13586792  1.0000
  C   C91       1.0  0.15256208999999996  0.8247601899999998  0.36174006  1.0000
  C   C92       1.0  0.12535376  0.8553970499999998  0.55765205  1.0000
  C   C93       1.0  0.14814921  0.88087761  0.80083504  1.0000
  C   C94       1.0  0.12024231  0.9081178799999999  0.00376386  1.0000
  C   C95       1.0  0.06822603  0.91152446  0.9654408799999998  1.0000
  C   C96       1.0  0.04500904  0.8900052  0.7169968  1.0000
  C   C97       1.0  0.07180986  0.8602555699999997  0.51196598  1.0000
  C   C98       1.0  0.04781341999999999  0.83307807  0.27720606  1.0000
  C   C99       1.0  0.07522198999999999  0.79978939  0.10328179  1.0000
  C   C100      1.0  0.01610199  0.7434145799999998  0.79814027  1.0000
  C   C101      1.0  0.9227345299999998  0.7041814599999998  0.65699778  1.0000
  C   C102      1.0  0.0184559  0.6504352499999999  0.88067759  1.0000
  C   C103      1.0  0.9749732099999998  0.6310460599999999  0.7842583000000001  1.0000
  C   C104      1.0  0.92489302  0.7607168999999998  0.67016856  1.0000
  C   C105      1.0  0.97652922  0.7823829999999998  0.7316619400000001  1.0000
  C   C106      1.0  0.8699568599999998  0.6860985799999998  0.60919302  1.0000
  C   C107      1.0  0.01759579  0.6929678399999999  0.65381366  1.0000
  C   C108      1.0  0.9651578299999998  0.6715121999999999  0.55926642  1.0000
  C   C109      1.0  0.9264893599999998  0.7308315899999998  0.963292  1.0000
  C   C110      1.0  0.9776394599999998  0.7540871199999998  0.03394764  1.0000
  C   C111      1.0  0.60833626  0.24958770999999993  0.25454215  1.0000
  C   C112      1.0  0.6282343699999998  0.2977098099999999  0.63586792  1.0000
  C   C113      1.0  0.65256209  0.3247601899999999  0.86174005  1.0000
  C   C114      1.0  0.62535376  0.35539705  0.05765205  1.0000
  C   C115      1.0  0.64814921  0.38087761  0.30083504  1.0000
  C   C116      1.0  0.62024231  0.40811788  0.50376386  1.0000
  C   C117      1.0  0.56822603  0.41152446  0.46544088000000006  1.0000
  C   C118      1.0  0.54500904  0.3900051999999999  0.21699680000000005  1.0000
  C   C119      1.0  0.57180986  0.36025557  0.011965980000000001  1.0000
  C   C120      1.0  0.54781342  0.33307807  0.77720606  1.0000
  C   C121      1.0  0.57522199  0.2997893899999999  0.60328179  1.0000
  C   C122      1.0  0.51610199  0.24341457999999994  0.29814027000000004  1.0000
  C   C123      1.0  0.42273452999999994  0.20418145  0.15699778000000003  1.0000
  C   C124      1.0  0.5184559  0.15043524999999994  0.38067759  1.0000
  C   C125      1.0  0.47497321  0.13104606  0.2842583  1.0000
  C   C126      1.0  0.42489302  0.2607169  0.17016856000000002  1.0000
  C   C127      1.0  0.47652922  0.28238299999999994  0.23166194  1.0000
  C   C128      1.0  0.36995686  0.18609858  0.10919302  1.0000
  C   C129      1.0  0.51759579  0.19296784  0.15381366  1.0000
  C   C130      1.0  0.46515783  0.1715122  0.05926642  1.0000
  C   C131      1.0  0.42648936  0.23083159  0.463292  1.0000
  C   C132      1.0  0.47763945999999996  0.25408712  0.53394764  1.0000
  C   C133      1.0  0.89166374  0.25041229  0.75454215  1.0000
  C   C134      1.0  0.87176563  0.20229018999999995  0.13586792  1.0000
  C   C135      1.0  0.8474379099999998  0.17523980999999997  0.36174005  1.0000
  C   C136      1.0  0.87464624  0.14460295  0.55765205  1.0000
  C   C137      1.0  0.85185079  0.11912238999999997  0.80083504  1.0000
  C   C138      1.0  0.8797576899999998  0.09188211999999997  0.00376386  1.0000
  C   C139      1.0  0.93177397  0.08847553999999999  0.9654408799999998  1.0000
  C   C140      1.0  0.9549909599999999  0.1099948  0.7169968  1.0000
  C   C141      1.0  0.92819014  0.13974443  0.51196598  1.0000
  C   C142      1.0  0.9521865799999998  0.16692193  0.27720606  1.0000
  C   C143      1.0  0.92477801  0.20021061  0.10328178  1.0000
  C   C144      1.0  0.98389801  0.25658542  0.79814027  1.0000
  C   C145      1.0  0.07726546999999999  0.29581854999999996  0.65699778  1.0000
  C   C146      1.0  0.9815441  0.34956475  0.88067759  1.0000
  C   C147      1.0  0.02502679  0.3689539399999999  0.7842583000000001  1.0000
  C   C148      1.0  0.07510698  0.23928309999999997  0.67016856  1.0000
  C   C149      1.0  0.02347078  0.217617  0.7316619400000001  1.0000
  C   C150      1.0  0.13004314  0.31390142  0.60919302  1.0000
  C   C151      1.0  0.9824042099999998  0.3070321599999999  0.65381366  1.0000
  C   C152      1.0  0.03484217  0.3284878  0.55926642  1.0000
  C   C153      1.0  0.07351064  0.26916841  0.963292  1.0000
  C   C154      1.0  0.022360539999999995  0.24591288  0.03394764  1.0000
  C   C155      1.0  0.39166373999999987  0.75041229  0.25454215  1.0000
  C   C156      1.0  0.37176562999999996  0.70229019  0.63586792  1.0000
  C   C157      1.0  0.3474379099999999  0.67523981  0.86174006  1.0000
  C   C158      1.0  0.37464624  0.64460295  0.05765205  1.0000
  C   C159      1.0  0.35185079  0.6191223899999999  0.30083504  1.0000
  C   C160      1.0  0.37975769  0.59188212  0.50376386  1.0000
  C   C161      1.0  0.43177397  0.5884755399999999  0.46544088000000006  1.0000
  C   C162      1.0  0.45499096  0.6099947999999998  0.21699680000000005  1.0000
  C   C163      1.0  0.4281901399999999  0.63974443  0.011965980000000001  1.0000
  C   C164      1.0  0.4521865799999999  0.6669219299999998  0.77720606  1.0000
  C   C165      1.0  0.42477801  0.70021061  0.60328179  1.0000
  C   C166      1.0  0.48389801  0.75658542  0.29814027000000004  1.0000
  C   C167      1.0  0.57726547  0.79581854  0.15699778000000003  1.0000
  C   C168      1.0  0.48154409999999986  0.84956475  0.38067759  1.0000
  C   C169      1.0  0.52502679  0.86895394  0.2842583  1.0000
  C   C170      1.0  0.57510698  0.7392831  0.17016856000000002  1.0000
  C   C171      1.0  0.52347078  0.717617  0.23166194  1.0000
  C   C172      1.0  0.63004314  0.81390141  0.10919302  1.0000
  C   C173      1.0  0.4824042099999999  0.80703216  0.15381366  1.0000
  C   C174      1.0  0.53484217  0.8284878  0.05926642  1.0000
  C   C175      1.0  0.57351064  0.76916841  0.463292  1.0000
  C   C176      1.0  0.52236054  0.74591288  0.53394764  1.0000
  N   N1        1.0  0.23323450999999995  0.14696241  0.08455887  1.0000
  N   N2        1.0  0.23344019  0.06411681  0.13344028  1.0000
  N   N3        1.0  0.73323451  0.64696241  0.5845588600000001  1.0000
  N   N4        1.0  0.7334401899999998  0.5641168099999999  0.63344028  1.0000
  N   N5        1.0  0.7667654899999999  0.8530375899999999  0.08455886000000001  1.0000
  N   N6        1.0  0.76655981  0.93588319  0.13344028  1.0000
  N   N7        1.0  0.26676549  0.35303759  0.58455887  1.0000
  N   N8        1.0  0.26655981  0.43588319  0.63344028  1.0000
  N   N9        1.0  0.14696241  0.7667654899999998  0.91544113  1.0000
  N   N10       1.0  0.06411681  0.7665598099999998  0.8665597200000003  1.0000
  N   N11       1.0  0.6469624099999999  0.26676549  0.41544113  1.0000
  N   N12       1.0  0.56411681  0.26655981  0.36655972  1.0000
  N   N13       1.0  0.85303759  0.23323450999999998  0.91544114  1.0000
  N   N14       1.0  0.9358831899999998  0.23344019  0.8665597200000003  1.0000
  N   N15       1.0  0.3530375899999999  0.73323451  0.41544114  1.0000
  N   N16       1.0  0.4358831899999999  0.73344019  0.36655972  1.0000
  O   O1        1.0  0.23366005  0.28157471  0.09790052  1.0000
  O   O2        1.0  0.27893683  0.8364552699999998  0.39918659  1.0000
  O   O3        1.0  0.3568681699999999  0.8643630399999999  0.59191355  1.0000
  O   O4        1.0  0.3599294  0.85966416  0.23047134  1.0000
  O   O5        1.0  0.73366005  0.78157471  0.5979005200000003  1.0000
  O   O6        1.0  0.77893683  0.33645526999999986  0.89918659  1.0000
  O   O7        1.0  0.85686817  0.36436304  0.09191355  1.0000
  O   O8        1.0  0.8599293999999998  0.35966416  0.73047134  1.0000
  O   O9        1.0  0.7663399499999999  0.7184252899999998  0.09790052  1.0000
  O   O10       1.0  0.72106317  0.16354473  0.39918659  1.0000
  O   O11       1.0  0.6431318299999998  0.13563696  0.59191355  1.0000
  O   O12       1.0  0.6400706  0.14033584  0.23047134  1.0000
  O   O13       1.0  0.26633994999999994  0.21842528999999994  0.5979005200000003  1.0000
  O   O14       1.0  0.22106316999999998  0.66354473  0.89918659  1.0000
  O   O15       1.0  0.14313183  0.63563696  0.09191355  1.0000
  O   O16       1.0  0.14007059999999996  0.6403358399999998  0.73047134  1.0000
  O   O17       1.0  0.28157471  0.76633995  0.90209948  1.0000
  O   O18       1.0  0.83645527  0.72106317  0.60081341  1.0000
  O   O19       1.0  0.8643630399999997  0.64313183  0.40808645  1.0000
  O   O20       1.0  0.8596641599999998  0.6400705999999998  0.7695286600000001  1.0000
  O   O21       1.0  0.7815747099999999  0.26633994999999994  0.40209948  1.0000
  O   O22       1.0  0.33645527  0.22106316999999995  0.10081341  1.0000
  O   O23       1.0  0.36436304  0.14313183  0.90808645  1.0000
  O   O24       1.0  0.35966415999999996  0.1400706  0.26952867  1.0000
  O   O25       1.0  0.71842529  0.23366005  0.90209948  1.0000
  O   O26       1.0  0.16354473  0.27893683  0.60081341  1.0000
  O   O27       1.0  0.13563695999999997  0.35686816999999993  0.40808645  1.0000
  O   O28       1.0  0.14033584  0.3599294  0.76952867  1.0000
  O   O29       1.0  0.21842529  0.7336600499999999  0.40209948  1.0000
  O   O30       1.0  0.66354473  0.7789368299999998  0.10081341  1.0000
  O   O31       1.0  0.63563696  0.8568681699999998  0.90808645  1.0000
  O   O32       1.0  0.64033584  0.8599294  0.26952866  1.0000
