data_image0
_chemical_formula_structural       Zn8H96C144N16O32
_chemical_formula_sum              "Zn8 H96 C144 N16 O32"
_cell_length_a       26.41248643
_cell_length_b       26.41249627
_cell_length_c       4.43845256
_cell_angle_alpha    90.00005523
_cell_angle_beta     89.99997054000002
_cell_angle_gamma    89.99991479000002

_space_group_name_H-M_alt    "P 1"
_space_group_IT_number       1

loop_
  _space_group_symop_operation_xyz
  'x, y, z'

loop_
  _atom_site_type_symbol
  _atom_site_label
  _atom_site_symmetry_multiplicity
  _atom_site_fract_x
  _atom_site_fract_y
  _atom_site_fract_z
  _atom_site_occupancy
  Zn  Zn1       1.0  0.26396759  0.21330107  0.0961403  1.0000
  Zn  Zn2       1.0  0.7360316700000002  0.78669843  0.09613467  1.0000
  Zn  Zn3       1.0  0.7133014000000002  0.23603185  0.40384898  1.0000
  Zn  Zn4       1.0  0.28669863  0.7639672800000002  0.40384712  1.0000
  Zn  Zn5       1.0  0.76396822  0.71330167  0.59613977  1.0000
  Zn  Zn6       1.0  0.23603136  0.28669776  0.59613791  1.0000
  Zn  Zn7       1.0  0.21330198  0.7360317800000001  0.90385373  1.0000
  Zn  Zn8       1.0  0.78669791  0.26396850000000005  0.90384767  1.0000
  H   H1        1.0  0.2760455  0.10434638  0.3726844100000001  1.0000
  H   H2        1.0  0.17065079  0.19961983000000005  0.63005246  1.0000
  H   H3        1.0  0.11924826  0.19951481  0.16598924  1.0000
  H   H4        1.0  0.06901254  0.15309830000000002  0.78753033  1.0000
  H   H5        1.0  0.06089892000000001  0.05935302  0.81984056  1.0000
  H   H6        1.0  0.09822827  0.01227083  0.24430788000000003  1.0000
  H   H7        1.0  0.1500542  0.0111647  0.70862463  1.0000
  H   H8        1.0  0.25394596  0.9175881400000001  0.62906672  1.0000
  H   H9        1.0  0.34206533  0.93742628  0.82756438  1.0000
  H   H10       1.0  0.30071935  0.019979950000000003  0.73778282  1.0000
  H   H11       1.0  0.21341982000000004  0.9993978600000001  0.53983124  1.0000
  H   H12       1.0  0.301706  0.22001239  0.5760338  1.0000
  H   H13       1.0  0.72395465  0.8956536800000002  0.37268645  1.0000
  H   H14       1.0  0.8293495100000001  0.8003799500000002  0.63005298  1.0000
  H   H15       1.0  0.8807522000000002  0.8004850900000001  0.1659889  1.0000
  H   H16       1.0  0.93098767  0.8469016400000001  0.78752833  1.0000
  H   H17       1.0  0.9391009700000001  0.9406469800000001  0.8198391  1.0000
  H   H18       1.0  0.9017714800000002  0.9877291300000001  0.24430729999999998  1.0000
  H   H19       1.0  0.8499459100000001  0.9888351300000002  0.7086259  1.0000
  H   H20       1.0  0.74605428  0.08241165000000003  0.62906968  1.0000
  H   H21       1.0  0.6579350400000001  0.06257362  0.82756922  1.0000
  H   H22       1.0  0.69928114  0.9800201000000002  0.73778755  1.0000
  H   H23       1.0  0.7865806400000002  0.00060228  0.53983407  1.0000
  H   H24       1.0  0.69829399  0.7799878200000002  0.5760243  1.0000
  H   H25       1.0  0.6043466  0.22395423  0.12731195  1.0000
  H   H26       1.0  0.6996197000000001  0.3293491800000001  0.86994726  1.0000
  H   H27       1.0  0.69951428  0.3807514300000001  0.33401235  1.0000
  H   H28       1.0  0.6530976400000003  0.4309873700000001  0.71246932  1.0000
  H   H29       1.0  0.55935234  0.4391009  0.68015886  1.0000
  H   H30       1.0  0.51227047  0.4017713000000001  0.25569016  1.0000
  H   H31       1.0  0.51116459  0.3499452000000001  0.79137371  1.0000
  H   H32       1.0  0.41758831  0.24605314  0.87093788  1.0000
  H   H33       1.0  0.4374265600000001  0.15793429  0.6724393  1.0000
  H   H34       1.0  0.51997997  0.19928069  0.76221374  1.0000
  H   H35       1.0  0.49939771000000005  0.28657988  0.9601658200000001  1.0000
  H   H36       1.0  0.7200123700000002  0.19829305  0.92394675  1.0000
  H   H37       1.0  0.39565319  0.7760459000000002  0.12730777  1.0000
  H   H38       1.0  0.30037986  0.67065024  0.86994024  1.0000
  H   H39       1.0  0.30048525  0.61924823  0.334004  1.0000
  H   H40       1.0  0.3469017800000001  0.56901257  0.71246349  1.0000
  H   H41       1.0  0.44064712  0.56089968  0.68015146  1.0000
  H   H42       1.0  0.4877292700000001  0.59822954  0.25568575  1.0000
  H   H43       1.0  0.48883531  0.65005556  0.79136907  1.0000
  H   H44       1.0  0.58241218  0.7539473000000001  0.87093417  1.0000
  H   H45       1.0  0.56257271  0.84206566  0.67244011  1.0000
  H   H46       1.0  0.4800192100000001  0.8007192  0.76221543  1.0000
  H   H47       1.0  0.50060265  0.71342079  0.96016548  1.0000
  H   H48       1.0  0.27998771  0.8017064800000002  0.92394582  1.0000
  H   H49       1.0  0.77604601  0.60434702  0.8726906  1.0000
  H   H50       1.0  0.6706518700000001  0.6996201900000002  0.1300539  1.0000
  H   H51       1.0  0.6192491600000001  0.6995150500000002  0.66599242  1.0000
  H   H52       1.0  0.56901306  0.65309835  0.28753549  1.0000
  H   H53       1.0  0.5608990800000001  0.5593531600000001  0.31985023  1.0000
  H   H54       1.0  0.59822815  0.51227122  0.7443186  1.0000
  H   H55       1.0  0.65005414  0.51116533  0.20863483  1.0000
  H   H56       1.0  0.7539454600000001  0.41758916  0.12907799  1.0000
  H   H57       1.0  0.84206522  0.43742647000000007  0.32757679  1.0000
  H   H58       1.0  0.80071963  0.5199802  0.23779379000000003  1.0000
  H   H59       1.0  0.7134197000000002  0.49939892  0.03984077  1.0000
  H   H60       1.0  0.80170617  0.7200127200000002  0.07602522  1.0000
  H   H61       1.0  0.22395438000000006  0.39565296  0.87268782  1.0000
  H   H62       1.0  0.32934882  0.30037954000000006  0.13005042  1.0000
  H   H63       1.0  0.3807514300000001  0.30048473  0.6659866  1.0000
  H   H64       1.0  0.43098701000000006  0.34690116  0.28752645  1.0000
  H   H65       1.0  0.4391003400000001  0.44064648  0.31983817  1.0000
  H   H66       1.0  0.40177107  0.48772854  0.74430639  1.0000
  H   H67       1.0  0.34994517  0.4888345800000001  0.20862434000000002  1.0000
  H   H68       1.0  0.24605308000000006  0.58241123  0.12906834  1.0000
  H   H69       1.0  0.15793439000000004  0.56257247  0.32756598  1.0000
  H   H70       1.0  0.19928056000000005  0.48001892  0.23778649000000002  1.0000
  H   H71       1.0  0.28657941000000003  0.50060163  0.03983485  1.0000
  H   H72       1.0  0.19829345  0.27998735  0.07603217  1.0000
  H   H73       1.0  0.10434726000000002  0.72395392  0.62730879  1.0000
  H   H74       1.0  0.19962092000000003  0.8293487100000001  0.3699444  1.0000
  H   H75       1.0  0.19951562  0.880751  0.83400896  1.0000
  H   H76       1.0  0.15309917  0.93098671  0.21246792  1.0000
  H   H77       1.0  0.059353900000000015  0.93910006  0.18015869  1.0000
  H   H78       1.0  0.0122717  0.9017705700000003  0.75569209  1.0000
  H   H79       1.0  0.011165600000000001  0.8499444200000001  0.29137517  1.0000
  H   H80       1.0  0.9175887100000002  0.7460519700000001  0.37094153  1.0000
  H   H81       1.0  0.93742792  0.65793381  0.17244542  1.0000
  H   H82       1.0  0.019981480000000006  0.69928042  0.26221625  1.0000
  H   H83       1.0  0.9993983  0.78657872  0.46016431  1.0000
  H   H84       1.0  0.2200124  0.69829331  0.42396416  1.0000
  H   H85       1.0  0.8956528200000002  0.27604635  0.62731073  1.0000
  H   H86       1.0  0.80037967  0.17065135  0.36994807  1.0000
  H   H87       1.0  0.80048499  0.11924909  0.83401155  1.0000
  H   H88       1.0  0.84690167  0.06901329  0.21246891  1.0000
  H   H89       1.0  0.9406468800000001  0.06090019  0.18015545  1.0000
  H   H90       1.0  0.9877288  0.09822968  0.75568852  1.0000
  H   H91       1.0  0.98883475  0.15005573  0.29137175  1.0000
  H   H92       1.0  0.08241106  0.25394725  0.37093316  1.0000
  H   H93       1.0  0.06257271  0.34206625  0.17243567  1.0000
  H   H94       1.0  0.9800192500000002  0.30072029  0.26221415  1.0000
  H   H95       1.0  0.00060153  0.21342115000000006  0.46016598  1.0000
  H   H96       1.0  0.77998675  0.30170733  0.42394444  1.0000
  C   C1        1.0  0.24588082  0.1047669  0.20607724  1.0000
  C   C2        1.0  0.19669088  0.13082711000000002  0.84310485  1.0000
  C   C3        1.0  0.16907819  0.158435  0.63259478  1.0000
  C   C4        1.0  0.13845179  0.13310639  0.4237594  1.0000
  C   C5        1.0  0.11378930000000002  0.15884392000000003  0.18872344  1.0000
  C   C6        1.0  0.08579349  0.13304739000000002  0.97647087  1.0000
  C   C7        1.0  0.08111721  0.07963507000000003  0.9960911400000001  1.0000
  C   C8        1.0  0.10235052000000001  0.05323156  0.23335167000000004  1.0000
  C   C9        1.0  0.13222123  0.07806930000000002  0.44790721  1.0000
  C   C10       1.0  0.15745684  0.05141914  0.6791792800000002  1.0000
  C   C11       1.0  0.19277201  0.07678588  0.85534846  1.0000
  C   C12       1.0  0.26471486  0.9397871200000001  0.43415245  1.0000
  C   C13       1.0  0.3018311  0.9220755100000002  0.23635623  1.0000
  C   C14       1.0  0.31434142  0.95134877  0.98941408  1.0000
  C   C15       1.0  0.28828244  0.9965700600000003  0.9249095200000002  1.0000
  C   C16       1.0  0.24961343  0.01266095  0.12025168  1.0000
  C   C17       1.0  0.23902174  0.9844445  0.37295012  1.0000
  C   C18       1.0  0.32129387  0.8693482600000001  0.28827  1.0000
  C   C19       1.0  0.7541193  0.8952329500000001  0.20608088  1.0000
  C   C20       1.0  0.80330947  0.86917279  0.84310527  1.0000
  C   C21       1.0  0.83092192  0.84156492  0.63259635  1.0000
  C   C22       1.0  0.86154845  0.8668935600000002  0.42375926  1.0000
  C   C23       1.0  0.88621095  0.8411558  0.1887229  1.0000
  C   C24       1.0  0.9142066400000002  0.8669527000000002  0.97646996  1.0000
  C   C25       1.0  0.91888281  0.9203648  0.9960889100000001  1.0000
  C   C26       1.0  0.89764944  0.94676859  0.23335121000000003  1.0000
  C   C27       1.0  0.86777876  0.92193055  0.44790792  1.0000
  C   C28       1.0  0.84254344  0.9485809  0.67917958  1.0000
  C   C29       1.0  0.8072280100000002  0.92321374  0.85535088  1.0000
  C   C30       1.0  0.7352854000000001  0.06021357  0.43415928  1.0000
  C   C31       1.0  0.69816896  0.07792381  0.23635703  1.0000
  C   C32       1.0  0.68565892  0.048651760000000016  0.98942342  1.0000
  C   C33       1.0  0.71171774  0.0034293800000000005  0.92491156  1.0000
  C   C34       1.0  0.75038696  0.98733948  0.12025991000000001  1.0000
  C   C35       1.0  0.7609785900000001  0.01555464  0.37294864  1.0000
  C   C36       1.0  0.6787064100000001  0.13065182  0.28827373  1.0000
  C   C37       1.0  0.6047672900000001  0.2541191300000001  0.29392056  1.0000
  C   C38       1.0  0.63082692  0.30330871000000004  0.65689071  1.0000
  C   C39       1.0  0.65843528  0.3309218  0.86740506  1.0000
  C   C40       1.0  0.63310603  0.36154788  0.07623894  1.0000
  C   C41       1.0  0.65884385  0.38621032000000005  0.3112757  1.0000
  C   C42       1.0  0.63304655  0.41420649  0.52352889  1.0000
  C   C43       1.0  0.57963479  0.41888253000000003  0.50390794  1.0000
  C   C44       1.0  0.5532311  0.39764921  0.26664723  1.0000
  C   C45       1.0  0.57806919  0.36777849  0.05209175  1.0000
  C   C46       1.0  0.55141897  0.34254273  0.82081914  1.0000
  C   C47       1.0  0.57678613  0.30722769  0.64464947  1.0000
  C   C48       1.0  0.43978559000000006  0.23528498  0.06583991  1.0000
  C   C49       1.0  0.42207694  0.19816776  0.26365798  1.0000
  C   C50       1.0  0.45134734  0.18565863000000005  0.51057417  1.0000
  C   C51       1.0  0.49657136  0.21171673  0.57509664  1.0000
  C   C52       1.0  0.51265974  0.25038675  0.37973321  1.0000
  C   C53       1.0  0.48444658  0.26097714  0.12706414  1.0000
  C   C54       1.0  0.36934775  0.17870624  0.21173083  1.0000
  C   C55       1.0  0.39523279  0.74588111  0.29391502  1.0000
  C   C56       1.0  0.36917277  0.69669103  0.65688603  1.0000
  C   C57       1.0  0.3415645200000001  0.66907797  0.86739845  1.0000
  C   C58       1.0  0.36689359  0.63845229  0.07623146  1.0000
  C   C59       1.0  0.341156  0.61378913  0.31127192  1.0000
  C   C60       1.0  0.3669529000000001  0.58579399  0.52351949  1.0000
  C   C61       1.0  0.42036491  0.58111743  0.50390575  1.0000
  C   C62       1.0  0.44676876  0.6023518  0.26663915  1.0000
  C   C63       1.0  0.42193067  0.6322217400000002  0.05208734  1.0000
  C   C64       1.0  0.4485808900000001  0.6574577300000001  0.82081488  1.0000
  C   C65       1.0  0.42321344000000005  0.6927725300000003  0.64464408  1.0000
  C   C66       1.0  0.5602136200000001  0.76471597  0.06584727  1.0000
  C   C67       1.0  0.57792379  0.80183207  0.26364815  1.0000
  C   C68       1.0  0.54865111  0.8143421200000002  0.51058473  1.0000
  C   C69       1.0  0.50342877  0.78828273  0.57509031  1.0000
  C   C70       1.0  0.48733916000000005  0.74961411  0.37974264  1.0000
  C   C71       1.0  0.51555497  0.7390226000000002  0.12704958  1.0000
  C   C72       1.0  0.63065146  0.8212947600000002  0.21173224000000002  1.0000
  C   C73       1.0  0.7458812000000002  0.60476774  0.70608333  1.0000
  C   C74       1.0  0.6966914200000002  0.63082734  0.34311005  1.0000
  C   C75       1.0  0.669079  0.65843551  0.13259854  1.0000
  C   C76       1.0  0.63845243  0.63310674  0.92376557  1.0000
  C   C77       1.0  0.61379003  0.65884422  0.68872834  1.0000
  C   C78       1.0  0.5857938500000001  0.63304758  0.4764772199999999  1.0000
  C   C79       1.0  0.58111736  0.57963537  0.49609818  1.0000
  C   C80       1.0  0.60235051  0.55323188  0.7333614  1.0000
  C   C81       1.0  0.63222153  0.5780697800000001  0.9479158300000001  1.0000
  C   C82       1.0  0.65745669  0.55141949  0.17918757  1.0000
  C   C83       1.0  0.69277235  0.57678696  0.35535793  1.0000
  C   C84       1.0  0.7647145600000002  0.43978736  0.9341667800000001  1.0000
  C   C85       1.0  0.8018308900000002  0.42207622000000006  0.7363649  1.0000
  C   C86       1.0  0.81434133  0.45134865000000013  0.48942913  1.0000
  C   C87       1.0  0.78828262  0.4965707100000001  0.42491909  1.0000
  C   C88       1.0  0.74961328  0.51266115  0.62026419  1.0000
  C   C89       1.0  0.7390218700000001  0.48444584000000007  0.87295647  1.0000
  C   C90       1.0  0.8212932200000002  0.36934838  0.78828006  1.0000
  C   C91       1.0  0.25411911  0.39523218  0.70607953  1.0000
  C   C92       1.0  0.30330871  0.36917236  0.34310547  1.0000
  C   C93       1.0  0.33092135  0.3415641  0.13259374  1.0000
  C   C94       1.0  0.36154781  0.3668931900000001  0.9237584899999999  1.0000
  C   C95       1.0  0.38621027000000013  0.3411552  0.68872148  1.0000
  C   C96       1.0  0.41420615000000005  0.3669522500000001  0.47646743  1.0000
  C   C97       1.0  0.41888226  0.42036416000000004  0.49608864  1.0000
  C   C98       1.0  0.3976490300000001  0.4467681  0.73335039  1.0000
  C   C99       1.0  0.36777827  0.42192984  0.9479064  1.0000
  C   C100      1.0  0.34254285  0.4485805  0.17917862  1.0000
  C   C101      1.0  0.3072275300000001  0.42321299  0.35535002  1.0000
  C   C102      1.0  0.23528439000000007  0.56021294  0.93415538  1.0000
  C   C103      1.0  0.19816856  0.57792324  0.73635448  1.0000
  C   C104      1.0  0.18565814  0.54865066  0.4894181000000001  1.0000
  C   C105      1.0  0.21171736000000002  0.50342861  0.42491166  1.0000
  C   C106      1.0  0.25038636000000003  0.48733858  0.62025642  1.0000
  C   C107      1.0  0.26097779  0.51555427  0.87294976  1.0000
  C   C108      1.0  0.17870614  0.63065126  0.78826843  1.0000
  C   C109      1.0  0.10476822000000002  0.75411868  0.79391733  1.0000
  C   C110      1.0  0.13082782  0.8033083  0.15688853  1.0000
  C   C111      1.0  0.15843643  0.8309213700000002  0.36740351  1.0000
  C   C112      1.0  0.13310734  0.8615472500000002  0.57623614  1.0000
  C   C113      1.0  0.15884512  0.8862098700000002  0.81127414  1.0000
  C   C114      1.0  0.13304811  0.91420588  0.02352803  1.0000
  C   C115      1.0  0.07963605000000003  0.9188818900000002  0.00390771  1.0000
  C   C116      1.0  0.0532324  0.8976484500000002  0.76664807  1.0000
  C   C117      1.0  0.07807038  0.86777782  0.55209142  1.0000
  C   C118      1.0  0.05142003000000001  0.8425420500000002  0.32081908  1.0000
  C   C119      1.0  0.07678728  0.8072273300000001  0.14464878  1.0000
  C   C120      1.0  0.9397859000000002  0.7352840800000002  0.56584408  1.0000
  C   C121      1.0  0.92207775  0.6981672500000002  0.76366552  1.0000
  C   C122      1.0  0.9513482900000002  0.6856581300000001  0.01057982  1.0000
  C   C123      1.0  0.99657255  0.7117166  0.07509924  1.0000
  C   C124      1.0  0.01266055  0.75038631  0.87973433  1.0000
  C   C125      1.0  0.9844473100000002  0.76097641  0.62706559  1.0000
  C   C126      1.0  0.8693485300000001  0.67870593  0.71173914  1.0000
  C   C127      1.0  0.89523201  0.24588119000000005  0.7939215800000001  1.0000
  C   C128      1.0  0.8691726000000001  0.19669202000000002  0.15688804  1.0000
  C   C129      1.0  0.84156383  0.16907846  0.36740719  1.0000
  C   C130      1.0  0.86689333  0.13845308  0.57623577  1.0000
  C   C131      1.0  0.8411557500000002  0.11378972  0.81127866  1.0000
  C   C132      1.0  0.86695262  0.08579454  0.02352363  1.0000
  C   C133      1.0  0.9203644  0.08111782000000001  0.00390929  1.0000
  C   C134      1.0  0.9467685600000001  0.10235216000000003  0.7666415  1.0000
  C   C135      1.0  0.92193014  0.13222200000000003  0.55209216  1.0000
  C   C136      1.0  0.94858045  0.15745824  0.32081698  1.0000
  C   C137      1.0  0.9232131  0.19277287000000007  0.14464872  1.0000
  C   C138      1.0  0.060213570000000015  0.2647161  0.56584124  1.0000
  C   C139      1.0  0.07792294000000002  0.30183219  0.76365104  1.0000
  C   C140      1.0  0.04865145  0.31434236  0.01057852  1.0000
  C   C141      1.0  0.003428310000000001  0.28828359  0.07509236  1.0000
  C   C142      1.0  0.9873391  0.24961422000000005  0.87973946  1.0000
  C   C143      1.0  0.01555341  0.23902317000000006  0.62705534  1.0000
  C   C144      1.0  0.13065153000000002  0.3212942500000001  0.71173116  1.0000
  N   N1        1.0  0.22922591000000006  0.14631011  0.06777585  1.0000
  N   N2        1.0  0.2258715  0.06162155  0.08193322  1.0000
  N   N3        1.0  0.7707742600000002  0.85368963  0.06777829  1.0000
  N   N4        1.0  0.77412875  0.9383785000000001  0.0819351  1.0000
  N   N5        1.0  0.6463101500000002  0.27077396  0.43221943  1.0000
  N   N6        1.0  0.56162176  0.27412809  0.41806608  1.0000
  N   N7        1.0  0.35368946  0.72922591  0.43221473  1.0000
  N   N8        1.0  0.4383781500000001  0.7258721500000003  0.41806082  1.0000
  N   N9        1.0  0.72922674  0.6463108100000001  0.56778102  1.0000
  N   N10       1.0  0.7258716700000002  0.56162203  0.5819419  1.0000
  N   N11       1.0  0.2707737  0.3536890500000001  0.56777789  1.0000
  N   N12       1.0  0.27412827  0.43837796  0.58193551  1.0000
  N   N13       1.0  0.1463111  0.7707735700000001  0.9322173500000001  1.0000
  N   N14       1.0  0.06162251  0.77412762  0.9180637699999998  1.0000
  N   N15       1.0  0.8536892600000002  0.22922649000000006  0.9322190899999999  1.0000
  N   N16       1.0  0.93837773  0.22587275000000007  0.9180642800000001  1.0000
  O   O1        1.0  0.28459013  0.8370753800000003  0.33737151  1.0000
  O   O2        1.0  0.36506558  0.85630605  0.10791908  1.0000
  O   O3        1.0  0.26535821  0.21804938000000001  0.61791523  1.0000
  O   O4        1.0  0.3680821200000001  0.8650110200000001  0.45753985  1.0000
  O   O5        1.0  0.7154098400000002  0.16292471000000006  0.33736399  1.0000
  O   O6        1.0  0.63493405  0.14369341  0.10792937  1.0000
  O   O7        1.0  0.7346417600000003  0.78195107  0.61791985  1.0000
  O   O8        1.0  0.63191893  0.13498952  0.45755196  1.0000
  O   O9        1.0  0.33707523  0.21540943000000007  0.16264064  1.0000
  O   O10       1.0  0.35630610000000007  0.13493388  0.39207775  1.0000
  O   O11       1.0  0.7180493700000001  0.23464125  0.88208025  1.0000
  O   O12       1.0  0.36501035  0.13191854  0.04245565  1.0000
  O   O13       1.0  0.6629251100000002  0.7845906300000001  0.1626594  1.0000
  O   O14       1.0  0.6436924000000002  0.8650689800000001  0.39206124  1.0000
  O   O15       1.0  0.28195154  0.7653575700000003  0.88208415  1.0000
  O   O16       1.0  0.63498945  0.8680802200000002  0.04243402  1.0000
  O   O17       1.0  0.78458931  0.33707559  0.83736884  1.0000
  O   O18       1.0  0.8650657200000001  0.3563066700000001  0.60793545  1.0000
  O   O19       1.0  0.7653582700000001  0.71804953  0.11791903  1.0000
  O   O20       1.0  0.86808068  0.3650103100000001  0.9575595000000001  1.0000
  O   O21       1.0  0.21541052000000005  0.66292434  0.83735117  1.0000
  O   O22       1.0  0.13493325  0.6436926600000002  0.6079287  1.0000
  O   O23       1.0  0.23464115000000002  0.28195014  0.11791683  1.0000
  O   O24       1.0  0.1319196  0.63498953  0.9575528  1.0000
  O   O25       1.0  0.8370759400000002  0.71541027  0.66265632  1.0000
  O   O26       1.0  0.8563069600000001  0.63493305  0.89208066  1.0000
  O   O27       1.0  0.21804911000000002  0.7346416600000001  0.38208066  1.0000
  O   O28       1.0  0.86501033  0.63191903  0.54245648  1.0000
  O   O29       1.0  0.16292448  0.28459045000000005  0.66264849  1.0000
  O   O30       1.0  0.14369306  0.3650671400000001  0.8920707  1.0000
  O   O31       1.0  0.7819498700000003  0.26535905  0.38208065  1.0000
  O   O32       1.0  0.1349898  0.3680808800000001  0.54244651  1.0000
