data_image0
_chemical_formula_structural       C5Cl3O3C5Cl3O3C5Cl3O3C5Cl3O3C5Cl3O3C5Cl3O3C5Cl3O3C5Cl3O3C2LaC2LaC2LaC2La
_chemical_formula_sum              "C48 Cl24 O24 La4"
_cell_length_a       8.887
_cell_length_b       25.053
_cell_length_c       10.039
_cell_angle_alpha    90.0
_cell_angle_beta     101.56500000000001
_cell_angle_gamma    90.0

_symmetry_space_group_name_H-M    'P 1'
_symmetry_Int_Tables_number       1

loop_
  _symmetry_equiv_pos_as_xyz
  'x,y,z'

loop_
  _atom_site_type_symbol
  _atom_site_label
  _atom_site_symmetry_multiplicity
  _atom_site_fract_x
  _atom_site_fract_y
  _atom_site_fract_z
  _atom_site_occupancy
  C   C1        1.0  0.3505  0.26685  0.2478  1.0000
  C   C2        1.0  0.3024  0.25817  0.3795  1.0000
  C   C3        1.0  0.2601  0.30109  0.4527  1.0000
  C   C4        1.0  0.2949  0.20754  0.4327  1.0000
  C   C5        1.0  0.0241  0.026700000000000005  0.1279  1.0000
  Cl  Cl1       1.0  0.26937  0.36493000000000003  0.38424  1.0000
  Cl  Cl2       1.0  0.35364  0.15378  0.34406000000000003  1.0000
  Cl  Cl3       1.0  0.045860000000000005  0.06292  0.2725000000000001  1.0000
  O   O1        1.0  0.2668  0.25516  0.1341  1.0000
  O   O2        1.0  0.4887000000000001  0.28225  0.24820000000000003  1.0000
  O   O3        1.0  0.8749000000000001  0.141  0.9939000000000002  1.0000
  C   C6        1.0  0.8505000000000003  0.76685  0.2478  1.0000
  C   C7        1.0  0.8024  0.75817  0.3795  1.0000
  C   C8        1.0  0.7601  0.80109  0.4527  1.0000
  C   C9        1.0  0.7949  0.70754  0.4327  1.0000
  C   C10       1.0  0.5241  0.5267  0.1279  1.0000
  Cl  Cl4       1.0  0.76937  0.86493  0.38424  1.0000
  Cl  Cl5       1.0  0.85364  0.6537800000000001  0.34406000000000003  1.0000
  Cl  Cl6       1.0  0.5458600000000001  0.56292  0.2725000000000001  1.0000
  O   O4        1.0  0.7668  0.7551600000000002  0.1341  1.0000
  O   O5        1.0  0.9887  0.78225  0.24820000000000003  1.0000
  O   O6        1.0  0.3749000000000001  0.641  0.9939000000000002  1.0000
  C   C11       1.0  0.6495  0.26685  0.7522  1.0000
  C   C12       1.0  0.6976  0.25817  0.6205  1.0000
  C   C13       1.0  0.7399000000000001  0.30109  0.5473  1.0000
  C   C14       1.0  0.7051000000000002  0.20754  0.5673000000000001  1.0000
  C   C15       1.0  0.9759000000000001  0.026700000000000005  0.8721000000000001  1.0000
  Cl  Cl7       1.0  0.7306300000000002  0.36493000000000003  0.6157600000000002  1.0000
  Cl  Cl8       1.0  0.6463600000000002  0.15378  0.6559400000000002  1.0000
  Cl  Cl9       1.0  0.9541399999999999  0.06292  0.7275  1.0000
  O   O7        1.0  0.7332  0.25516  0.8659000000000001  1.0000
  O   O8        1.0  0.5113  0.28225  0.7518  1.0000
  O   O9        1.0  0.1251  0.141  0.006100000000000002  1.0000
  C   C16       1.0  0.1495  0.76685  0.7522  1.0000
  C   C17       1.0  0.1976  0.75817  0.6205  1.0000
  C   C18       1.0  0.2399  0.80109  0.5473  1.0000
  C   C19       1.0  0.20510000000000012  0.70754  0.5673000000000001  1.0000
  C   C20       1.0  0.4759  0.5267  0.8721000000000001  1.0000
  Cl  Cl10      1.0  0.23063000000000006  0.86493  0.6157600000000002  1.0000
  Cl  Cl11      1.0  0.14636000000000005  0.6537800000000001  0.6559400000000002  1.0000
  Cl  Cl12      1.0  0.45414  0.56292  0.7275  1.0000
  O   O10       1.0  0.2332  0.7551600000000002  0.8659000000000001  1.0000
  O   O11       1.0  0.011299999999999998  0.78225  0.7518  1.0000
  O   O12       1.0  0.6251  0.641  0.006100000000000002  1.0000
  C   C21       1.0  0.6495  0.73315  0.7522  1.0000
  C   C22       1.0  0.6976  0.74183  0.6205  1.0000
  C   C23       1.0  0.7399000000000001  0.69891  0.5473  1.0000
  C   C24       1.0  0.7051000000000002  0.7924600000000002  0.5673000000000001  1.0000
  C   C25       1.0  0.9759000000000001  0.9733  0.8721000000000001  1.0000
  Cl  Cl13      1.0  0.7306300000000002  0.63507  0.6157600000000002  1.0000
  Cl  Cl14      1.0  0.6463600000000002  0.84622  0.6559400000000002  1.0000
  Cl  Cl15      1.0  0.9541399999999999  0.9370800000000001  0.7275  1.0000
  O   O13       1.0  0.7332  0.74484  0.8659000000000001  1.0000
  O   O14       1.0  0.5113  0.7177500000000001  0.7518  1.0000
  O   O15       1.0  0.1251  0.859  0.006100000000000002  1.0000
  C   C26       1.0  0.1495  0.23315000000000002  0.7522  1.0000
  C   C27       1.0  0.1976  0.24183  0.6205  1.0000
  C   C28       1.0  0.2399  0.19891  0.5473  1.0000
  C   C29       1.0  0.20510000000000012  0.29246  0.5673000000000001  1.0000
  C   C30       1.0  0.4759  0.47330000000000005  0.8721000000000001  1.0000
  Cl  Cl16      1.0  0.23063000000000006  0.13507  0.6157600000000002  1.0000
  Cl  Cl17      1.0  0.14636000000000005  0.34621999999999997  0.6559400000000002  1.0000
  Cl  Cl18      1.0  0.45414  0.43708  0.7275  1.0000
  O   O16       1.0  0.2332  0.24484  0.8659000000000001  1.0000
  O   O17       1.0  0.011299999999999998  0.21775000000000003  0.7518  1.0000
  O   O18       1.0  0.6251  0.359  0.006100000000000002  1.0000
  C   C31       1.0  0.3505  0.73315  0.2478  1.0000
  C   C32       1.0  0.3024  0.74183  0.3795  1.0000
  C   C33       1.0  0.2601  0.69891  0.4527  1.0000
  C   C34       1.0  0.2949  0.7924600000000002  0.4327  1.0000
  C   C35       1.0  0.0241  0.9733  0.1279  1.0000
  Cl  Cl19      1.0  0.26937  0.63507  0.38424  1.0000
  Cl  Cl20      1.0  0.35364  0.84622  0.34406000000000003  1.0000
  Cl  Cl21      1.0  0.045860000000000005  0.9370800000000001  0.2725000000000001  1.0000
  O   O19       1.0  0.2668  0.74484  0.1341  1.0000
  O   O20       1.0  0.4887000000000001  0.7177500000000001  0.24820000000000003  1.0000
  O   O21       1.0  0.8749000000000001  0.859  0.9939000000000002  1.0000
  C   C36       1.0  0.8505000000000003  0.23315000000000002  0.2478  1.0000
  C   C37       1.0  0.8024  0.24183  0.3795  1.0000
  C   C38       1.0  0.7601  0.19891  0.4527  1.0000
  C   C39       1.0  0.7949  0.29246  0.4327  1.0000
  C   C40       1.0  0.5241  0.47330000000000005  0.1279  1.0000
  Cl  Cl22      1.0  0.76937  0.13507  0.38424  1.0000
  Cl  Cl23      1.0  0.85364  0.34621999999999997  0.34406000000000003  1.0000
  Cl  Cl24      1.0  0.5458600000000001  0.43708  0.2725000000000001  1.0000
  O   O22       1.0  0.7668  0.24484  0.1341  1.0000
  O   O23       1.0  0.9887  0.21775000000000003  0.24820000000000003  1.0000
  O   O24       1.0  0.3749000000000001  0.359  0.9939000000000002  1.0000
  C   C41       1.0  0.0  0.1159  0.0  1.0000
  C   C42       1.0  0.0  0.0565  0.0  1.0000
  La  La1       1.0  0.0  0.23412  0.0  1.0000
  C   C43       1.0  0.5  0.6159  0.0  1.0000
  C   C44       1.0  0.5  0.5565  0.0  1.0000
  La  La2       1.0  0.5  0.7341200000000001  0.0  1.0000
  C   C45       1.0  0.0  0.8841000000000001  0.0  1.0000
  C   C46       1.0  0.0  0.9435  0.0  1.0000
  La  La3       1.0  0.0  0.76588  0.0  1.0000
  C   C47       1.0  0.5  0.3841  0.0  1.0000
  C   C48       1.0  0.5  0.4435  0.0  1.0000
  La  La4       1.0  0.5  0.26588  0.0  1.0000
