data_image0
_chemical_formula_structural       Co12H120C96N48
_chemical_formula_sum              "Co12 H120 C96 N48"
_cell_length_a       16.94712
_cell_length_b       16.94766
_cell_length_c       16.94993
_cell_angle_alpha    89.97431
_cell_angle_beta     89.98242
_cell_angle_gamma    90.00811

_symmetry_space_group_name_H-M    'P 1'
_symmetry_Int_Tables_number       1

loop_
  _symmetry_equiv_pos_as_xyz
  'x,y,z'

loop_
  _atom_site_type_symbol
  _atom_site_label
  _atom_site_symmetry_multiplicity
  _atom_site_fract_x
  _atom_site_fract_y
  _atom_site_fract_z
  _atom_site_occupancy
  Co  Co1       1.0  0.4999100000000001  0.74995  0.9998800000000001  1.0000
  Co  Co2       1.0  0.50005  0.24999  0.00015  1.0000
  Co  Co3       1.0  0.99995  0.50004  0.74995  1.0000
  Co  Co4       1.0  0.99995  0.49988  0.25004  1.0000
  Co  Co5       1.0  0.74998  0.9999700000000001  0.5  1.0000
  Co  Co6       1.0  0.24997  9.999999999999989e-06  0.50005  1.0000
  Co  Co7       1.0  0.74997  0.50005  0.0001  1.0000
  Co  Co8       1.0  0.2499  0.4998600000000001  3e-05  1.0000
  Co  Co9       1.0  0.49995000000000006  0.00019999999999999998  0.75002  1.0000
  Co  Co10      1.0  0.49998  0.99979  0.25003  1.0000
  Co  Co11      1.0  0.9999399999999999  0.75  0.4998  1.0000
  Co  Co12      1.0  0.9999399999999999  0.24994  0.50009  1.0000
  H   H1        1.0  0.46645  0.58011  0.08659  1.0000
  H   H2        1.0  0.5335400000000002  0.41992  0.0864  1.0000
  H   H3        1.0  0.5336700000000002  0.58014  0.9135  1.0000
  H   H4        1.0  0.08646000000000002  0.4663  0.5802  1.0000
  H   H5        1.0  0.91335  0.53354  0.58011  1.0000
  H   H6        1.0  0.91363  0.46644000000000013  0.41992  1.0000
  H   H7        1.0  0.5801300000000003  0.08661  0.46636  1.0000
  H   H8        1.0  0.58014  0.9134000000000002  0.53366  1.0000
  H   H9        1.0  0.41974  0.46633  0.9136  1.0000
  H   H10       1.0  0.46633  0.08637  0.58017  1.0000
  H   H11       1.0  0.4663100000000001  0.9136600000000002  0.41982  1.0000
  H   H12       1.0  0.08645  0.58021  0.46638  1.0000
  H   H13       1.0  0.96631  0.08018  0.5863  1.0000
  H   H14       1.0  0.96632  0.91984  0.41363999999999995  1.0000
  H   H15       1.0  0.58638  0.9663999999999999  0.08019  1.0000
  H   H16       1.0  0.58644  0.03354  0.91985  1.0000
  H   H17       1.0  0.91984  0.5863300000000001  0.03369  1.0000
  H   H18       1.0  0.08015  0.9663600000000001  0.5866  1.0000
  H   H19       1.0  0.08009  0.03357  0.41333  1.0000
  H   H20       1.0  0.03365  0.58657  0.91978  1.0000
  H   H21       1.0  0.9664000000000001  0.4133600000000001  0.91982  1.0000
  H   H22       1.0  0.4135700000000001  0.08016  0.03355  1.0000
  H   H23       1.0  0.41352  0.91983  0.9664600000000001  1.0000
  H   H24       1.0  0.36914  0.54565  0.10716  1.0000
  H   H25       1.0  0.63082  0.45435  0.10702999999999999  1.0000
  H   H26       1.0  0.63089  0.54563  0.893  1.0000
  H   H27       1.0  0.10701  0.3691  0.54567  1.0000
  H   H28       1.0  0.89284  0.63084  0.54566  1.0000
  H   H29       1.0  0.89291  0.36917  0.45438  1.0000
  H   H30       1.0  0.54563  0.10708  0.36915  1.0000
  H   H31       1.0  0.5456  0.8929  0.63087  1.0000
  H   H32       1.0  0.4543  0.36914  0.893  1.0000
  H   H33       1.0  0.36913000000000007  0.10702  0.54566  1.0000
  H   H34       1.0  0.36911  0.89298  0.45437  1.0000
  H   H35       1.0  0.10707000000000003  0.54569  0.36919  1.0000
  H   H36       1.0  0.8691200000000002  0.04562  0.60701  1.0000
  H   H37       1.0  0.8691200000000002  0.9543600000000001  0.39299  1.0000
  H   H38       1.0  0.60708  0.86915  0.0457  1.0000
  H   H39       1.0  0.60711  0.13081  0.95429  1.0000
  H   H40       1.0  0.9543600000000001  0.60697  0.13086  1.0000
  H   H41       1.0  0.04559  0.3929300000000001  0.13084  1.0000
  H   H42       1.0  0.04561  0.8691300000000002  0.60709  1.0000
  H   H43       1.0  0.04562  0.13082000000000005  0.39289  1.0000
  H   H44       1.0  0.13086  0.60705  0.95428  1.0000
  H   H45       1.0  0.86914  0.39289  0.9543399999999999  1.0000
  H   H46       1.0  0.39288  0.04567  0.13082  1.0000
  H   H47       1.0  0.39289  0.95431  0.86919  1.0000
  H   H48       1.0  0.39728  0.64411  0.1315  1.0000
  H   H49       1.0  0.60263  0.35592  0.13151  1.0000
  H   H50       1.0  0.6028100000000002  0.64413  0.86847  1.0000
  H   H51       1.0  0.13154  0.3971800000000001  0.64414  1.0000
  H   H52       1.0  0.8684100000000002  0.60269  0.64412  1.0000
  H   H53       1.0  0.86852  0.39736000000000005  0.35594  1.0000
  H   H54       1.0  0.64415  0.13152  0.39718999999999993  1.0000
  H   H55       1.0  0.6441400000000003  0.86848  0.6028  1.0000
  H   H56       1.0  0.3558  0.39722  0.86851  1.0000
  H   H57       1.0  0.39724  0.13153  0.64412  1.0000
  H   H58       1.0  0.39724  0.86848  0.35591  1.0000
  H   H59       1.0  0.13151000000000004  0.6441900000000003  0.39724  1.0000
  H   H60       1.0  0.89722  0.14411  0.63148  1.0000
  H   H61       1.0  0.8972400000000003  0.85588  0.36849  1.0000
  H   H62       1.0  0.6315  0.8972800000000002  0.14415  1.0000
  H   H63       1.0  0.6315100000000001  0.10269000000000003  0.85585  1.0000
  H   H64       1.0  0.85586  0.6314700000000002  0.10277  1.0000
  H   H65       1.0  0.14408  0.36848  0.10273  1.0000
  H   H66       1.0  0.14414  0.8972  0.6315  1.0000
  H   H67       1.0  0.14414  0.10277  0.36848  1.0000
  H   H68       1.0  0.10282  0.63157  0.8558  1.0000
  H   H69       1.0  0.8972400000000003  0.36845  0.85585  1.0000
  H   H70       1.0  0.3684900000000001  0.14413  0.10266  1.0000
  H   H71       1.0  0.36844  0.8558600000000002  0.89736  1.0000
  H   H72       1.0  0.3881000000000001  0.72693  0.849  1.0000
  H   H73       1.0  0.61281  0.27168000000000003  0.84983  1.0000
  H   H74       1.0  0.6122300000000003  0.72819  0.15027  1.0000
  H   H75       1.0  0.38856  0.27299  0.15102  1.0000
  H   H76       1.0  0.84894  0.38844  0.72707  1.0000
  H   H77       1.0  0.84971  0.61214  0.27187  1.0000
  H   H78       1.0  0.15095  0.61189  0.72692  1.0000
  H   H79       1.0  0.15027000000000004  0.38715  0.2717  1.0000
  H   H80       1.0  0.72818  0.84971  0.38767  1.0000
  H   H81       1.0  0.27285  0.84908  0.61199  1.0000
  H   H82       1.0  0.72819  0.15029000000000006  0.61231  1.0000
  H   H83       1.0  0.27284  0.15091  0.38802  1.0000
  H   H84       1.0  0.7283300000000001  0.38736  0.84982  1.0000
  H   H85       1.0  0.27182  0.61215  0.84984  1.0000
  H   H86       1.0  0.7271200000000002  0.61208  0.15086  1.0000
  H   H87       1.0  0.27268  0.3880300000000001  0.15093  1.0000
  H   H88       1.0  0.38741  0.8497800000000001  0.72844  1.0000
  H   H89       1.0  0.61173  0.84907  0.27311  1.0000
  H   H90       1.0  0.61173  0.15093  0.72691  1.0000
  H   H91       1.0  0.38742  0.15022  0.27155  1.0000
  H   H92       1.0  0.8490600000000003  0.72719  0.3878  1.0000
  H   H93       1.0  0.84911  0.2727700000000001  0.61188  1.0000
  H   H94       1.0  0.15019000000000005  0.72817  0.61217  1.0000
  H   H95       1.0  0.15018  0.27163  0.38738  1.0000
  H   H96       1.0  0.88739  0.22842  0.34975  1.0000
  H   H97       1.0  0.11172  0.77311  0.34907  1.0000
  H   H98       1.0  0.11239  0.22802  0.65021  1.0000
  H   H99       1.0  0.88742  0.77157  0.65022  1.0000
  H   H100      1.0  0.34907  0.88797  0.22725  1.0000
  H   H101      1.0  0.34909  0.11225  0.77286  1.0000
  H   H102      1.0  0.65024  0.11209000000000002  0.22818  1.0000
  H   H103      1.0  0.65026  0.88789  0.77185  1.0000
  H   H104      1.0  0.22695  0.34905  0.88845  1.0000
  H   H105      1.0  0.77156  0.34974  0.11259  1.0000
  H   H106      1.0  0.22833000000000006  0.65024  0.11278  1.0000
  H   H107      1.0  0.7719100000000002  0.65022  0.88779  1.0000
  H   H108      1.0  0.22820000000000001  0.88769  0.34971  1.0000
  H   H109      1.0  0.7728100000000002  0.11195000000000001  0.3491  1.0000
  H   H110      1.0  0.22808  0.11254000000000003  0.65028  1.0000
  H   H111      1.0  0.77283  0.88802  0.65092  1.0000
  H   H112      1.0  0.888  0.34904  0.22719  1.0000
  H   H113      1.0  0.11162  0.34907  0.77294  1.0000
  H   H114      1.0  0.11266000000000002  0.65015  0.2283  1.0000
  H   H115      1.0  0.88817  0.65101  0.77298  1.0000
  H   H116      1.0  0.3497500000000001  0.22819  0.88791  1.0000
  H   H117      1.0  0.349  0.77295  0.11142  1.0000
  H   H118      1.0  0.65094  0.22719000000000006  0.11223  1.0000
  H   H119      1.0  0.65089  0.7728  0.8878  1.0000
  H   H120      1.0  0.08011  0.4136  0.03365  1.0000
  C   C1        1.0  0.40370000000000006  0.59676  0.08759  1.0000
  C   C2        1.0  0.5962700000000002  0.40323  0.08752  1.0000
  C   C3        1.0  0.59642  0.59682  0.91247  1.0000
  C   C4        1.0  0.40309000000000006  0.40358  0.91248  1.0000
  C   C5        1.0  0.08754  0.40355  0.59686  1.0000
  C   C6        1.0  0.08753  0.59687  0.40363  1.0000
  C   C7        1.0  0.9123700000000002  0.59628  0.59678  1.0000
  C   C8        1.0  0.9124800000000001  0.4037  0.40326  1.0000
  C   C9        1.0  0.5968  0.08758  0.40362  1.0000
  C   C10       1.0  0.40358  0.08754  0.59684  1.0000
  C   C11       1.0  0.5967900000000003  0.9124100000000003  0.5964  1.0000
  C   C12       1.0  0.40357000000000004  0.9124800000000002  0.40317  1.0000
  C   C13       1.0  0.90356  0.09683000000000003  0.58749  1.0000
  C   C14       1.0  0.09680000000000002  0.9036100000000002  0.58758  1.0000
  C   C15       1.0  0.09677  0.09632  0.41241  1.0000
  C   C16       1.0  0.90357  0.90316  0.41247  1.0000
  C   C17       1.0  0.58753  0.90364  0.09684  1.0000
  C   C18       1.0  0.58754  0.09629  0.90318  1.0000
  C   C19       1.0  0.41246  0.09681  0.09629  1.0000
  C   C20       1.0  0.41243  0.9031700000000003  0.90373  1.0000
  C   C21       1.0  0.09639  0.5875800000000002  0.90311  1.0000
  C   C22       1.0  0.90316  0.58749  0.09643  1.0000
  C   C23       1.0  0.09678  0.4124600000000001  0.09637  1.0000
  C   C24       1.0  0.90366  0.41239  0.90317  1.0000
  C   C25       1.0  0.37723  0.62275  0.00782  1.0000
  C   C26       1.0  0.62284  0.3770900000000001  0.00784  1.0000
  C   C27       1.0  0.62281  0.6229200000000003  0.99219  1.0000
  C   C28       1.0  0.3770500000000001  0.37713  0.99224  1.0000
  C   C29       1.0  0.00777  0.3771500000000001  0.62294  1.0000
  C   C30       1.0  0.00778  0.62288  0.37715  1.0000
  C   C31       1.0  0.99215  0.62275  0.62276  1.0000
  C   C32       1.0  0.9921800000000001  0.3771200000000001  0.37714  1.0000
  C   C33       1.0  0.62284  0.00781  0.37725  1.0000
  C   C34       1.0  0.37709  0.00782  0.62298  1.0000
  C   C35       1.0  0.62282  0.9921800000000001  0.62277  1.0000
  C   C36       1.0  0.37707  0.9921800000000001  0.37704  1.0000
  C   C37       1.0  0.8770500000000001  0.12295  0.5078  1.0000
  C   C38       1.0  0.12284000000000002  0.87723  0.50782  1.0000
  C   C39       1.0  0.12281000000000002  0.12272  0.49216000000000004  1.0000
  C   C40       1.0  0.87708  0.87703  0.49218000000000006  1.0000
  C   C41       1.0  0.50777  0.87712  0.12285999999999998  1.0000
  C   C42       1.0  0.5078  0.12283  0.87718  1.0000
  C   C43       1.0  0.4922  0.12282  0.12282999999999998  1.0000
  C   C44       1.0  0.49217  0.87715  0.8772  1.0000
  C   C45       1.0  0.12274000000000002  0.5078  0.8771  1.0000
  C   C46       1.0  0.87703  0.5077800000000002  0.12291999999999999  1.0000
  C   C47       1.0  0.12290000000000001  0.49215000000000003  0.12288999999999999  1.0000
  C   C48       1.0  0.8772600000000003  0.49218000000000006  0.87717  1.0000
  C   C49       1.0  0.37154  0.68543  0.89463  1.0000
  C   C50       1.0  0.62883  0.31391000000000013  0.89495  1.0000
  C   C51       1.0  0.6283700000000001  0.68603  0.10515  1.0000
  C   C52       1.0  0.37184  0.31446  0.10547  1.0000
  C   C53       1.0  0.89452  0.37181  0.6856  1.0000
  C   C54       1.0  0.8948000000000002  0.62835  0.31402  1.0000
  C   C55       1.0  0.10533000000000001  0.62842  0.68544  1.0000
  C   C56       1.0  0.10511  0.37113  0.31392  1.0000
  C   C57       1.0  0.68595  0.89483  0.3716  1.0000
  C   C58       1.0  0.31437  0.89464  0.62856  1.0000
  C   C59       1.0  0.68596  0.10517000000000003  0.6284  1.0000
  C   C60       1.0  0.31436  0.10535  0.37145  1.0000
  C   C61       1.0  0.68609  0.37127  0.89493  1.0000
  C   C62       1.0  0.31405  0.62828  0.89488  1.0000
  C   C63       1.0  0.68554  0.62857  0.10532999999999998  1.0000
  C   C64       1.0  0.31432  0.3716000000000001  0.10542  1.0000
  C   C65       1.0  0.37138  0.8948600000000002  0.68617  1.0000
  C   C66       1.0  0.62836  0.8946200000000002  0.31459  1.0000
  C   C67       1.0  0.62835  0.10538  0.68542  1.0000
  C   C68       1.0  0.37138  0.10513000000000003  0.31382  1.0000
  C   C69       1.0  0.8946200000000002  0.6856000000000002  0.37137  1.0000
  C   C70       1.0  0.89459  0.3144  0.62838  1.0000
  C   C71       1.0  0.10512  0.68594  0.62831  1.0000
  C   C72       1.0  0.1051  0.31388  0.3713  1.0000
  C   C73       1.0  0.8713500000000002  0.18615  0.39485  1.0000
  C   C74       1.0  0.12835  0.81459  0.39462  1.0000
  C   C75       1.0  0.12855  0.18584  0.60511  1.0000
  C   C76       1.0  0.87138  0.8138300000000003  0.60514  1.0000
  C   C77       1.0  0.39459  0.87154  0.18561  1.0000
  C   C78       1.0  0.39466  0.12867  0.81445  1.0000
  C   C79       1.0  0.60516  0.12829  0.18601  1.0000
  C   C80       1.0  0.60515  0.8716800000000002  0.81401  1.0000
  C   C81       1.0  0.18543000000000004  0.39459  0.87183  1.0000
  C   C82       1.0  0.81383  0.3948200000000001  0.12863  1.0000
  C   C83       1.0  0.18611  0.60508  0.12881  1.0000
  C   C84       1.0  0.81411  0.60515  0.8716399999999999  1.0000
  C   C85       1.0  0.18597  0.8716100000000002  0.39483  1.0000
  C   C86       1.0  0.8143300000000002  0.12852  0.39464  1.0000
  C   C87       1.0  0.1859  0.12861  0.60512  1.0000
  C   C88       1.0  0.81435  0.87145  0.60536  1.0000
  C   C89       1.0  0.8714200000000002  0.39459  0.18565  1.0000
  C   C90       1.0  0.12816  0.39462  0.81446  1.0000
  C   C91       1.0  0.12875  0.6050600000000003  0.18608  1.0000
  C   C92       1.0  0.8716100000000002  0.60539  0.81449  1.0000
  C   C93       1.0  0.39484  0.18601  0.8716999999999999  1.0000
  C   C94       1.0  0.3945400000000001  0.81443  0.1281  1.0000
  C   C95       1.0  0.60535  0.18558  0.12865  1.0000
  C   C96       1.0  0.60532  0.8144  0.87139  1.0000
  N   N1        1.0  0.41128  0.6821  0.9662100000000001  1.0000
  N   N2        1.0  0.58906  0.31743  0.96653  1.0000
  N   N3        1.0  0.58889  0.6825600000000002  0.03347  1.0000
  N   N4        1.0  0.41129  0.31784  0.03372  1.0000
  N   N5        1.0  0.9662500000000002  0.41127  0.68231  1.0000
  N   N6        1.0  0.96652  0.58885  0.3176  1.0000
  N   N7        1.0  0.03373  0.58867  0.68209  1.0000
  N   N8        1.0  0.033530000000000004  0.41089  0.31745  1.0000
  N   N9        1.0  0.68254  0.9665300000000001  0.41107  1.0000
  N   N10       1.0  0.31781  0.9663  0.58885  1.0000
  N   N11       1.0  0.68255  0.03347  0.58893  1.0000
  N   N12       1.0  0.3178  0.0337  0.41118  1.0000
  N   N13       1.0  0.68243  0.41102  0.9665200000000002  1.0000
  N   N14       1.0  0.31761  0.58877  0.9666099999999999  1.0000
  N   N15       1.0  0.68217  0.5888800000000002  0.03368  1.0000
  N   N16       1.0  0.31748  0.41100000000000003  0.03363  1.0000
  N   N17       1.0  0.41083  0.9666100000000001  0.68276  1.0000
  N   N18       1.0  0.58863  0.9662500000000002  0.3180299999999999  1.0000
  N   N19       1.0  0.58861  0.03374  0.68199  1.0000
  N   N20       1.0  0.41083  0.0334  0.31724  1.0000
  N   N21       1.0  0.9662600000000001  0.6823200000000003  0.41106  1.0000
  N   N22       1.0  0.96639  0.31768  0.58895  1.0000
  N   N23       1.0  0.03341  0.6824  0.5888  1.0000
  N   N24       1.0  0.03348  0.31755  0.41108  1.0000
  N   N25       1.0  0.91079  0.18276  0.46657  1.0000
  N   N26       1.0  0.08861  0.81802  0.46625  1.0000
  N   N27       1.0  0.08879000000000001  0.18221  0.53352  1.0000
  N   N28       1.0  0.9108300000000003  0.8172400000000002  0.5334  1.0000
  N   N29       1.0  0.4663700000000001  0.91096  0.18244  1.0000
  N   N30       1.0  0.46629  0.08895  0.81773  1.0000
  N   N31       1.0  0.53345  0.08877000000000003  0.1824  1.0000
  N   N32       1.0  0.53345  0.91119  0.81761  1.0000
  N   N33       1.0  0.18210000000000007  0.46635  0.91126  1.0000
  N   N34       1.0  0.81725  0.46657  0.08916999999999999  1.0000
  N   N35       1.0  0.18257  0.5335  0.08908  1.0000
  N   N36       1.0  0.81763  0.53341  0.91113  1.0000
  N   N37       1.0  0.18257  0.91106  0.46653  1.0000
  N   N38       1.0  0.8177800000000002  0.08880000000000002  0.46629  1.0000
  N   N39       1.0  0.18239  0.08885  0.53356  1.0000
  N   N40       1.0  0.8177900000000002  0.91115  0.5337  1.0000
  N   N41       1.0  0.91113  0.4662500000000001  0.18220999999999998  1.0000
  N   N42       1.0  0.08871000000000001  0.46635  0.8176599999999999  1.0000
  N   N43       1.0  0.08899  0.5334500000000002  0.18246  1.0000
  N   N44       1.0  0.9113300000000001  0.53379  0.81783  1.0000
  N   N45       1.0  0.46654  0.1824  0.9112099999999999  1.0000
  N   N46       1.0  0.46629  0.81784  0.08862  1.0000
  N   N47       1.0  0.53374  0.18231  0.08894  1.0000
  N   N48       1.0  0.53369  0.81769  0.91111  1.0000
