data_image0
_chemical_formula_structural       La8H200C224N16O64
_chemical_formula_sum              "La8 H200 C224 N16 O64"
_cell_length_a       32.41138435
_cell_length_b       9.097202
_cell_length_c       34.33301549
_cell_angle_alpha    90.0
_cell_angle_beta     116.5689182
_cell_angle_gamma    90.0

_space_group_name_H-M_alt    "P 1"
_space_group_IT_number       1

loop_
  _space_group_symop_operation_xyz
  'x, y, z'

loop_
  _atom_site_type_symbol
  _atom_site_label
  _atom_site_symmetry_multiplicity
  _atom_site_fract_x
  _atom_site_fract_y
  _atom_site_fract_z
  _atom_site_occupancy
  La  La1       1.0  0.9969791899999999  0.62907889  0.12099183  1.0000
  La  La2       1.0  0.49697919  0.12907889  0.12099183  1.0000
  La  La3       1.0  0.00302081  0.62907889  0.37900817  1.0000
  La  La4       1.0  0.50302081  0.12907889  0.37900817  1.0000
  La  La5       1.0  0.0030208099999999728  0.3709211099999999  0.87900817  1.0000
  La  La6       1.0  0.50302081  0.8709211099999999  0.87900817  1.0000
  La  La7       1.0  0.9969791899999999  0.3709211099999999  0.62099183  1.0000
  La  La8       1.0  0.49697919  0.8709211099999999  0.62099183  1.0000
  H   H1        1.0  0.36969484  0.7483598299999997  0.56962108  1.0000
  H   H2        1.0  0.19475230000000004  0.11141971  0.3294363000000001  1.0000
  H   H3        1.0  0.29729581  0.59331905  0.38514193  1.0000
  H   H4        1.0  0.34455803  0.59203705  0.33496043  1.0000
  H   H5        1.0  0.2993624200000001  0.7183183999999998  0.3084294200000001  1.0000
  H   H6        1.0  0.14754334  0.17951733  0.23680494000000002  1.0000
  H   H7        1.0  0.19281591  0.05245628999999999  0.24996038  1.0000
  H   H8        1.0  0.13874673  0.54041282  0.27077249  1.0000
  H   H9        1.0  0.12791479  0.35014555  0.26497425  1.0000
  H   H10       1.0  0.12975761  0.45217907999999996  0.22191596000000005  1.0000
  H   H11       1.0  0.23733085  0.76564462  0.29520457  1.0000
  H   H12       1.0  0.19710861  0.7017279699999999  0.31278447  1.0000
  H   H13       1.0  0.18218072  0.70536814  0.25671719  1.0000
  H   H14       1.0  0.36251816  0.33390308  0.3230468700000001  1.0000
  H   H15       1.0  0.35102872  0.21122304  0.3567631300000001  1.0000
  H   H16       1.0  0.36128352  0.39792216  0.37108345000000004  1.0000
  H   H17       1.0  0.25283318  0.9987762699999999  0.29247956  1.0000
  H   H18       1.0  0.29522504  0.05188686999999999  0.34458889  1.0000
  H   H19       1.0  0.30690290000000003  0.06298245999999998  0.29920883000000004  1.0000
  H   H20       1.0  0.11135732  0.9608863599999999  0.22318502  1.0000
  H   H21       1.0  0.050902850000000006  0.66580658  0.28122093  1.0000
  H   H22       1.0  0.1591961  0.9611489  0.36298964  1.0000
  H   H23       1.0  0.44426955  0.00311375  0.48595067  1.0000
  H   H24       1.0  0.33324654  0.69535139  0.45646019  1.0000
  H   H25       1.0  0.37091749  0.83229815  0.3558887500000001  1.0000
  H   H26       1.0  0.8696948400000003  0.24835983  0.56962108  1.0000
  H   H27       1.0  0.6947523000000001  0.61141971  0.3294363000000001  1.0000
  H   H28       1.0  0.79729581  0.09331905  0.38514193  1.0000
  H   H29       1.0  0.84455803  0.09203705  0.33496043  1.0000
  H   H30       1.0  0.7993624200000001  0.2183184  0.3084294200000001  1.0000
  H   H31       1.0  0.6475433400000001  0.67951733  0.23680494000000002  1.0000
  H   H32       1.0  0.69281591  0.55245629  0.24996038  1.0000
  H   H33       1.0  0.63874673  0.04041282  0.27077249  1.0000
  H   H34       1.0  0.62791479  0.85014555  0.26497425  1.0000
  H   H35       1.0  0.6297576100000001  0.95217908  0.22191596000000005  1.0000
  H   H36       1.0  0.7373308500000001  0.26564462  0.29520457  1.0000
  H   H37       1.0  0.69710861  0.20172797  0.31278447  1.0000
  H   H38       1.0  0.68218072  0.20536813999999998  0.25671719  1.0000
  H   H39       1.0  0.86251816  0.83390308  0.3230468700000001  1.0000
  H   H40       1.0  0.85102872  0.71122304  0.3567631300000001  1.0000
  H   H41       1.0  0.8612835200000001  0.89792216  0.37108345000000004  1.0000
  H   H42       1.0  0.75283318  0.49877627  0.29247956  1.0000
  H   H43       1.0  0.79522504  0.55188687  0.34458889  1.0000
  H   H44       1.0  0.8069029  0.56298246  0.29920883000000004  1.0000
  H   H45       1.0  0.61135732  0.46088635999999994  0.22318502  1.0000
  H   H46       1.0  0.55090285  0.16580657999999998  0.28122093  1.0000
  H   H47       1.0  0.6591961  0.4611488999999999  0.36298964  1.0000
  H   H48       1.0  0.94426955  0.50311375  0.48595067  1.0000
  H   H49       1.0  0.83324654  0.19535138999999996  0.45646019  1.0000
  H   H50       1.0  0.8709174900000001  0.33229815  0.3558887500000001  1.0000
  H   H51       1.0  0.63030516  0.7483598299999997  0.93037892  1.0000
  H   H52       1.0  0.8052477  0.11141971  0.17056370000000007  1.0000
  H   H53       1.0  0.7027041900000001  0.59331905  0.11485807  1.0000
  H   H54       1.0  0.65544197  0.59203705  0.16503957  1.0000
  H   H55       1.0  0.70063758  0.7183183999999998  0.19157058  1.0000
  H   H56       1.0  0.85245666  0.17951733  0.26319506  1.0000
  H   H57       1.0  0.80718409  0.05245628999999999  0.25003962  1.0000
  H   H58       1.0  0.86125327  0.54041282  0.22922751  1.0000
  H   H59       1.0  0.87208521  0.35014555  0.23502575  1.0000
  H   H60       1.0  0.87024239  0.45217907999999996  0.27808404  1.0000
  H   H61       1.0  0.76266915  0.76564462  0.20479543  1.0000
  H   H62       1.0  0.8028913899999999  0.7017279699999999  0.18721553  1.0000
  H   H63       1.0  0.81781928  0.70536814  0.24328281  1.0000
  H   H64       1.0  0.63748184  0.33390308  0.17695313  1.0000
  H   H65       1.0  0.64897128  0.21122304  0.14323687  1.0000
  H   H66       1.0  0.63871648  0.39792216  0.12891655  1.0000
  H   H67       1.0  0.74716682  0.9987762699999999  0.20752044000000003  1.0000
  H   H68       1.0  0.70477496  0.05188686999999999  0.15541111  1.0000
  H   H69       1.0  0.6930971000000001  0.06298245999999998  0.20079117  1.0000
  H   H70       1.0  0.8886426800000001  0.9608863599999999  0.27681498000000004  1.0000
  H   H71       1.0  0.94909715  0.66580658  0.21877907  1.0000
  H   H72       1.0  0.8408039  0.9611489  0.13701036  1.0000
  H   H73       1.0  0.55573045  0.00311375  0.014049330000000004  1.0000
  H   H74       1.0  0.66675346  0.69535139  0.04353981  1.0000
  H   H75       1.0  0.62908251  0.83229815  0.14411125  1.0000
  H   H76       1.0  0.13030515999999998  0.24835983  0.93037892  1.0000
  H   H77       1.0  0.30524770000000007  0.61141971  0.17056370000000007  1.0000
  H   H78       1.0  0.20270419  0.09331905  0.11485807  1.0000
  H   H79       1.0  0.15544197  0.09203705  0.16503957  1.0000
  H   H80       1.0  0.20063758  0.2183184  0.19157058  1.0000
  H   H81       1.0  0.35245666  0.67951733  0.26319506  1.0000
  H   H82       1.0  0.30718409  0.55245629  0.25003962  1.0000
  H   H83       1.0  0.36125327  0.04041282  0.22922751  1.0000
  H   H84       1.0  0.37208521  0.85014555  0.23502575  1.0000
  H   H85       1.0  0.37024239  0.95217908  0.27808404  1.0000
  H   H86       1.0  0.26266915  0.26564462  0.20479543  1.0000
  H   H87       1.0  0.30289139  0.20172797  0.18721553  1.0000
  H   H88       1.0  0.31781928  0.20536813999999998  0.24328281  1.0000
  H   H89       1.0  0.13748184  0.83390308  0.17695313  1.0000
  H   H90       1.0  0.14897128  0.71122304  0.14323687  1.0000
  H   H91       1.0  0.13871648  0.89792216  0.12891655  1.0000
  H   H92       1.0  0.2471668200000001  0.49877627  0.20752044000000003  1.0000
  H   H93       1.0  0.20477496  0.55188687  0.15541111  1.0000
  H   H94       1.0  0.1930971  0.56298246  0.20079117  1.0000
  H   H95       1.0  0.3886426800000001  0.46088635999999994  0.27681498000000004  1.0000
  H   H96       1.0  0.44909715  0.16580657999999998  0.21877907  1.0000
  H   H97       1.0  0.34080389999999994  0.4611488999999999  0.13701036  1.0000
  H   H98       1.0  0.05573045  0.50311375  0.014049330000000004  1.0000
  H   H99       1.0  0.16675346000000002  0.19535138999999996  0.04353981  1.0000
  H   H100      1.0  0.12908251  0.33229815  0.14411125  1.0000
  H   H101      1.0  0.63030516  0.25164017  0.43037892000000005  1.0000
  H   H102      1.0  0.8052477  0.88858029  0.6705637000000002  1.0000
  H   H103      1.0  0.7027041900000001  0.40668095  0.61485807  1.0000
  H   H104      1.0  0.65544197  0.40796294999999994  0.66503957  1.0000
  H   H105      1.0  0.70063758  0.2816816  0.69157058  1.0000
  H   H106      1.0  0.85245666  0.82048267  0.76319506  1.0000
  H   H107      1.0  0.80718409  0.9475437099999999  0.75003962  1.0000
  H   H108      1.0  0.8612532700000001  0.45958718  0.72922751  1.0000
  H   H109      1.0  0.87208521  0.6498544499999998  0.73502575  1.0000
  H   H110      1.0  0.87024239  0.5478209199999998  0.77808404  1.0000
  H   H111      1.0  0.76266915  0.23435537999999997  0.70479543  1.0000
  H   H112      1.0  0.80289139  0.29827202999999997  0.68721553  1.0000
  H   H113      1.0  0.81781928  0.29463186  0.74328281  1.0000
  H   H114      1.0  0.63748184  0.6660969199999999  0.67695313  1.0000
  H   H115      1.0  0.64897128  0.78877696  0.64323687  1.0000
  H   H116      1.0  0.63871648  0.60207784  0.62891655  1.0000
  H   H117      1.0  0.74716682  0.00122373  0.7075204400000003  1.0000
  H   H118      1.0  0.70477496  0.9481131299999997  0.65541111  1.0000
  H   H119      1.0  0.6930971000000001  0.93701754  0.70079117  1.0000
  H   H120      1.0  0.8886426800000001  0.03911364  0.77681498  1.0000
  H   H121      1.0  0.94909715  0.3341934199999999  0.71877907  1.0000
  H   H122      1.0  0.8408039000000002  0.0388511  0.6370103600000001  1.0000
  H   H123      1.0  0.55573045  0.99688625  0.51404933  1.0000
  H   H124      1.0  0.66675346  0.30464861  0.54353981  1.0000
  H   H125      1.0  0.62908251  0.16770185  0.64411125  1.0000
  H   H126      1.0  0.13030516000000003  0.75164017  0.43037892000000005  1.0000
  H   H127      1.0  0.3052477000000001  0.38858029  0.6705637000000002  1.0000
  H   H128      1.0  0.20270419  0.90668095  0.61485807  1.0000
  H   H129      1.0  0.15544197  0.90796295  0.66503957  1.0000
  H   H130      1.0  0.20063757999999995  0.7816816  0.69157058  1.0000
  H   H131      1.0  0.35245666  0.32048267  0.76319506  1.0000
  H   H132      1.0  0.30718409  0.44754371  0.75003962  1.0000
  H   H133      1.0  0.36125327  0.95958718  0.72922751  1.0000
  H   H134      1.0  0.37208521  0.14985445  0.73502575  1.0000
  H   H135      1.0  0.37024239  0.04782092  0.77808404  1.0000
  H   H136      1.0  0.26266915  0.73435538  0.70479543  1.0000
  H   H137      1.0  0.30289139  0.79827203  0.68721553  1.0000
  H   H138      1.0  0.31781928  0.79463186  0.74328281  1.0000
  H   H139      1.0  0.13748184  0.16609692  0.67695313  1.0000
  H   H140      1.0  0.14897128000000007  0.28877696  0.64323687  1.0000
  H   H141      1.0  0.13871648000000006  0.10207783999999998  0.62891655  1.0000
  H   H142      1.0  0.24716682000000015  0.50122373  0.7075204400000003  1.0000
  H   H143      1.0  0.20477496  0.44811313  0.65541111  1.0000
  H   H144      1.0  0.1930971  0.43701754  0.70079117  1.0000
  H   H145      1.0  0.38864268  0.5391136399999998  0.77681498  1.0000
  H   H146      1.0  0.44909715  0.83419342  0.71877907  1.0000
  H   H147      1.0  0.34080390000000005  0.5388511  0.6370103600000001  1.0000
  H   H148      1.0  0.055730450000000015  0.49688625  0.51404933  1.0000
  H   H149      1.0  0.16675346  0.80464861  0.54353981  1.0000
  H   H150      1.0  0.12908251  0.6677018499999999  0.64411125  1.0000
  H   H151      1.0  0.36969484  0.25164017  0.06962108  1.0000
  H   H152      1.0  0.1947523  0.88858029  0.8294363  1.0000
  H   H153      1.0  0.29729581  0.40668095  0.88514193  1.0000
  H   H154      1.0  0.34455803  0.40796294999999994  0.83496043  1.0000
  H   H155      1.0  0.2993624200000001  0.2816816  0.80842942  1.0000
  H   H156      1.0  0.1475433400000001  0.82048267  0.7368049400000002  1.0000
  H   H157      1.0  0.19281591000000006  0.9475437099999999  0.7499603800000002  1.0000
  H   H158      1.0  0.13874673  0.45958718  0.77077249  1.0000
  H   H159      1.0  0.12791479  0.6498544499999998  0.76497425  1.0000
  H   H160      1.0  0.12975761  0.5478209199999998  0.72191596  1.0000
  H   H161      1.0  0.23733085  0.23435537999999997  0.79520457  1.0000
  H   H162      1.0  0.19710861000000016  0.29827202999999997  0.8127844700000002  1.0000
  H   H163      1.0  0.1821807200000001  0.29463186  0.7567171900000003  1.0000
  H   H164      1.0  0.36251816  0.6660969199999999  0.82304687  1.0000
  H   H165      1.0  0.35102872  0.78877696  0.85676313  1.0000
  H   H166      1.0  0.36128352  0.60207784  0.87108345  1.0000
  H   H167      1.0  0.25283318  0.00122373  0.79247956  1.0000
  H   H168      1.0  0.29522504  0.9481131299999997  0.84458889  1.0000
  H   H169      1.0  0.3069029  0.93701754  0.79920883  1.0000
  H   H170      1.0  0.11135731999999998  0.03911364  0.72318502  1.0000
  H   H171      1.0  0.05090284999999998  0.3341934199999999  0.78122093  1.0000
  H   H172      1.0  0.15919609999999998  0.0388511  0.86298964  1.0000
  H   H173      1.0  0.44426955  0.99688625  0.98595067  1.0000
  H   H174      1.0  0.33324654  0.30464861  0.95646019  1.0000
  H   H175      1.0  0.37091749  0.16770185  0.85588875  1.0000
  H   H176      1.0  0.8696948400000002  0.75164017  0.06962108  1.0000
  H   H177      1.0  0.6947523  0.38858029  0.8294363  1.0000
  H   H178      1.0  0.79729581  0.90668095  0.88514193  1.0000
  H   H179      1.0  0.84455803  0.90796295  0.83496043  1.0000
  H   H180      1.0  0.79936242  0.7816816  0.80842942  1.0000
  H   H181      1.0  0.6475433400000001  0.32048267  0.7368049400000002  1.0000
  H   H182      1.0  0.6928159100000001  0.44754371  0.7499603800000002  1.0000
  H   H183      1.0  0.63874673  0.95958718  0.77077249  1.0000
  H   H184      1.0  0.62791479  0.14985445  0.76497425  1.0000
  H   H185      1.0  0.62975761  0.04782092  0.72191596  1.0000
  H   H186      1.0  0.73733085  0.73435538  0.79520457  1.0000
  H   H187      1.0  0.69710861  0.79827203  0.8127844700000002  1.0000
  H   H188      1.0  0.6821807200000001  0.79463186  0.7567171900000003  1.0000
  H   H189      1.0  0.86251816  0.16609692  0.82304687  1.0000
  H   H190      1.0  0.85102872  0.28877696  0.85676313  1.0000
  H   H191      1.0  0.8612835200000001  0.10207783999999998  0.87108345  1.0000
  H   H192      1.0  0.75283318  0.50122373  0.79247956  1.0000
  H   H193      1.0  0.79522504  0.44811313  0.84458889  1.0000
  H   H194      1.0  0.8069029  0.43701754  0.79920883  1.0000
  H   H195      1.0  0.61135732  0.5391136399999998  0.72318502  1.0000
  H   H196      1.0  0.55090285  0.83419342  0.78122093  1.0000
  H   H197      1.0  0.6591961  0.5388511  0.86298964  1.0000
  H   H198      1.0  0.94426955  0.49688625  0.98595067  1.0000
  H   H199      1.0  0.83324654  0.80464861  0.95646019  1.0000
  H   H200      1.0  0.87091749  0.6677018499999999  0.85588875  1.0000
  C   C1        1.0  0.30996836  0.62360514  0.33080996  1.0000
  C   C2        1.0  0.27636986  0.49826792999999997  0.31215954  1.0000
  C   C3        1.0  0.22866005  0.52825889  0.29226937  1.0000
  C   C4        1.0  0.19725873  0.4105052899999999  0.27666473  1.0000
  C   C5        1.0  0.21418603  0.26583972  0.28029667  1.0000
  C   C6        1.0  0.2618484  0.23528336  0.3018959  1.0000
  C   C7        1.0  0.29325882  0.35307001  0.31838699  1.0000
  C   C8        1.0  0.17998760000000003  0.14107554  0.26362768  1.0000
  C   C9        1.0  0.14607431  0.4394442299999999  0.25763299  1.0000
  C   C10       1.0  0.2106675  0.68286633  0.28895368  1.0000
  C   C11       1.0  0.34433795  0.32277002999999993  0.34342494  1.0000
  C   C12       1.0  0.27982005000000004  0.07965178  0.3096856300000001  1.0000
  C   C13       1.0  0.14001054  0.97705447  0.29385517  1.0000
  C   C14       1.0  0.11036797  0.92004265  0.2525401  1.0000
  C   C15       1.0  0.07929382  0.8074696699999999  0.24846215  1.0000
  C   C16       1.0  0.07563558000000005  0.75194233  0.2847304000000001  1.0000
  C   C17       1.0  0.10466174  0.8102601099999998  0.32576193  1.0000
  C   C18       1.0  0.13686083000000004  0.9193877  0.3305078300000001  1.0000
  C   C19       1.0  0.05059456  0.74338133  0.20467410000000003  1.0000
  C   C20       1.0  0.43944545000000007  0.00687542  0.40430883000000006  1.0000
  C   C21       1.0  0.40917404  0.9268870599999999  0.41920955  1.0000
  C   C22       1.0  0.41668426  0.9352840999999998  0.4625245  1.0000
  C   C23       1.0  0.38898783  0.8491281299999998  0.47539716  1.0000
  C   C24       1.0  0.35393665  0.76139585  0.44526826  1.0000
  C   C25       1.0  0.34618756  0.7537491899999998  0.40159538  1.0000
  C   C26       1.0  0.37477956  0.83665509  0.38901191  1.0000
  C   C27       1.0  0.39722544  0.84172996  0.5218555800000002  1.0000
  C   C28       1.0  0.10099347000000003  0.75695262  0.36489278  1.0000
  C   C29       1.0  0.80996836  0.12360513999999999  0.33080996  1.0000
  C   C30       1.0  0.77636986  0.99826793  0.31215954  1.0000
  C   C31       1.0  0.72866005  0.028258889999999995  0.29226937  1.0000
  C   C32       1.0  0.69725873  0.9105052899999999  0.27666473  1.0000
  C   C33       1.0  0.71418603  0.7658397199999998  0.28029667  1.0000
  C   C34       1.0  0.7618484  0.73528336  0.3018959  1.0000
  C   C35       1.0  0.7932588199999999  0.85307001  0.31838699  1.0000
  C   C36       1.0  0.6799876  0.64107554  0.26362768  1.0000
  C   C37       1.0  0.64607431  0.9394442299999999  0.25763299  1.0000
  C   C38       1.0  0.7106675  0.18286632999999994  0.28895368  1.0000
  C   C39       1.0  0.84433795  0.8227700299999999  0.34342494  1.0000
  C   C40       1.0  0.7798200500000001  0.57965178  0.3096856300000001  1.0000
  C   C41       1.0  0.6400105400000001  0.47705446999999995  0.29385517  1.0000
  C   C42       1.0  0.61036797  0.4200426499999999  0.2525401  1.0000
  C   C43       1.0  0.57929382  0.30746967  0.24846215  1.0000
  C   C44       1.0  0.5756355800000001  0.25194233  0.2847304000000001  1.0000
  C   C45       1.0  0.60466174  0.31026011  0.32576193  1.0000
  C   C46       1.0  0.6368608300000002  0.4193877  0.3305078300000001  1.0000
  C   C47       1.0  0.55059456  0.24338133  0.20467410000000003  1.0000
  C   C48       1.0  0.93944545  0.50687542  0.40430883000000006  1.0000
  C   C49       1.0  0.90917404  0.42688706  0.41920955  1.0000
  C   C50       1.0  0.91668426  0.4352840999999999  0.4625245  1.0000
  C   C51       1.0  0.88898783  0.34912813  0.47539716  1.0000
  C   C52       1.0  0.85393665  0.26139585  0.44526826  1.0000
  C   C53       1.0  0.84618756  0.25374919  0.40159538  1.0000
  C   C54       1.0  0.87477956  0.33665509  0.38901191  1.0000
  C   C55       1.0  0.8972254400000002  0.34172996  0.5218555800000002  1.0000
  C   C56       1.0  0.60099347  0.25695262  0.36489278  1.0000
  C   C57       1.0  0.6900316399999998  0.62360514  0.16919004  1.0000
  C   C58       1.0  0.72363014  0.49826792999999997  0.18784046  1.0000
  C   C59       1.0  0.77133995  0.52825889  0.20773063000000005  1.0000
  C   C60       1.0  0.80274127  0.4105052899999999  0.22333527  1.0000
  C   C61       1.0  0.78581397  0.26583972  0.21970333  1.0000
  C   C62       1.0  0.7381516  0.23528336  0.1981041  1.0000
  C   C63       1.0  0.70674118  0.35307001  0.18161301  1.0000
  C   C64       1.0  0.8200124  0.14107554  0.23637232  1.0000
  C   C65       1.0  0.85392569  0.4394442299999999  0.24236701  1.0000
  C   C66       1.0  0.7893325000000001  0.68286633  0.21104632  1.0000
  C   C67       1.0  0.65566205  0.32277002999999993  0.15657506000000004  1.0000
  C   C68       1.0  0.7201799500000002  0.07965178  0.19031437  1.0000
  C   C69       1.0  0.85998946  0.97705447  0.20614483  1.0000
  C   C70       1.0  0.88963203  0.92004265  0.2474599  1.0000
  C   C71       1.0  0.9207061799999999  0.8074696699999999  0.25153785  1.0000
  C   C72       1.0  0.92436442  0.75194233  0.2152696  1.0000
  C   C73       1.0  0.89533826  0.8102601099999998  0.17423807  1.0000
  C   C74       1.0  0.86313917  0.9193877  0.16949217000000005  1.0000
  C   C75       1.0  0.94940544  0.74338133  0.2953259  1.0000
  C   C76       1.0  0.56055455  0.00687542  0.09569117  1.0000
  C   C77       1.0  0.59082596  0.9268870599999999  0.08079045  1.0000
  C   C78       1.0  0.58331574  0.9352840999999998  0.0374755  1.0000
  C   C79       1.0  0.61101217  0.8491281299999998  0.024602840000000008  1.0000
  C   C80       1.0  0.64606335  0.76139585  0.05473174  1.0000
  C   C81       1.0  0.65381244  0.7537491899999998  0.09840462000000003  1.0000
  C   C82       1.0  0.62522044  0.83665509  0.11098809  1.0000
  C   C83       1.0  0.60277456  0.84172996  0.97814442  1.0000
  C   C84       1.0  0.89900653  0.75695262  0.13510722  1.0000
  C   C85       1.0  0.19003164  0.12360513999999999  0.16919004  1.0000
  C   C86       1.0  0.22363014000000006  0.99826793  0.18784046  1.0000
  C   C87       1.0  0.27133995  0.028258889999999995  0.20773063000000005  1.0000
  C   C88       1.0  0.30274127000000006  0.9105052899999999  0.22333527  1.0000
  C   C89       1.0  0.28581397  0.7658397199999998  0.21970333  1.0000
  C   C90       1.0  0.2381516  0.73528336  0.1981041  1.0000
  C   C91       1.0  0.20674118  0.85307001  0.18161301  1.0000
  C   C92       1.0  0.3200124  0.64107554  0.23637232  1.0000
  C   C93       1.0  0.35392569  0.9394442299999999  0.24236701  1.0000
  C   C94       1.0  0.2893325000000001  0.18286632999999994  0.21104632  1.0000
  C   C95       1.0  0.15566205000000008  0.8227700299999999  0.15657506000000004  1.0000
  C   C96       1.0  0.22017995  0.57965178  0.19031437  1.0000
  C   C97       1.0  0.35998946  0.47705446999999995  0.20614483  1.0000
  C   C98       1.0  0.38963203  0.4200426499999999  0.2474599  1.0000
  C   C99       1.0  0.42070618  0.30746967  0.25153785  1.0000
  C   C100      1.0  0.42436442  0.25194233  0.2152696  1.0000
  C   C101      1.0  0.3953382600000001  0.31026011  0.17423807  1.0000
  C   C102      1.0  0.36313917  0.4193877  0.16949217000000005  1.0000
  C   C103      1.0  0.44940544  0.24338133  0.2953259  1.0000
  C   C104      1.0  0.06055455  0.50687542  0.09569117  1.0000
  C   C105      1.0  0.09082596  0.42688706  0.08079045  1.0000
  C   C106      1.0  0.08331574  0.4352840999999999  0.0374755  1.0000
  C   C107      1.0  0.11101217  0.34912813  0.024602840000000008  1.0000
  C   C108      1.0  0.14606335  0.26139585  0.05473174  1.0000
  C   C109      1.0  0.15381244000000002  0.25374919  0.09840462000000003  1.0000
  C   C110      1.0  0.12522044  0.33665509  0.11098809  1.0000
  C   C111      1.0  0.10277455999999997  0.34172996  0.97814442  1.0000
  C   C112      1.0  0.39900653  0.25695262  0.13510722  1.0000
  C   C113      1.0  0.6900316400000001  0.37639486  0.6691900400000003  1.0000
  C   C114      1.0  0.72363014  0.50173207  0.68784046  1.0000
  C   C115      1.0  0.77133995  0.47174110999999996  0.70773063  1.0000
  C   C116      1.0  0.80274127  0.5894947099999999  0.72333527  1.0000
  C   C117      1.0  0.7858139700000001  0.73416028  0.7197033300000001  1.0000
  C   C118      1.0  0.7381516  0.76471664  0.6981041  1.0000
  C   C119      1.0  0.70674118  0.64692999  0.68161301  1.0000
  C   C120      1.0  0.8200124  0.85892446  0.73637232  1.0000
  C   C121      1.0  0.8539256900000001  0.56055577  0.74236701  1.0000
  C   C122      1.0  0.7893325  0.31713367  0.71104632  1.0000
  C   C123      1.0  0.65566205  0.67722997  0.65657506  1.0000
  C   C124      1.0  0.7201799500000002  0.9203482199999999  0.69031437  1.0000
  C   C125      1.0  0.85998946  0.02294553  0.70614483  1.0000
  C   C126      1.0  0.88963203  0.07995734999999998  0.7474599  1.0000
  C   C127      1.0  0.9207061800000002  0.19253032999999994  0.75153785  1.0000
  C   C128      1.0  0.92436442  0.24805766999999998  0.7152696  1.0000
  C   C129      1.0  0.89533826  0.18973988999999997  0.67423807  1.0000
  C   C130      1.0  0.86313917  0.0806123  0.6694921700000003  1.0000
  C   C131      1.0  0.9494054400000003  0.25661867  0.7953259000000003  1.0000
  C   C132      1.0  0.56055455  0.9931245799999999  0.59569117  1.0000
  C   C133      1.0  0.59082596  0.07311293999999999  0.58079045  1.0000
  C   C134      1.0  0.58331574  0.0647159  0.5374755  1.0000
  C   C135      1.0  0.61101217  0.15087187  0.52460284  1.0000
  C   C136      1.0  0.64606335  0.23860414999999996  0.55473174  1.0000
  C   C137      1.0  0.65381244  0.24625080999999996  0.59840462  1.0000
  C   C138      1.0  0.62522044  0.16334490999999998  0.61098809  1.0000
  C   C139      1.0  0.60277456  0.15827004  0.4781444200000001  1.0000
  C   C140      1.0  0.8990065300000001  0.24304738  0.6351072200000002  1.0000
  C   C141      1.0  0.19003164000000008  0.87639486  0.6691900400000003  1.0000
  C   C142      1.0  0.2236301400000001  0.00173207  0.68784046  1.0000
  C   C143      1.0  0.27133995000000005  0.9717411099999999  0.70773063  1.0000
  C   C144      1.0  0.30274127000000006  0.08949471  0.72333527  1.0000
  C   C145      1.0  0.28581397000000003  0.23416027999999997  0.7197033300000001  1.0000
  C   C146      1.0  0.2381516  0.26471663999999995  0.6981041  1.0000
  C   C147      1.0  0.20674117999999997  0.14692999  0.68161301  1.0000
  C   C148      1.0  0.3200124  0.35892446  0.73637232  1.0000
  C   C149      1.0  0.35392569  0.06055577  0.74236701  1.0000
  C   C150      1.0  0.2893325000000001  0.8171336699999999  0.71104632  1.0000
  C   C151      1.0  0.15566205000000005  0.17722996999999996  0.65657506  1.0000
  C   C152      1.0  0.22017995000000007  0.42034822  0.69031437  1.0000
  C   C153      1.0  0.35998946  0.52294553  0.70614483  1.0000
  C   C154      1.0  0.38963203  0.5799573499999999  0.7474599  1.0000
  C   C155      1.0  0.42070618  0.69253033  0.75153785  1.0000
  C   C156      1.0  0.42436442  0.7480576699999999  0.7152696  1.0000
  C   C157      1.0  0.39533826  0.68973989  0.67423807  1.0000
  C   C158      1.0  0.3631391700000001  0.5806123  0.6694921700000003  1.0000
  C   C159      1.0  0.4494054400000002  0.7566186699999999  0.7953259000000003  1.0000
  C   C160      1.0  0.06055454999999999  0.49312458  0.59569117  1.0000
  C   C161      1.0  0.09082596000000001  0.57311294  0.58079045  1.0000
  C   C162      1.0  0.08331573999999994  0.5647158999999999  0.5374755  1.0000
  C   C163      1.0  0.11101217000000005  0.65087187  0.52460284  1.0000
  C   C164      1.0  0.14606335000000006  0.73860415  0.55473174  1.0000
  C   C165      1.0  0.15381244000000005  0.74625081  0.59840462  1.0000
  C   C166      1.0  0.12522043999999993  0.66334491  0.61098809  1.0000
  C   C167      1.0  0.10277456000000006  0.65827004  0.4781444200000001  1.0000
  C   C168      1.0  0.3990065300000002  0.74304738  0.6351072200000002  1.0000
  C   C169      1.0  0.30996836  0.37639486  0.83080996  1.0000
  C   C170      1.0  0.27636986  0.50173207  0.81215954  1.0000
  C   C171      1.0  0.22866004999999995  0.47174110999999996  0.79226937  1.0000
  C   C172      1.0  0.1972587300000001  0.5894947099999999  0.7766647300000002  1.0000
  C   C173      1.0  0.21418603  0.73416028  0.78029667  1.0000
  C   C174      1.0  0.2618484  0.76471664  0.8018959  1.0000
  C   C175      1.0  0.2932588200000001  0.64692999  0.8183869900000003  1.0000
  C   C176      1.0  0.1799876000000001  0.85892446  0.7636276800000003  1.0000
  C   C177      1.0  0.14607430999999996  0.56055577  0.75763299  1.0000
  C   C178      1.0  0.2106675  0.31713367  0.78895368  1.0000
  C   C179      1.0  0.34433795  0.67722997  0.84342494  1.0000
  C   C180      1.0  0.27982004999999993  0.9203482199999999  0.80968563  1.0000
  C   C181      1.0  0.14001053999999993  0.02294553  0.79385517  1.0000
  C   C182      1.0  0.11036797000000004  0.07995734999999998  0.7525401  1.0000
  C   C183      1.0  0.07929381999999997  0.19253032999999994  0.74846215  1.0000
  C   C184      1.0  0.07563557999999998  0.24805766999999998  0.7847304  1.0000
  C   C185      1.0  0.10466174000000009  0.18973988999999997  0.8257619300000002  1.0000
  C   C186      1.0  0.13686083  0.0806123  0.83050783  1.0000
  C   C187      1.0  0.050594559999999976  0.25661867  0.7046741  1.0000
  C   C188      1.0  0.43944545  0.9931245799999999  0.90430883  1.0000
  C   C189      1.0  0.40917404  0.07311293999999999  0.91920955  1.0000
  C   C190      1.0  0.4166842600000001  0.0647159  0.9625245000000002  1.0000
  C   C191      1.0  0.3889878299999999  0.15087187  0.97539716  1.0000
  C   C192      1.0  0.35393665  0.23860414999999996  0.94526826  1.0000
  C   C193      1.0  0.34618756  0.24625080999999996  0.90159538  1.0000
  C   C194      1.0  0.3747795600000001  0.16334490999999998  0.8890119100000002  1.0000
  C   C195      1.0  0.39722544  0.15827004  0.02185558  1.0000
  C   C196      1.0  0.10099346999999997  0.24304738  0.86489278  1.0000
  C   C197      1.0  0.80996836  0.87639486  0.83080996  1.0000
  C   C198      1.0  0.77636986  0.00173207  0.81215954  1.0000
  C   C199      1.0  0.72866005  0.9717411099999999  0.79226937  1.0000
  C   C200      1.0  0.69725873  0.08949471  0.7766647300000002  1.0000
  C   C201      1.0  0.71418603  0.23416027999999997  0.78029667  1.0000
  C   C202      1.0  0.7618484  0.26471663999999995  0.8018959  1.0000
  C   C203      1.0  0.7932588200000001  0.14692999  0.8183869900000003  1.0000
  C   C204      1.0  0.6799876000000001  0.35892446  0.7636276800000003  1.0000
  C   C205      1.0  0.64607431  0.06055577  0.75763299  1.0000
  C   C206      1.0  0.7106675  0.8171336699999999  0.78895368  1.0000
  C   C207      1.0  0.84433795  0.17722996999999996  0.84342494  1.0000
  C   C208      1.0  0.77982005  0.42034822  0.80968563  1.0000
  C   C209      1.0  0.64001054  0.52294553  0.79385517  1.0000
  C   C210      1.0  0.61036797  0.5799573499999999  0.7525401  1.0000
  C   C211      1.0  0.57929382  0.69253033  0.74846215  1.0000
  C   C212      1.0  0.5756355800000001  0.7480576699999999  0.7847304  1.0000
  C   C213      1.0  0.6046617400000001  0.68973989  0.8257619300000002  1.0000
  C   C214      1.0  0.63686083  0.5806123  0.83050783  1.0000
  C   C215      1.0  0.55059456  0.7566186699999999  0.7046741  1.0000
  C   C216      1.0  0.93944545  0.49312458  0.90430883  1.0000
  C   C217      1.0  0.90917404  0.57311294  0.91920955  1.0000
  C   C218      1.0  0.91668426  0.5647158999999999  0.9625245000000002  1.0000
  C   C219      1.0  0.88898783  0.65087187  0.97539716  1.0000
  C   C220      1.0  0.85393665  0.73860415  0.94526826  1.0000
  C   C221      1.0  0.84618756  0.74625081  0.90159538  1.0000
  C   C222      1.0  0.8747795600000001  0.66334491  0.8890119100000002  1.0000
  C   C223      1.0  0.89722544  0.65827004  0.02185558  1.0000
  C   C224      1.0  0.60099347  0.74304738  0.86489278  1.0000
  N   N1        1.0  0.17096168000000006  0.08652810999999998  0.29881591000000013  1.0000
  N   N2        1.0  0.31162267  0.66613476  0.37237618  1.0000
  N   N3        1.0  0.67096168  0.58652811  0.29881591000000013  1.0000
  N   N4        1.0  0.81162267  0.16613475999999994  0.37237618  1.0000
  N   N5        1.0  0.8290383199999999  0.08652810999999998  0.20118409  1.0000
  N   N6        1.0  0.68837733  0.66613476  0.12762382  1.0000
  N   N7        1.0  0.32903832  0.58652811  0.20118409  1.0000
  N   N8        1.0  0.18837733  0.16613475999999994  0.12762382  1.0000
  N   N9        1.0  0.8290383199999999  0.91347189  0.70118409  1.0000
  N   N10       1.0  0.68837733  0.33386523999999995  0.62762382  1.0000
  N   N11       1.0  0.32903832  0.41347188999999995  0.70118409  1.0000
  N   N12       1.0  0.18837732999999995  0.83386524  0.62762382  1.0000
  N   N13       1.0  0.17096168000000006  0.91347189  0.79881591  1.0000
  N   N14       1.0  0.31162267000000005  0.33386523999999995  0.8723761800000002  1.0000
  N   N15       1.0  0.67096168  0.41347188999999995  0.79881591  1.0000
  N   N16       1.0  0.81162267  0.83386524  0.8723761800000002  1.0000
  O   O1        1.0  0.04411804000000001  0.8181423799999997  0.17026945  1.0000
  O   O2        1.0  0.03334841  0.61509774  0.20162358  1.0000
  O   O3        1.0  0.44725564  0.94674182  0.37397874  1.0000
  O   O4        1.0  0.45777904  0.1301026  0.42115587  1.0000
  O   O5        1.0  0.43416136  0.90045025  0.55116291  1.0000
  O   O6        1.0  0.36755777  0.77425902  0.52975679  1.0000
  O   O7        1.0  0.06577788  0.6866960299999999  0.36104075  1.0000
  O   O8        1.0  0.13529385000000005  0.78809904  0.4021846200000001  1.0000
  O   O9        1.0  0.54411804  0.31814238  0.17026945  1.0000
  O   O10       1.0  0.53334841  0.11509774  0.20162358  1.0000
  O   O11       1.0  0.94725564  0.44674182  0.37397874  1.0000
  O   O12       1.0  0.95777904  0.6301026  0.42115587  1.0000
  O   O13       1.0  0.9341613599999999  0.40045025  0.55116291  1.0000
  O   O14       1.0  0.86755777  0.2742590199999999  0.52975679  1.0000
  O   O15       1.0  0.56577788  0.18669603  0.36104075  1.0000
  O   O16       1.0  0.63529385  0.28809904  0.4021846200000001  1.0000
  O   O17       1.0  0.95588196  0.8181423799999997  0.32973055  1.0000
  O   O18       1.0  0.96665159  0.61509774  0.29837642  1.0000
  O   O19       1.0  0.55274436  0.94674182  0.12602126  1.0000
  O   O20       1.0  0.54222096  0.1301026  0.07884413  1.0000
  O   O21       1.0  0.56583864  0.90045025  0.9488370900000003  1.0000
  O   O22       1.0  0.63244223  0.77425902  0.97024321  1.0000
  O   O23       1.0  0.93422212  0.6866960299999999  0.13895925  1.0000
  O   O24       1.0  0.86470615  0.78809904  0.09781538  1.0000
  O   O25       1.0  0.45588196  0.31814238  0.32973055  1.0000
  O   O26       1.0  0.46665159000000006  0.11509774  0.29837642  1.0000
  O   O27       1.0  0.05274436  0.44674182  0.12602126  1.0000
  O   O28       1.0  0.04222096  0.6301026  0.07884413  1.0000
  O   O29       1.0  0.06583864000000013  0.40045025  0.9488370900000003  1.0000
  O   O30       1.0  0.13244223000000002  0.2742590199999999  0.97024321  1.0000
  O   O31       1.0  0.43422212  0.18669603  0.13895925  1.0000
  O   O32       1.0  0.36470615  0.28809904  0.09781538  1.0000
  O   O33       1.0  0.95588196  0.18185761999999994  0.82973055  1.0000
  O   O34       1.0  0.9666515899999999  0.38490226  0.79837642  1.0000
  O   O35       1.0  0.55274436  0.05325818  0.62602126  1.0000
  O   O36       1.0  0.54222096  0.8698973999999999  0.57884413  1.0000
  O   O37       1.0  0.56583864  0.09954975  0.44883709  1.0000
  O   O38       1.0  0.63244223  0.22574097999999998  0.47024321000000013  1.0000
  O   O39       1.0  0.93422212  0.3133039699999999  0.63895925  1.0000
  O   O40       1.0  0.8647061499999998  0.21190096  0.59781538  1.0000
  O   O41       1.0  0.45588196  0.68185762  0.82973055  1.0000
  O   O42       1.0  0.46665158999999995  0.88490226  0.79837642  1.0000
  O   O43       1.0  0.05274436000000004  0.55325818  0.62602126  1.0000
  O   O44       1.0  0.042220959999999946  0.36989739999999993  0.57884413  1.0000
  O   O45       1.0  0.06583864000000002  0.59954975  0.44883709  1.0000
  O   O46       1.0  0.13244223000000005  0.7257409799999999  0.47024321000000013  1.0000
  O   O47       1.0  0.43422212  0.81330397  0.63895925  1.0000
  O   O48       1.0  0.36470615  0.71190096  0.59781538  1.0000
  O   O49       1.0  0.044118040000000004  0.18185761999999994  0.67026945  1.0000
  O   O50       1.0  0.033348410000000016  0.38490226  0.70162358  1.0000
  O   O51       1.0  0.44725564  0.05325818  0.87397874  1.0000
  O   O52       1.0  0.4577790400000001  0.8698973999999999  0.9211558700000001  1.0000
  O   O53       1.0  0.43416136000000005  0.09954975  0.05116291000000001  1.0000
  O   O54       1.0  0.36755777  0.22574097999999998  0.02975679  1.0000
  O   O55       1.0  0.06577788000000001  0.3133039699999999  0.86104075  1.0000
  O   O56       1.0  0.13529385  0.21190096  0.90218462  1.0000
  O   O57       1.0  0.54411804  0.68185762  0.67026945  1.0000
  O   O58       1.0  0.53334841  0.88490226  0.70162358  1.0000
  O   O59       1.0  0.94725564  0.55325818  0.87397874  1.0000
  O   O60       1.0  0.9577790400000001  0.36989739999999993  0.9211558700000001  1.0000
  O   O61       1.0  0.93416136  0.59954975  0.05116291000000001  1.0000
  O   O62       1.0  0.86755777  0.7257409799999999  0.02975679  1.0000
  O   O63       1.0  0.56577788  0.81330397  0.86104075  1.0000
  O   O64       1.0  0.63529385  0.71190096  0.90218462  1.0000
