data_image0
_chemical_formula_structural       Cd24H96C144N144O96
_chemical_formula_sum              "Cd24 H96 C144 N144 O96"
_cell_length_a       26.4135
_cell_length_b       26.4135
_cell_length_c       26.4135
_cell_angle_alpha    109.471
_cell_angle_beta     109.471
_cell_angle_gamma    109.471

_symmetry_space_group_name_H-M    'P 1'
_symmetry_Int_Tables_number       1

loop_
  _symmetry_equiv_pos_as_xyz
  'x,y,z'

loop_
  _atom_site_type_symbol
  _atom_site_label
  _atom_site_symmetry_multiplicity
  _atom_site_fract_x
  _atom_site_fract_y
  _atom_site_fract_z
  _atom_site_occupancy
  Cd  Cd1       1.0  0.6451800000000001  0.14518  0.29036  1.0000
  Cd  Cd2       1.0  0.85482  0.35482  0.70964  1.0000
  Cd  Cd3       1.0  0.14518  0.85482  0.5  1.0000
  Cd  Cd4       1.0  0.35482  0.64518  0.5  1.0000
  Cd  Cd5       1.0  0.5000000000000001  0.14518000000000014  0.8548200000000002  1.0000
  Cd  Cd6       1.0  0.5  0.35482  0.64518  1.0000
  Cd  Cd7       1.0  0.29036  0.64518  0.14518  1.0000
  Cd  Cd8       1.0  0.7096400000000002  0.8548199999999999  0.35482  1.0000
  Cd  Cd9       1.0  0.3548200000000001  0.7096400000000002  0.8548200000000002  1.0000
  Cd  Cd10      1.0  0.14518  0.29036  0.64518  1.0000
  Cd  Cd11      1.0  0.6451800000000001  0.5  0.35482  1.0000
  Cd  Cd12      1.0  0.85482  0.5  0.14518  1.0000
  Cd  Cd13      1.0  0.35482  0.85482  0.70964  1.0000
  Cd  Cd14      1.0  0.14518  0.64518  0.29036  1.0000
  Cd  Cd15      1.0  0.85482  0.14518  0.5  1.0000
  Cd  Cd16      1.0  0.6451800000000001  0.35482  0.5  1.0000
  Cd  Cd17      1.0  0.5  0.85482  0.14518  1.0000
  Cd  Cd18      1.0  0.5  0.64518  0.35482  1.0000
  Cd  Cd19      1.0  0.7096400000000002  0.3548200000000001  0.8548200000000002  1.0000
  Cd  Cd20      1.0  0.29036  0.14518  0.64518  1.0000
  Cd  Cd21      1.0  0.6451800000000001  0.29036  0.14518  1.0000
  Cd  Cd22      1.0  0.8548200000000001  0.70964  0.35482  1.0000
  Cd  Cd23      1.0  0.35482  0.5  0.64518  1.0000
  Cd  Cd24      1.0  0.14518000000000011  0.5000000000000001  0.8548200000000002  1.0000
  H   H1        1.0  0.8025  0.24320000000000003  0.35710000000000003  1.0000
  H   H2        1.0  0.7426  0.1678  0.2252  1.0000
  H   H3        1.0  0.8861000000000002  0.44540000000000013  0.6429  1.0000
  H   H4        1.0  0.9426  0.5174000000000001  0.7748000000000002  1.0000
  H   H5        1.0  0.11390000000000003  0.7568  0.5593  1.0000
  H   H6        1.0  0.057399999999999965  0.8321999999999999  0.5748  1.0000
  H   H7        1.0  0.19750000000000006  0.5546  0.4407  1.0000
  H   H8        1.0  0.2574000000000001  0.4826000000000001  0.42520000000000013  1.0000
  H   H9        1.0  0.5593  0.11390000000000002  0.7568  1.0000
  H   H10       1.0  0.5748  0.05740000000000007  0.8322000000000002  1.0000
  H   H11       1.0  0.4407  0.1975  0.5546  1.0000
  H   H12       1.0  0.4252  0.2574  0.4826  1.0000
  H   H13       1.0  0.3571  0.8025  0.24320000000000006  1.0000
  H   H14       1.0  0.22520000000000004  0.7426  0.1678  1.0000
  H   H15       1.0  0.6429  0.8860999999999999  0.4454000000000001  1.0000
  H   H16       1.0  0.7748  0.9426  0.5174  1.0000
  H   H17       1.0  0.4454000000000001  0.6429000000000001  0.8861000000000002  1.0000
  H   H18       1.0  0.5174000000000001  0.7748000000000002  0.9426000000000002  1.0000
  H   H19       1.0  0.24320000000000008  0.3571000000000001  0.8025000000000001  1.0000
  H   H20       1.0  0.16780000000000006  0.2252000000000001  0.7426000000000001  1.0000
  H   H21       1.0  0.5546  0.4407  0.1975  1.0000
  H   H22       1.0  0.48260000000000003  0.4252000000000001  0.2574000000000001  1.0000
  H   H23       1.0  0.7568  0.5593  0.11390000000000003  1.0000
  H   H24       1.0  0.8322000000000002  0.5748  0.05740000000000001  1.0000
  H   H25       1.0  0.7568  0.19750000000000006  0.6429  1.0000
  H   H26       1.0  0.8322000000000002  0.2574000000000002  0.7748000000000002  1.0000
  H   H27       1.0  0.5546  0.11390000000000006  0.35710000000000003  1.0000
  H   H28       1.0  0.4826  0.05739999999999998  0.2252  1.0000
  H   H29       1.0  0.24319999999999994  0.8860999999999999  0.4407  1.0000
  H   H30       1.0  0.16779999999999995  0.9426  0.42520000000000013  1.0000
  H   H31       1.0  0.4454  0.8025  0.5593  1.0000
  H   H32       1.0  0.5174  0.7426  0.5748  1.0000
  H   H33       1.0  0.8861000000000002  0.4407  0.24320000000000006  1.0000
  H   H34       1.0  0.9426  0.4252000000000001  0.1678  1.0000
  H   H35       1.0  0.8025000000000002  0.5593000000000001  0.4454000000000001  1.0000
  H   H36       1.0  0.7426  0.5748  0.5174  1.0000
  H   H37       1.0  0.19750000000000004  0.6429000000000001  0.7568  1.0000
  H   H38       1.0  0.2574000000000001  0.7748000000000002  0.8322000000000002  1.0000
  H   H39       1.0  0.11389999999999999  0.3571  0.5546  1.0000
  H   H40       1.0  0.057400000000000014  0.2252  0.4826  1.0000
  H   H41       1.0  0.3571  0.5546  0.11390000000000003  1.0000
  H   H42       1.0  0.22520000000000004  0.4826  0.05740000000000001  1.0000
  H   H43       1.0  0.6429  0.7568  0.1975  1.0000
  H   H44       1.0  0.7748  0.8321999999999999  0.2574000000000001  1.0000
  H   H45       1.0  0.5593  0.44540000000000013  0.8025000000000001  1.0000
  H   H46       1.0  0.5748  0.5174000000000001  0.7426000000000001  1.0000
  H   H47       1.0  0.4407  0.24320000000000008  0.8861000000000002  1.0000
  H   H48       1.0  0.42520000000000013  0.16780000000000012  0.9426000000000002  1.0000
  H   H49       1.0  0.19749999999999995  0.7568  0.6429  1.0000
  H   H50       1.0  0.2574000000000001  0.8322000000000002  0.7748000000000002  1.0000
  H   H51       1.0  0.1139  0.5546  0.35710000000000003  1.0000
  H   H52       1.0  0.05739999999999994  0.4825999999999999  0.2252  1.0000
  H   H53       1.0  0.8860999999999999  0.2432  0.4407  1.0000
  H   H54       1.0  0.9426  0.1678000000000001  0.42520000000000013  1.0000
  H   H55       1.0  0.8025  0.4454000000000001  0.5593  1.0000
  H   H56       1.0  0.7426  0.5174  0.5748  1.0000
  H   H57       1.0  0.4407  0.8860999999999999  0.24320000000000006  1.0000
  H   H58       1.0  0.4252  0.9426  0.1678  1.0000
  H   H59       1.0  0.5593000000000001  0.8025000000000002  0.4454000000000001  1.0000
  H   H60       1.0  0.5748  0.7426  0.5174  1.0000
  H   H61       1.0  0.6429  0.1975  0.7568  1.0000
  H   H62       1.0  0.7748  0.2574000000000001  0.8322000000000002  1.0000
  H   H63       1.0  0.3571  0.11389999999999999  0.5546  1.0000
  H   H64       1.0  0.22520000000000004  0.0574  0.4826  1.0000
  H   H65       1.0  0.5546  0.3571  0.11390000000000003  1.0000
  H   H66       1.0  0.4826  0.2252  0.05740000000000001  1.0000
  H   H67       1.0  0.7568  0.6429000000000001  0.1975  1.0000
  H   H68       1.0  0.8322000000000002  0.7747999999999999  0.2574000000000001  1.0000
  H   H69       1.0  0.4454000000000001  0.5593000000000001  0.8025000000000001  1.0000
  H   H70       1.0  0.5174000000000001  0.5748000000000001  0.7426000000000001  1.0000
  H   H71       1.0  0.24320000000000003  0.44070000000000004  0.8861000000000002  1.0000
  H   H72       1.0  0.16780000000000003  0.4252000000000001  0.9426000000000002  1.0000
  H   H73       1.0  0.2432000000000001  0.8025000000000002  0.35710000000000003  1.0000
  H   H74       1.0  0.1678  0.7426  0.2252  1.0000
  H   H75       1.0  0.4453999999999999  0.8860999999999999  0.6429  1.0000
  H   H76       1.0  0.5173999999999999  0.9426  0.7748000000000002  1.0000
  H   H77       1.0  0.7568  0.11389999999999999  0.5593  1.0000
  H   H78       1.0  0.8322000000000002  0.0574  0.5748  1.0000
  H   H79       1.0  0.5546000000000001  0.19750000000000004  0.4407  1.0000
  H   H80       1.0  0.48260000000000003  0.2574000000000001  0.42520000000000013  1.0000
  H   H81       1.0  0.11390000000000003  0.5593  0.7568  1.0000
  H   H82       1.0  0.05740000000000007  0.5748000000000001  0.8322000000000002  1.0000
  H   H83       1.0  0.19750000000000006  0.4407  0.5546  1.0000
  H   H84       1.0  0.2574  0.4252  0.4826  1.0000
  H   H85       1.0  0.8025  0.3571  0.24320000000000006  1.0000
  H   H86       1.0  0.7426  0.2252  0.1678  1.0000
  H   H87       1.0  0.8861000000000002  0.6429000000000002  0.4454000000000001  1.0000
  H   H88       1.0  0.9425999999999999  0.7747999999999999  0.5174  1.0000
  H   H89       1.0  0.6429  0.44540000000000013  0.8861000000000002  1.0000
  H   H90       1.0  0.7748  0.5174000000000001  0.9426000000000002  1.0000
  H   H91       1.0  0.3571  0.2432000000000001  0.8025000000000001  1.0000
  H   H92       1.0  0.22520000000000007  0.1678000000000001  0.7426000000000001  1.0000
  H   H93       1.0  0.4407  0.5546  0.1975  1.0000
  H   H94       1.0  0.4252000000000001  0.4826000000000001  0.2574000000000001  1.0000
  H   H95       1.0  0.5593  0.7568  0.11390000000000003  1.0000
  H   H96       1.0  0.5748  0.8321999999999999  0.05740000000000001  1.0000
  C   C1        1.0  0.7957000000000001  0.2167  0.37320000000000003  1.0000
  C   C2        1.0  0.7153000000000002  0.18220000000000003  0.21450000000000005  1.0000
  C   C3        1.0  0.8435  0.42249999999999993  0.6268  1.0000
  C   C4        1.0  0.9677000000000002  0.5008  0.7855  1.0000
  C   C5        1.0  0.15649999999999997  0.7832999999999999  0.579  1.0000
  C   C6        1.0  0.03229999999999997  0.8177999999999999  0.5331000000000001  1.0000
  C   C7        1.0  0.2043  0.5775  0.421  1.0000
  C   C8        1.0  0.2847  0.4992  0.4669  1.0000
  C   C9        1.0  0.579  0.15649999999999994  0.7833  1.0000
  C   C10       1.0  0.5331  0.03229999999999998  0.8178  1.0000
  C   C11       1.0  0.4210000000000001  0.20430000000000006  0.5775000000000001  1.0000
  C   C12       1.0  0.4669  0.2847  0.4992  1.0000
  C   C13       1.0  0.3732  0.7957  0.2167  1.0000
  C   C14       1.0  0.2145  0.7153  0.1822  1.0000
  C   C15       1.0  0.6268000000000001  0.8435  0.4225  1.0000
  C   C16       1.0  0.7855  0.9676999999999999  0.5008  1.0000
  C   C17       1.0  0.4225  0.6268  0.8435  1.0000
  C   C18       1.0  0.5008  0.7855  0.9677000000000002  1.0000
  C   C19       1.0  0.21670000000000003  0.37320000000000003  0.7957  1.0000
  C   C20       1.0  0.18220000000000003  0.2145  0.7153  1.0000
  C   C21       1.0  0.5775  0.42099999999999993  0.2043  1.0000
  C   C22       1.0  0.49920000000000003  0.46690000000000004  0.2847  1.0000
  C   C23       1.0  0.7833  0.579  0.1565  1.0000
  C   C24       1.0  0.8178  0.5331  0.03230000000000001  1.0000
  C   C25       1.0  0.7833  0.20429999999999995  0.6268  1.0000
  C   C26       1.0  0.8178  0.2847  0.7855  1.0000
  C   C27       1.0  0.5775000000000001  0.15650000000000003  0.37320000000000003  1.0000
  C   C28       1.0  0.49920000000000003  0.032300000000000016  0.21450000000000005  1.0000
  C   C29       1.0  0.2167  0.8435  0.421  1.0000
  C   C30       1.0  0.18220000000000003  0.9677000000000001  0.4669  1.0000
  C   C31       1.0  0.4225  0.7957  0.579  1.0000
  C   C32       1.0  0.5008  0.7153000000000003  0.5331000000000001  1.0000
  C   C33       1.0  0.8435  0.42099999999999993  0.2167  1.0000
  C   C34       1.0  0.9677000000000002  0.46690000000000004  0.1822  1.0000
  C   C35       1.0  0.7957000000000001  0.579  0.4225  1.0000
  C   C36       1.0  0.7153000000000002  0.5331  0.5008  1.0000
  C   C37       1.0  0.2043  0.6268  0.7833  1.0000
  C   C38       1.0  0.2847  0.7855  0.8178  1.0000
  C   C39       1.0  0.15650000000000008  0.3732000000000001  0.5775000000000001  1.0000
  C   C40       1.0  0.032300000000000016  0.2145  0.4992  1.0000
  C   C41       1.0  0.3732  0.5775  0.1565  1.0000
  C   C42       1.0  0.2145  0.4992  0.03230000000000001  1.0000
  C   C43       1.0  0.6268000000000001  0.7832999999999999  0.2043  1.0000
  C   C44       1.0  0.7855  0.8177999999999999  0.2847  1.0000
  C   C45       1.0  0.579  0.42249999999999993  0.7957  1.0000
  C   C46       1.0  0.5331  0.5008  0.7153  1.0000
  C   C47       1.0  0.42099999999999993  0.21669999999999992  0.8435  1.0000
  C   C48       1.0  0.4669  0.18220000000000017  0.9677000000000002  1.0000
  C   C49       1.0  0.20429999999999998  0.7832999999999999  0.6268  1.0000
  C   C50       1.0  0.28469999999999995  0.8177999999999999  0.7855  1.0000
  C   C51       1.0  0.15650000000000003  0.5775  0.37320000000000003  1.0000
  C   C52       1.0  0.03230000000000003  0.4992  0.21450000000000005  1.0000
  C   C53       1.0  0.8435  0.2167  0.421  1.0000
  C   C54       1.0  0.9677000000000003  0.18220000000000003  0.4669  1.0000
  C   C55       1.0  0.7957000000000001  0.42249999999999993  0.579  1.0000
  C   C56       1.0  0.7153000000000003  0.5008  0.5331000000000001  1.0000
  C   C57       1.0  0.4210000000000001  0.8435  0.2167  1.0000
  C   C58       1.0  0.4669  0.9676999999999999  0.1822  1.0000
  C   C59       1.0  0.579  0.7957  0.4225  1.0000
  C   C60       1.0  0.5331  0.7153  0.5008  1.0000
  C   C61       1.0  0.6268000000000001  0.20429999999999993  0.7833  1.0000
  C   C62       1.0  0.7855  0.2847  0.8178  1.0000
  C   C63       1.0  0.3732  0.15650000000000006  0.5775000000000001  1.0000
  C   C64       1.0  0.2145  0.032300000000000016  0.4992  1.0000
  C   C65       1.0  0.5775000000000001  0.37320000000000003  0.1565  1.0000
  C   C66       1.0  0.49920000000000003  0.2145  0.03230000000000001  1.0000
  C   C67       1.0  0.7833  0.6268  0.2043  1.0000
  C   C68       1.0  0.8178  0.7855  0.2847  1.0000
  C   C69       1.0  0.4225  0.579  0.7957  1.0000
  C   C70       1.0  0.5008  0.5331  0.7153  1.0000
  C   C71       1.0  0.21669999999999995  0.42099999999999993  0.8435  1.0000
  C   C72       1.0  0.18220000000000006  0.46690000000000015  0.9677000000000002  1.0000
  C   C73       1.0  0.21670000000000003  0.7957  0.37320000000000003  1.0000
  C   C74       1.0  0.18220000000000006  0.7153  0.21450000000000005  1.0000
  C   C75       1.0  0.4225  0.8435  0.6268  1.0000
  C   C76       1.0  0.5007999999999999  0.9676999999999999  0.7855  1.0000
  C   C77       1.0  0.7833  0.1565  0.579  1.0000
  C   C78       1.0  0.8178  0.03230000000000006  0.5331000000000001  1.0000
  C   C79       1.0  0.5775  0.2043  0.421  1.0000
  C   C80       1.0  0.4992000000000001  0.2847  0.4669  1.0000
  C   C81       1.0  0.15649999999999997  0.5789999999999997  0.7833  1.0000
  C   C82       1.0  0.0323  0.5331  0.8178  1.0000
  C   C83       1.0  0.2043000000000001  0.42100000000000004  0.5775000000000001  1.0000
  C   C84       1.0  0.2847  0.46690000000000004  0.4992  1.0000
  C   C85       1.0  0.7957000000000001  0.37320000000000003  0.2167  1.0000
  C   C86       1.0  0.7153000000000002  0.2145  0.1822  1.0000
  C   C87       1.0  0.8435  0.6268  0.4225  1.0000
  C   C88       1.0  0.9677000000000002  0.7855  0.5008  1.0000
  C   C89       1.0  0.6268000000000001  0.42249999999999993  0.8435  1.0000
  C   C90       1.0  0.7855  0.5008  0.9677000000000002  1.0000
  C   C91       1.0  0.3732  0.2167  0.7957  1.0000
  C   C92       1.0  0.21450000000000014  0.18220000000000003  0.7153  1.0000
  C   C93       1.0  0.4210000000000001  0.5775  0.2043  1.0000
  C   C94       1.0  0.4669  0.4992  0.2847  1.0000
  C   C95       1.0  0.579  0.7832999999999999  0.1565  1.0000
  C   C96       1.0  0.5331  0.8177999999999999  0.03230000000000001  1.0000
  C   C97       1.0  0.7547  0.14760000000000004  0.3929  1.0000
  C   C98       1.0  0.7547  0.3618  0.6071  1.0000
  C   C99       1.0  0.24529999999999993  0.8524  0.6071  1.0000
  C   C100      1.0  0.24530000000000005  0.6382  0.3929  1.0000
  C   C101      1.0  0.6071  0.24530000000000005  0.8524000000000003  1.0000
  C   C102      1.0  0.3929000000000002  0.2453  0.6382000000000001  1.0000
  C   C103      1.0  0.3929  0.7547  0.14760000000000004  1.0000
  C   C104      1.0  0.6071  0.7547  0.36180000000000007  1.0000
  C   C105      1.0  0.3618000000000001  0.6071  0.7547  1.0000
  C   C106      1.0  0.1476  0.3929  0.7547  1.0000
  C   C107      1.0  0.6382  0.3929  0.24530000000000002  1.0000
  C   C108      1.0  0.8524  0.6071  0.24530000000000002  1.0000
  C   C109      1.0  0.8524  0.2453  0.6071  1.0000
  C   C110      1.0  0.6382  0.2453  0.3929  1.0000
  C   C111      1.0  0.1476  0.7547  0.3929  1.0000
  C   C112      1.0  0.3618000000000001  0.7547  0.6071  1.0000
  C   C113      1.0  0.7547000000000003  0.3929  0.14760000000000004  1.0000
  C   C114      1.0  0.7547000000000003  0.6071  0.36180000000000007  1.0000
  C   C115      1.0  0.24530000000000007  0.6071  0.8524000000000003  1.0000
  C   C116      1.0  0.24530000000000005  0.3929  0.6382000000000001  1.0000
  C   C117      1.0  0.3929  0.6382  0.24530000000000002  1.0000
  C   C118      1.0  0.6071  0.8524  0.24530000000000002  1.0000
  C   C119      1.0  0.6071  0.3618  0.7547  1.0000
  C   C120      1.0  0.3929  0.14759999999999995  0.7547  1.0000
  C   C121      1.0  0.6426  0.20380000000000004  0.2038  1.0000
  C   C122      1.0  1.0087778064627467e-16  0.43880000000000013  0.7962000000000002  1.0000
  C   C123      1.0  6.725185376418311e-17  0.7962  0.43880000000000013  1.0000
  C   C124      1.0  0.3574000000000001  0.5612  0.5612000000000001  1.0000
  C   C125      1.0  0.43880000000000013  1.4266253130338853e-16  0.7962000000000002  1.0000
  C   C126      1.0  0.5612  0.3574000000000001  0.5612000000000001  1.0000
  C   C127      1.0  0.2038  0.6426  0.2038  1.0000
  C   C128      1.0  0.7962  7.133126565169426e-17  0.43880000000000013  1.0000
  C   C129      1.0  0.4388  0.7962  0.0  1.0000
  C   C130      1.0  0.20380000000000012  0.20380000000000012  0.6426000000000001  1.0000
  C   C131      1.0  0.5612  0.5611999999999999  0.3574  1.0000
  C   C132      1.0  0.7962  0.4388  0.0  1.0000
  C   C133      1.0  0.7962000000000001  0.35740000000000016  0.7962000000000002  1.0000
  C   C134      1.0  0.5612000000000001  0.0  0.2038  1.0000
  C   C135      1.0  0.20380000000000004  3.566563282584713e-17  0.5612000000000001  1.0000
  C   C136      1.0  0.4388  0.6426  0.43880000000000013  1.0000
  C   C137      1.0  0.0  0.5612  0.2038  1.0000
  C   C138      1.0  0.6426  0.4388000000000001  0.43880000000000013  1.0000
  C   C139      1.0  0.3574000000000001  0.7962000000000001  0.7962000000000002  1.0000
  C   C140      1.0  5.0438890323137336e-17  0.20380000000000006  0.5612000000000001  1.0000
  C   C141      1.0  0.2038  0.5612  0.0  1.0000
  C   C142      1.0  0.7962  0.7962  0.3574  1.0000
  C   C143      1.0  0.4388000000000001  0.4388000000000001  0.6426000000000001  1.0000
  C   C144      1.0  0.5612000000000001  0.20380000000000004  0.0  1.0000
  N   N1        1.0  0.7429  0.17420000000000002  0.3573  1.0000
  N   N2        1.0  0.6693  0.17540000000000006  0.22770000000000007  1.0000
  N   N3        1.0  0.8169  0.38559999999999994  0.6427  1.0000
  N   N4        1.0  0.9477  0.44160000000000005  0.7723000000000001  1.0000
  N   N5        1.0  0.18310000000000007  0.8258  0.5687  1.0000
  N   N6        1.0  0.0523  0.8246  0.4939  1.0000
  N   N7        1.0  0.2571  0.6144  0.43130000000000007  1.0000
  N   N8        1.0  0.3307000000000001  0.5584000000000001  0.5061000000000001  1.0000
  N   N9        1.0  0.5687  0.18310000000000018  0.8258000000000002  1.0000
  N   N10       1.0  0.49390000000000017  0.05230000000000009  0.8246000000000002  1.0000
  N   N11       1.0  0.4313000000000001  0.25710000000000005  0.6144000000000001  1.0000
  N   N12       1.0  0.5061  0.3307  0.5584  1.0000
  N   N13       1.0  0.35730000000000006  0.7429  0.17420000000000002  1.0000
  N   N14       1.0  0.2277  0.6693  0.1754  1.0000
  N   N15       1.0  0.6427000000000003  0.8169  0.38560000000000005  1.0000
  N   N16       1.0  0.7723  0.9477000000000001  0.4416000000000001  1.0000
  N   N17       1.0  0.38560000000000005  0.6427  0.8169  1.0000
  N   N18       1.0  0.44160000000000016  0.7723000000000002  0.9477000000000001  1.0000
  N   N19       1.0  0.17420000000000005  0.35730000000000006  0.7429000000000001  1.0000
  N   N20       1.0  0.17540000000000003  0.22770000000000004  0.6693  1.0000
  N   N21       1.0  0.6144  0.4313  0.2571  1.0000
  N   N22       1.0  0.5584  0.5061  0.3307  1.0000
  N   N23       1.0  0.8258  0.5687  0.18310000000000004  1.0000
  N   N24       1.0  0.8246000000000001  0.4939  0.052300000000000006  1.0000
  N   N25       1.0  0.8258  0.2571  0.6427  1.0000
  N   N26       1.0  0.8246000000000001  0.3307  0.7723000000000001  1.0000
  N   N27       1.0  0.6144  0.18310000000000004  0.3573  1.0000
  N   N28       1.0  0.5584  0.05230000000000004  0.22770000000000007  1.0000
  N   N29       1.0  0.17420000000000005  0.8169  0.43130000000000007  1.0000
  N   N30       1.0  0.17540000000000008  0.9477000000000002  0.5061000000000001  1.0000
  N   N31       1.0  0.38560000000000005  0.7429  0.5687  1.0000
  N   N32       1.0  0.44160000000000005  0.6693  0.4939  1.0000
  N   N33       1.0  0.8169  0.4313  0.17420000000000002  1.0000
  N   N34       1.0  0.9477  0.5061  0.1754  1.0000
  N   N35       1.0  0.7429  0.5687  0.38560000000000005  1.0000
  N   N36       1.0  0.6693  0.4939  0.4416000000000001  1.0000
  N   N37       1.0  0.2571000000000001  0.6427000000000002  0.8258000000000002  1.0000
  N   N38       1.0  0.33070000000000016  0.7723000000000002  0.8246000000000002  1.0000
  N   N39       1.0  0.18310000000000007  0.35730000000000006  0.6144000000000001  1.0000
  N   N40       1.0  0.05230000000000007  0.22770000000000004  0.5584  1.0000
  N   N41       1.0  0.3573  0.6144  0.18310000000000004  1.0000
  N   N42       1.0  0.2277  0.5584  0.052300000000000006  1.0000
  N   N43       1.0  0.6426999999999999  0.8257999999999998  0.2571  1.0000
  N   N44       1.0  0.7723  0.8246  0.3307  1.0000
  N   N45       1.0  0.5687  0.38560000000000005  0.7429000000000001  1.0000
  N   N46       1.0  0.4939000000000001  0.4416  0.6693  1.0000
  N   N47       1.0  0.43130000000000007  0.17420000000000002  0.8169  1.0000
  N   N48       1.0  0.5061000000000001  0.1754000000000001  0.9477000000000001  1.0000
  N   N49       1.0  0.2571  0.8258  0.6427  1.0000
  N   N50       1.0  0.33070000000000005  0.8246  0.7723000000000001  1.0000
  N   N51       1.0  0.18310000000000007  0.6144  0.3573  1.0000
  N   N52       1.0  0.0523000000000001  0.5584000000000001  0.22770000000000007  1.0000
  N   N53       1.0  0.8169  0.17420000000000005  0.43130000000000007  1.0000
  N   N54       1.0  0.9477  0.17540000000000008  0.5061000000000001  1.0000
  N   N55       1.0  0.7429  0.38559999999999994  0.5687  1.0000
  N   N56       1.0  0.6692999999999997  0.4416  0.4939  1.0000
  N   N57       1.0  0.43130000000000007  0.8169  0.17420000000000002  1.0000
  N   N58       1.0  0.5061000000000001  0.9477000000000001  0.1754  1.0000
  N   N59       1.0  0.5687  0.7429  0.38560000000000005  1.0000
  N   N60       1.0  0.4939000000000001  0.6693  0.4416000000000001  1.0000
  N   N61       1.0  0.6427000000000003  0.25710000000000016  0.8258000000000002  1.0000
  N   N62       1.0  0.7723  0.3307  0.8246000000000002  1.0000
  N   N63       1.0  0.35730000000000006  0.1831000000000001  0.6144000000000001  1.0000
  N   N64       1.0  0.2277  0.05230000000000002  0.5584  1.0000
  N   N65       1.0  0.6144  0.3573  0.18310000000000004  1.0000
  N   N66       1.0  0.5584  0.22769999999999999  0.052300000000000006  1.0000
  N   N67       1.0  0.8258  0.6427  0.2571  1.0000
  N   N68       1.0  0.8246000000000001  0.7723  0.3307  1.0000
  N   N69       1.0  0.3856000000000001  0.5687000000000001  0.7429000000000001  1.0000
  N   N70       1.0  0.44160000000000005  0.4939  0.6693  1.0000
  N   N71       1.0  0.17420000000000005  0.4313  0.8169  1.0000
  N   N72       1.0  0.17540000000000008  0.5061000000000001  0.9477000000000001  1.0000
  N   N73       1.0  0.1742  0.7429  0.3573  1.0000
  N   N74       1.0  0.17540000000000003  0.6693  0.22770000000000007  1.0000
  N   N75       1.0  0.38560000000000005  0.8169  0.6427  1.0000
  N   N76       1.0  0.4416000000000001  0.9477000000000001  0.7723000000000001  1.0000
  N   N77       1.0  0.8258  0.18310000000000004  0.5687  1.0000
  N   N78       1.0  0.8246000000000001  0.05230000000000002  0.4939  1.0000
  N   N79       1.0  0.6144000000000001  0.2571000000000001  0.43130000000000007  1.0000
  N   N80       1.0  0.5584  0.33070000000000005  0.5061000000000001  1.0000
  N   N81       1.0  0.18310000000000012  0.5687000000000001  0.8258000000000002  1.0000
  N   N82       1.0  0.05230000000000007  0.4939  0.8246000000000002  1.0000
  N   N83       1.0  0.25710000000000005  0.43130000000000007  0.6144000000000001  1.0000
  N   N84       1.0  0.33070000000000005  0.5061  0.5584  1.0000
  N   N85       1.0  0.7429  0.3573  0.17420000000000002  1.0000
  N   N86       1.0  0.6693  0.22769999999999999  0.1754  1.0000
  N   N87       1.0  0.8169  0.6427  0.38560000000000005  1.0000
  N   N88       1.0  0.9477  0.7723  0.4416000000000001  1.0000
  N   N89       1.0  0.6427000000000003  0.38559999999999994  0.8169  1.0000
  N   N90       1.0  0.7723000000000003  0.44160000000000005  0.9477000000000001  1.0000
  N   N91       1.0  0.35730000000000006  0.1742000000000001  0.7429000000000001  1.0000
  N   N92       1.0  0.2277  0.17540000000000003  0.6693  1.0000
  N   N93       1.0  0.43130000000000007  0.6144  0.2571  1.0000
  N   N94       1.0  0.5061000000000001  0.5584000000000001  0.3307  1.0000
  N   N95       1.0  0.5687  0.8258  0.18310000000000004  1.0000
  N   N96       1.0  0.4939000000000001  0.8246  0.052300000000000006  1.0000
  N   N97       1.0  0.7091  0.09979999999999999  0.3907  1.0000
  N   N98       1.0  0.7091000000000001  0.31840000000000007  0.6093000000000001  1.0000
  N   N99       1.0  0.29090000000000005  0.9002  0.6093000000000001  1.0000
  N   N100      1.0  0.29090000000000005  0.6816  0.3907  1.0000
  N   N101      1.0  0.6093  0.29089999999999994  0.9002  1.0000
  N   N102      1.0  0.39070000000000016  0.2909  0.6816000000000001  1.0000
  N   N103      1.0  0.3907  0.7091  0.09980000000000003  1.0000
  N   N104      1.0  0.6093  0.7091  0.3184000000000001  1.0000
  N   N105      1.0  0.3184  0.6093  0.7091  1.0000
  N   N106      1.0  0.09980000000000008  0.39070000000000005  0.7091  1.0000
  N   N107      1.0  0.6816000000000001  0.3907000000000001  0.29090000000000005  1.0000
  N   N108      1.0  0.9002  0.6093  0.29090000000000005  1.0000
  N   N109      1.0  0.9002000000000002  0.29090000000000005  0.6093000000000001  1.0000
  N   N110      1.0  0.6816000000000001  0.2909  0.3907  1.0000
  N   N111      1.0  0.09980000000000006  0.7091  0.3907  1.0000
  N   N112      1.0  0.3184000000000002  0.7091  0.6093000000000001  1.0000
  N   N113      1.0  0.7091000000000001  0.39070000000000005  0.09980000000000003  1.0000
  N   N114      1.0  0.7091000000000001  0.6093000000000001  0.3184000000000001  1.0000
  N   N115      1.0  0.2909  0.6093  0.9002  1.0000
  N   N116      1.0  0.2909000000000001  0.3907000000000001  0.6816000000000001  1.0000
  N   N117      1.0  0.39070000000000016  0.6816  0.29090000000000005  1.0000
  N   N118      1.0  0.6093  0.9002  0.29090000000000005  1.0000
  N   N119      1.0  0.6093  0.3184  0.7091  1.0000
  N   N120      1.0  0.39070000000000016  0.09980000000000001  0.7091  1.0000
  N   N121      1.0  0.5916  0.2063  0.20630000000000004  1.0000
  N   N122      1.0  0.0  0.38530000000000003  0.7937  1.0000
  N   N123      1.0  0.0  0.7937  0.3853000000000001  1.0000
  N   N124      1.0  0.40840000000000004  0.6147  0.6147  1.0000
  N   N125      1.0  0.3853  0.0  0.7937  1.0000
  N   N126      1.0  0.6147  0.4084  0.6147  1.0000
  N   N127      1.0  0.2063  0.5916  0.20630000000000004  1.0000
  N   N128      1.0  0.7937000000000002  3.566563282584713e-17  0.3853000000000001  1.0000
  N   N129      1.0  0.3853  0.7937  0.0  1.0000
  N   N130      1.0  0.20630000000000007  0.2063000000000001  0.5916000000000001  1.0000
  N   N131      1.0  0.6147  0.6147  0.4084  1.0000
  N   N132      1.0  0.7937  0.38530000000000003  0.0  1.0000
  N   N133      1.0  0.7937  0.4084  0.7937  1.0000
  N   N134      1.0  0.6147  1.7832816412923566e-17  0.20630000000000004  1.0000
  N   N135      1.0  0.2063  0.0  0.6147  1.0000
  N   N136      1.0  0.38530000000000014  0.5916000000000001  0.3853000000000001  1.0000
  N   N137      1.0  3.3625926882091555e-17  0.6147  0.20630000000000004  1.0000
  N   N138      1.0  0.5916  0.38530000000000003  0.3853000000000001  1.0000
  N   N139      1.0  0.40840000000000004  0.7937  0.7937  1.0000
  N   N140      1.0  8.406481720522889e-18  0.2063  0.6147  1.0000
  N   N141      1.0  0.20630000000000004  0.6147  0.0  1.0000
  N   N142      1.0  0.7937  0.7937  0.4084  1.0000
  N   N143      1.0  0.38530000000000003  0.3853000000000001  0.5916000000000001  1.0000
  N   N144      1.0  0.6147  0.2063  0.0  1.0000
  O   O1        1.0  0.7256000000000001  0.08029999999999998  0.4249  1.0000
  O   O2        1.0  0.5698  0.2319  0.1819  1.0000
  O   O3        1.0  0.6554  0.3007  0.5751  1.0000
  O   O4        1.0  0.04999999999999999  0.3879  0.8181  1.0000
  O   O5        1.0  0.3446  0.9197  0.6453  1.0000
  O   O6        1.0  0.95  0.7681000000000001  0.3379  1.0000
  O   O7        1.0  0.27440000000000003  0.6993  0.3547000000000001  1.0000
  O   O8        1.0  0.4302000000000001  0.6121  0.6621000000000001  1.0000
  O   O9        1.0  0.6453000000000002  0.3446000000000001  0.9197000000000002  1.0000
  O   O10       1.0  0.3379000000000001  0.9500000000000002  0.7681000000000002  1.0000
  O   O11       1.0  0.35470000000000007  0.27440000000000003  0.6993  1.0000
  O   O12       1.0  0.6621000000000002  0.4302000000000002  0.6121000000000002  1.0000
  O   O13       1.0  0.4249  0.7256  0.0803  1.0000
  O   O14       1.0  0.1819  0.5698  0.23190000000000002  1.0000
  O   O15       1.0  0.5750999999999998  0.6554  0.3007000000000001  1.0000
  O   O16       1.0  0.8181  0.05000000000000002  0.3879  1.0000
  O   O17       1.0  0.3007000000000001  0.5751  0.6554000000000002  1.0000
  O   O18       1.0  0.3879000000000001  0.8181  0.05000000000000001  1.0000
  O   O19       1.0  0.08030000000000008  0.4249000000000001  0.7256000000000002  1.0000
  O   O20       1.0  0.2319  0.18190000000000003  0.5698  1.0000
  O   O21       1.0  0.6993  0.35470000000000007  0.2744  1.0000
  O   O22       1.0  0.6121000000000001  0.6621  0.4302000000000001  1.0000
  O   O23       1.0  0.9197000000000002  0.6453  0.3446000000000001  1.0000
  O   O24       1.0  0.7681  0.33790000000000003  0.9500000000000002  1.0000
  O   O25       1.0  0.9197000000000002  0.2744  0.5751  1.0000
  O   O26       1.0  0.7681  0.4302  0.8181  1.0000
  O   O27       1.0  0.6993  0.3446  0.4249  1.0000
  O   O28       1.0  0.6121000000000001  0.95  0.1819  1.0000
  O   O29       1.0  0.0803  0.6554  0.3547000000000001  1.0000
  O   O30       1.0  0.23190000000000005  0.050000000000000086  0.6621000000000001  1.0000
  O   O31       1.0  0.3007  0.7256  0.6453  1.0000
  O   O32       1.0  0.3879000000000001  0.5698  0.3379  1.0000
  O   O33       1.0  0.6554  0.35470000000000007  0.0803  1.0000
  O   O34       1.0  0.050000000000000024  0.6621  0.23190000000000002  1.0000
  O   O35       1.0  0.7256000000000001  0.6453  0.3007000000000001  1.0000
  O   O36       1.0  0.5698  0.3379  0.3879  1.0000
  O   O37       1.0  0.27440000000000014  0.5751000000000001  0.9197000000000002  1.0000
  O   O38       1.0  0.4302000000000001  0.8181000000000003  0.7681000000000002  1.0000
  O   O39       1.0  0.3446  0.42490000000000006  0.6993  1.0000
  O   O40       1.0  0.9500000000000003  0.18190000000000012  0.6121000000000002  1.0000
  O   O41       1.0  0.4249  0.6993  0.3446000000000001  1.0000
  O   O42       1.0  0.18190000000000006  0.6121  0.9500000000000002  1.0000
  O   O43       1.0  0.5750999999999998  0.9197  0.2744  1.0000
  O   O44       1.0  0.8181000000000002  0.7681000000000001  0.4302000000000001  1.0000
  O   O45       1.0  0.6453  0.3007000000000001  0.7256000000000002  1.0000
  O   O46       1.0  0.3379  0.3879  0.5698  1.0000
  O   O47       1.0  0.3547000000000002  0.08030000000000005  0.6554000000000002  1.0000
  O   O48       1.0  0.6621000000000001  0.2319  0.05000000000000001  1.0000
  O   O49       1.0  0.2744  0.9197  0.5751  1.0000
  O   O50       1.0  0.4302000000000001  0.7681000000000001  0.8181  1.0000
  O   O51       1.0  0.3446  0.6993  0.4249  1.0000
  O   O52       1.0  0.95  0.6121  0.1819  1.0000
  O   O53       1.0  0.6554  0.08030000000000005  0.3547000000000001  1.0000
  O   O54       1.0  0.05000000000000006  0.23190000000000008  0.6621000000000001  1.0000
  O   O55       1.0  0.7256000000000001  0.3007  0.6453  1.0000
  O   O56       1.0  0.5698  0.3879  0.3379  1.0000
  O   O57       1.0  0.35470000000000007  0.6554  0.0803  1.0000
  O   O58       1.0  0.6621000000000001  0.05000000000000002  0.23190000000000002  1.0000
  O   O59       1.0  0.6453  0.7256  0.3007000000000001  1.0000
  O   O60       1.0  0.3378999999999999  0.5698  0.3879  1.0000
  O   O61       1.0  0.5751000000000002  0.2744000000000001  0.9197000000000002  1.0000
  O   O62       1.0  0.8181000000000002  0.4302000000000002  0.7681000000000002  1.0000
  O   O63       1.0  0.4249  0.3446  0.6993  1.0000
  O   O64       1.0  0.18190000000000006  0.95  0.6121000000000002  1.0000
  O   O65       1.0  0.6993  0.42489999999999994  0.3446000000000001  1.0000
  O   O66       1.0  0.6121000000000002  0.18190000000000012  0.9500000000000002  1.0000
  O   O67       1.0  0.9197000000000002  0.5751  0.2744  1.0000
  O   O68       1.0  0.7681000000000001  0.8181000000000003  0.4302000000000001  1.0000
  O   O69       1.0  0.30070000000000013  0.6453000000000002  0.7256000000000002  1.0000
  O   O70       1.0  0.38789999999999997  0.3379  0.5698  1.0000
  O   O71       1.0  0.08030000000000014  0.3547000000000001  0.6554000000000002  1.0000
  O   O72       1.0  0.2319  0.6621  0.05000000000000001  1.0000
  O   O73       1.0  0.08029999999999997  0.7256  0.4249  1.0000
  O   O74       1.0  0.23189999999999997  0.5698  0.1819  1.0000
  O   O75       1.0  0.3007  0.6554  0.5751  1.0000
  O   O76       1.0  0.3879000000000001  0.04999999999999994  0.8181  1.0000
  O   O77       1.0  0.9197000000000002  0.3446  0.6453  1.0000
  O   O78       1.0  0.7681  0.95  0.3379  1.0000
  O   O79       1.0  0.6993  0.27440000000000003  0.3547000000000001  1.0000
  O   O80       1.0  0.6121000000000001  0.43020000000000014  0.6621000000000001  1.0000
  O   O81       1.0  0.3446000000000002  0.6453000000000002  0.9197000000000002  1.0000
  O   O82       1.0  0.9500000000000001  0.3379000000000001  0.7681000000000002  1.0000
  O   O83       1.0  0.27440000000000003  0.35470000000000007  0.6993  1.0000
  O   O84       1.0  0.4302000000000001  0.6621  0.6121000000000002  1.0000
  O   O85       1.0  0.7256000000000001  0.42489999999999994  0.0803  1.0000
  O   O86       1.0  0.5698  0.18190000000000003  0.23190000000000002  1.0000
  O   O87       1.0  0.6554  0.5751  0.3007000000000001  1.0000
  O   O88       1.0  0.04999999999999999  0.8181  0.3879  1.0000
  O   O89       1.0  0.5751000000000002  0.3007  0.6554000000000002  1.0000
  O   O90       1.0  0.8181  0.3879  0.05000000000000001  1.0000
  O   O91       1.0  0.4249000000000003  0.0803000000000001  0.7256000000000002  1.0000
  O   O92       1.0  0.18189999999999998  0.2319  0.5698  1.0000
  O   O93       1.0  0.35470000000000007  0.6993  0.2744  1.0000
  O   O94       1.0  0.6621000000000001  0.6121  0.4302000000000001  1.0000
  O   O95       1.0  0.6453  0.9197  0.3446000000000001  1.0000
  O   O96       1.0  0.3379000000000001  0.7681000000000001  0.9500000000000002  1.0000
