data_image0
_chemical_formula_structural       Ca12P8H96C168O52
_chemical_formula_sum              "Ca12 P8 H96 C168 O52"
_cell_length_a       9.5054
_cell_length_b       23.476
_cell_length_c       27.629
_cell_angle_alpha    90.0
_cell_angle_beta     90.0
_cell_angle_gamma    90.0

_space_group_name_H-M_alt    "P 1"
_space_group_IT_number       1

loop_
  _space_group_symop_operation_xyz
  'x, y, z'

loop_
  _atom_site_type_symbol
  _atom_site_label
  _atom_site_symmetry_multiplicity
  _atom_site_fract_x
  _atom_site_fract_y
  _atom_site_fract_z
  _atom_site_occupancy
  Ca  Ca1       1.0  0.34928  0.70144  0.87208  1.0000
  Ca  Ca2       1.0  0.65072  0.7985600000000003  0.87208  1.0000
  Ca  Ca3       1.0  0.34928  0.29856  0.62792  1.0000
  Ca  Ca4       1.0  0.65072  0.20144  0.62792  1.0000
  Ca  Ca5       1.0  0.65072  0.29856  0.12792  1.0000
  Ca  Ca6       1.0  0.34928  0.20144  0.12792  1.0000
  Ca  Ca7       1.0  0.65072  0.70144  0.37207999999999997  1.0000
  Ca  Ca8       1.0  0.34928  0.7985600000000003  0.37207999999999997  1.0000
  Ca  Ca9       1.0  0.0  0.7500000000000002  0.8933  1.0000
  Ca  Ca10      1.0  0.0  0.25  0.6067  1.0000
  Ca  Ca11      1.0  0.0  0.25  0.1067  1.0000
  Ca  Ca12      1.0  0.0  0.7500000000000002  0.3933  1.0000
  P   P1        1.0  0.3116  0.08372  0.8389  1.0000
  P   P2        1.0  0.6884  0.41628000000000004  0.8389  1.0000
  P   P3        1.0  0.3116  0.91628  0.6611  1.0000
  P   P4        1.0  0.6884  0.58372  0.6611  1.0000
  P   P5        1.0  0.6884  0.91628  0.1611  1.0000
  P   P6        1.0  0.3116  0.58372  0.1611  1.0000
  P   P7        1.0  0.6884  0.08372  0.3389  1.0000
  P   P8        1.0  0.3116  0.41628000000000004  0.3389  1.0000
  H   H1        1.0  0.4479  0.9939000000000002  0.794  1.0000
  H   H2        1.0  0.4537  0.8943000000000001  0.7994  1.0000
  H   H3        1.0  0.1453  0.8996000000000002  0.8985  1.0000
  H   H4        1.0  0.1492  0.9974  0.8976  1.0000
  H   H5        1.0  0.4329  0.1296  0.9224999999999999  1.0000
  H   H6        1.0  0.3594  0.1635  0.9971999999999999  1.0000
  H   H7        1.0  0.9534  0.1331  0.9595  1.0000
  H   H8        1.0  0.0317  0.0988  0.8851  1.0000
  H   H9        1.0  0.259  0.17760000000000004  0.7792  1.0000
  H   H10       1.0  0.0906  0.20680000000000007  0.7239  1.0000
  H   H11       1.0  0.8766  0.0602  0.7437999999999998  1.0000
  H   H12       1.0  0.0545  0.029200000000000007  0.7984  1.0000
  H   H13       1.0  0.5521  0.5061  0.794  1.0000
  H   H14       1.0  0.5463  0.6057  0.7994  1.0000
  H   H15       1.0  0.8547000000000001  0.6004  0.8985  1.0000
  H   H16       1.0  0.8508  0.5026  0.8976  1.0000
  H   H17       1.0  0.5671  0.3704000000000001  0.9224999999999999  1.0000
  H   H18       1.0  0.6406  0.3365  0.9971999999999999  1.0000
  H   H19       1.0  0.0466  0.3669  0.9595  1.0000
  H   H20       1.0  0.9682999999999999  0.4012  0.8851  1.0000
  H   H21       1.0  0.7410000000000001  0.3224  0.7792  1.0000
  H   H22       1.0  0.9094  0.29320000000000007  0.7239  1.0000
  H   H23       1.0  0.1234  0.4398  0.7437999999999998  1.0000
  H   H24       1.0  0.9455  0.4708  0.7984  1.0000
  H   H25       1.0  0.4479  0.006100000000000001  0.7059999999999998  1.0000
  H   H26       1.0  0.4537  0.10570000000000003  0.7006  1.0000
  H   H27       1.0  0.1453  0.1004  0.6015  1.0000
  H   H28       1.0  0.1492  0.0026000000000000003  0.6024  1.0000
  H   H29       1.0  0.4329  0.8704000000000001  0.5775  1.0000
  H   H30       1.0  0.3594  0.8365000000000002  0.5028  1.0000
  H   H31       1.0  0.9534  0.8669  0.5405  1.0000
  H   H32       1.0  0.0317  0.9012  0.6149  1.0000
  H   H33       1.0  0.259  0.8224000000000002  0.7208  1.0000
  H   H34       1.0  0.0906  0.7932  0.7761  1.0000
  H   H35       1.0  0.8766  0.9398  0.7562  1.0000
  H   H36       1.0  0.0545  0.9708000000000001  0.7015999999999999  1.0000
  H   H37       1.0  0.5521  0.4939000000000001  0.7059999999999998  1.0000
  H   H38       1.0  0.5463  0.3943  0.7006  1.0000
  H   H39       1.0  0.8547000000000001  0.39960000000000007  0.6015  1.0000
  H   H40       1.0  0.8508  0.4974  0.6024  1.0000
  H   H41       1.0  0.5671  0.6296000000000002  0.5775  1.0000
  H   H42       1.0  0.6406  0.6635  0.5028  1.0000
  H   H43       1.0  0.0466  0.6331000000000001  0.5405  1.0000
  H   H44       1.0  0.9682999999999999  0.5988000000000001  0.6149  1.0000
  H   H45       1.0  0.7410000000000001  0.6776  0.7208  1.0000
  H   H46       1.0  0.9094  0.7068000000000001  0.7761  1.0000
  H   H47       1.0  0.1234  0.5602  0.7562  1.0000
  H   H48       1.0  0.9455  0.5292000000000001  0.7015999999999999  1.0000
  H   H49       1.0  0.5521  0.006100000000000001  0.206  1.0000
  H   H50       1.0  0.5463  0.10570000000000003  0.2006  1.0000
  H   H51       1.0  0.8547000000000001  0.1004  0.1015  1.0000
  H   H52       1.0  0.8508  0.0026000000000000003  0.1024  1.0000
  H   H53       1.0  0.5671  0.8704000000000001  0.0775  1.0000
  H   H54       1.0  0.6406  0.8365000000000002  0.0028  1.0000
  H   H55       1.0  0.0466  0.8669  0.040499999999999994  1.0000
  H   H56       1.0  0.9682999999999999  0.9012  0.1149  1.0000
  H   H57       1.0  0.7410000000000001  0.8224000000000002  0.2208  1.0000
  H   H58       1.0  0.9094  0.7932  0.2761  1.0000
  H   H59       1.0  0.1234  0.9398  0.2562  1.0000
  H   H60       1.0  0.9455  0.9708000000000001  0.2016  1.0000
  H   H61       1.0  0.4479  0.4939000000000001  0.206  1.0000
  H   H62       1.0  0.4537  0.3943  0.2006  1.0000
  H   H63       1.0  0.1453  0.39960000000000007  0.1015  1.0000
  H   H64       1.0  0.1492  0.4974  0.1024  1.0000
  H   H65       1.0  0.4329  0.6296000000000002  0.0775  1.0000
  H   H66       1.0  0.3594  0.6635  0.0028  1.0000
  H   H67       1.0  0.9534  0.6331000000000001  0.040499999999999994  1.0000
  H   H68       1.0  0.0317  0.5988000000000001  0.1149  1.0000
  H   H69       1.0  0.259  0.6776  0.2208  1.0000
  H   H70       1.0  0.0906  0.7068000000000001  0.2761  1.0000
  H   H71       1.0  0.8766  0.5602  0.2562  1.0000
  H   H72       1.0  0.0545  0.5292000000000001  0.2016  1.0000
  H   H73       1.0  0.5521  0.9939000000000002  0.294  1.0000
  H   H74       1.0  0.5463  0.8943000000000001  0.2994  1.0000
  H   H75       1.0  0.8547000000000001  0.8996000000000002  0.3985  1.0000
  H   H76       1.0  0.8508  0.9974  0.3976  1.0000
  H   H77       1.0  0.5671  0.1296  0.4225  1.0000
  H   H78       1.0  0.6406  0.1635  0.4972  1.0000
  H   H79       1.0  0.0466  0.1331  0.45949999999999996  1.0000
  H   H80       1.0  0.9682999999999999  0.0988  0.3851  1.0000
  H   H81       1.0  0.7410000000000001  0.17760000000000004  0.2792  1.0000
  H   H82       1.0  0.9094  0.20680000000000007  0.2239  1.0000
  H   H83       1.0  0.1234  0.0602  0.2438  1.0000
  H   H84       1.0  0.9455  0.029200000000000007  0.2984  1.0000
  H   H85       1.0  0.4479  0.5061  0.294  1.0000
  H   H86       1.0  0.4537  0.6057  0.2994  1.0000
  H   H87       1.0  0.1453  0.6004  0.3985  1.0000
  H   H88       1.0  0.1492  0.5026  0.3976  1.0000
  H   H89       1.0  0.4329  0.3704000000000001  0.4225  1.0000
  H   H90       1.0  0.3594  0.3365  0.4972  1.0000
  H   H91       1.0  0.9534  0.3669  0.45949999999999996  1.0000
  H   H92       1.0  0.0317  0.4012  0.3851  1.0000
  H   H93       1.0  0.259  0.3224  0.2792  1.0000
  H   H94       1.0  0.0906  0.29320000000000007  0.2239  1.0000
  H   H95       1.0  0.8766  0.4398  0.2438  1.0000
  H   H96       1.0  0.0545  0.4708  0.2984  1.0000
  C   C1        1.0  0.2991  0.006300000000000002  0.84458  1.0000
  C   C2        1.0  0.3873  0.9749000000000002  0.81612  1.0000
  C   C3        1.0  0.3899  0.9153  0.8188899999999999  1.0000
  C   C4        1.0  0.2996  0.8873000000000002  0.8500799999999998  1.0000
  C   C5        1.0  0.2097  0.9187000000000002  0.8778  1.0000
  C   C6        1.0  0.2098  0.9767000000000002  0.8766  1.0000
  C   C7        1.0  0.3108  0.8244000000000001  0.8548999999999999  1.0000
  C   C8        1.0  0.2386  0.11000000000000003  0.89669  1.0000
  C   C9        1.0  0.3354  0.13010000000000002  0.9301  1.0000
  C   C10       1.0  0.2917  0.15090000000000003  0.9742999999999999  1.0000
  C   C11       1.0  0.148  0.15360000000000001  0.98571  1.0000
  C   C12       1.0  0.051  0.133  0.9522  1.0000
  C   C13       1.0  0.0985  0.1121  0.9081  1.0000
  C   C14       1.0  0.0994  0.1795  0.0313  1.0000
  C   C15       1.0  0.1709  0.10080000000000003  0.79534  1.0000
  C   C16       1.0  0.1815  0.1534  0.7722  1.0000
  C   C17       1.0  0.0813  0.17080000000000006  0.73935  1.0000
  C   C18       1.0  0.9682  0.1367  0.72868  1.0000
  C   C19       1.0  0.9548999999999999  0.0839  0.7507  1.0000
  C   C20       1.0  0.060700000000000004  0.0659  0.784  1.0000
  C   C21       1.0  0.8575999999999999  0.15740000000000004  0.6945899999999999  1.0000
  C   C22       1.0  0.7009  0.4937  0.84458  1.0000
  C   C23       1.0  0.6127  0.5251  0.81612  1.0000
  C   C24       1.0  0.6101000000000001  0.5847000000000001  0.8188899999999999  1.0000
  C   C25       1.0  0.7004  0.6127  0.8500799999999998  1.0000
  C   C26       1.0  0.7903  0.5813  0.8778  1.0000
  C   C27       1.0  0.7902  0.5233  0.8766  1.0000
  C   C28       1.0  0.6892  0.6756000000000001  0.8548999999999999  1.0000
  C   C29       1.0  0.7614000000000001  0.3900000000000001  0.89669  1.0000
  C   C30       1.0  0.6646  0.36990000000000006  0.9301  1.0000
  C   C31       1.0  0.7083  0.3491  0.9742999999999999  1.0000
  C   C32       1.0  0.852  0.3464  0.98571  1.0000
  C   C33       1.0  0.949  0.367  0.9522  1.0000
  C   C34       1.0  0.9015  0.38790000000000013  0.9081  1.0000
  C   C35       1.0  0.9005999999999998  0.32050000000000006  0.0313  1.0000
  C   C36       1.0  0.8291  0.3992000000000001  0.79534  1.0000
  C   C37       1.0  0.8185  0.3466000000000001  0.7722  1.0000
  C   C38       1.0  0.9186999999999999  0.3292  0.73935  1.0000
  C   C39       1.0  0.0318  0.3633  0.72868  1.0000
  C   C40       1.0  0.0451  0.4161000000000001  0.7507  1.0000
  C   C41       1.0  0.9393  0.4341  0.784  1.0000
  C   C42       1.0  0.1424  0.34260000000000007  0.6945899999999999  1.0000
  C   C43       1.0  0.2991  0.9937  0.65542  1.0000
  C   C44       1.0  0.3873  0.0251  0.68388  1.0000
  C   C45       1.0  0.3899  0.0847  0.68111  1.0000
  C   C46       1.0  0.2996  0.11270000000000001  0.64992  1.0000
  C   C47       1.0  0.2097  0.0813  0.6222  1.0000
  C   C48       1.0  0.2098  0.0233  0.6234  1.0000
  C   C49       1.0  0.3108  0.17560000000000003  0.6451  1.0000
  C   C50       1.0  0.2386  0.89  0.60331  1.0000
  C   C51       1.0  0.3354  0.8699  0.5699  1.0000
  C   C52       1.0  0.2917  0.8491  0.5257  1.0000
  C   C53       1.0  0.148  0.8464000000000002  0.51429  1.0000
  C   C54       1.0  0.051  0.867  0.5478  1.0000
  C   C55       1.0  0.0985  0.8879000000000002  0.5919  1.0000
  C   C56       1.0  0.0994  0.8205000000000002  0.4687  1.0000
  C   C57       1.0  0.1709  0.8992000000000001  0.70466  1.0000
  C   C58       1.0  0.1815  0.8466  0.7278  1.0000
  C   C59       1.0  0.0813  0.8292000000000002  0.76065  1.0000
  C   C60       1.0  0.9682  0.8633  0.77132  1.0000
  C   C61       1.0  0.9548999999999999  0.9161000000000002  0.7493  1.0000
  C   C62       1.0  0.060700000000000004  0.9341  0.716  1.0000
  C   C63       1.0  0.8575999999999999  0.8426000000000002  0.80541  1.0000
  C   C64       1.0  0.7009  0.5063000000000001  0.65542  1.0000
  C   C65       1.0  0.6127  0.4749000000000001  0.68388  1.0000
  C   C66       1.0  0.6101000000000001  0.4153  0.68111  1.0000
  C   C67       1.0  0.7004  0.3873000000000001  0.64992  1.0000
  C   C68       1.0  0.7903  0.4187  0.6222  1.0000
  C   C69       1.0  0.7902  0.4767000000000001  0.6234  1.0000
  C   C70       1.0  0.6892  0.3244  0.6451  1.0000
  C   C71       1.0  0.7614000000000001  0.61  0.60331  1.0000
  C   C72       1.0  0.6646  0.6301  0.5699  1.0000
  C   C73       1.0  0.7083  0.6509  0.5257  1.0000
  C   C74       1.0  0.852  0.6536000000000001  0.51429  1.0000
  C   C75       1.0  0.949  0.6330000000000001  0.5478  1.0000
  C   C76       1.0  0.9015  0.6121  0.5919  1.0000
  C   C77       1.0  0.9005999999999998  0.6795  0.4687  1.0000
  C   C78       1.0  0.8291  0.6008  0.70466  1.0000
  C   C79       1.0  0.8185  0.6534  0.7278  1.0000
  C   C80       1.0  0.9186999999999999  0.6708000000000001  0.76065  1.0000
  C   C81       1.0  0.0318  0.6367000000000002  0.77132  1.0000
  C   C82       1.0  0.0451  0.5839  0.7493  1.0000
  C   C83       1.0  0.9393  0.5659  0.716  1.0000
  C   C84       1.0  0.1424  0.6574  0.80541  1.0000
  C   C85       1.0  0.7009  0.9937  0.15541999999999997  1.0000
  C   C86       1.0  0.6127  0.0251  0.18388  1.0000
  C   C87       1.0  0.6101000000000001  0.0847  0.18110999999999997  1.0000
  C   C88       1.0  0.7004  0.11270000000000001  0.14992  1.0000
  C   C89       1.0  0.7903  0.0813  0.1222  1.0000
  C   C90       1.0  0.7902  0.0233  0.1234  1.0000
  C   C91       1.0  0.6892  0.17560000000000003  0.14509999999999998  1.0000
  C   C92       1.0  0.7614000000000001  0.89  0.10331  1.0000
  C   C93       1.0  0.6646  0.8699  0.0699  1.0000
  C   C94       1.0  0.7083  0.8491  0.025699999999999997  1.0000
  C   C95       1.0  0.852  0.8464000000000002  0.014289999999999999  1.0000
  C   C96       1.0  0.949  0.867  0.0478  1.0000
  C   C97       1.0  0.9015  0.8879000000000002  0.0919  1.0000
  C   C98       1.0  0.9005999999999998  0.8205000000000002  0.9687  1.0000
  C   C99       1.0  0.8291  0.8992000000000001  0.20466  1.0000
  C   C100      1.0  0.8185  0.8466  0.2278  1.0000
  C   C101      1.0  0.9186999999999999  0.8292000000000002  0.26065  1.0000
  C   C102      1.0  0.0318  0.8633  0.27132  1.0000
  C   C103      1.0  0.0451  0.9161000000000002  0.24929999999999997  1.0000
  C   C104      1.0  0.9393  0.9341  0.216  1.0000
  C   C105      1.0  0.1424  0.8426000000000002  0.30541  1.0000
  C   C106      1.0  0.2991  0.5063000000000001  0.15541999999999997  1.0000
  C   C107      1.0  0.3873  0.4749000000000001  0.18388  1.0000
  C   C108      1.0  0.3899  0.4153  0.18110999999999997  1.0000
  C   C109      1.0  0.2996  0.3873000000000001  0.14992  1.0000
  C   C110      1.0  0.2097  0.4187  0.1222  1.0000
  C   C111      1.0  0.2098  0.4767000000000001  0.1234  1.0000
  C   C112      1.0  0.3108  0.3244  0.14509999999999998  1.0000
  C   C113      1.0  0.2386  0.61  0.10331  1.0000
  C   C114      1.0  0.3354  0.6301  0.0699  1.0000
  C   C115      1.0  0.2917  0.6509  0.025699999999999997  1.0000
  C   C116      1.0  0.148  0.6536000000000001  0.014289999999999999  1.0000
  C   C117      1.0  0.051  0.6330000000000001  0.0478  1.0000
  C   C118      1.0  0.0985  0.6121  0.0919  1.0000
  C   C119      1.0  0.0994  0.6795  0.9687  1.0000
  C   C120      1.0  0.1709  0.6008  0.20466  1.0000
  C   C121      1.0  0.1815  0.6534  0.2278  1.0000
  C   C122      1.0  0.0813  0.6708000000000001  0.26065  1.0000
  C   C123      1.0  0.9682  0.6367000000000002  0.27132  1.0000
  C   C124      1.0  0.9548999999999999  0.5839  0.24929999999999997  1.0000
  C   C125      1.0  0.060700000000000004  0.5659  0.216  1.0000
  C   C126      1.0  0.8575999999999999  0.6574  0.30541  1.0000
  C   C127      1.0  0.7009  0.006300000000000002  0.34458  1.0000
  C   C128      1.0  0.6127  0.9749000000000002  0.3161199999999999  1.0000
  C   C129      1.0  0.6101000000000001  0.9153  0.31889  1.0000
  C   C130      1.0  0.7004  0.8873000000000002  0.35008  1.0000
  C   C131      1.0  0.7903  0.9187000000000002  0.37779999999999997  1.0000
  C   C132      1.0  0.7902  0.9767000000000002  0.3766  1.0000
  C   C133      1.0  0.6892  0.8244000000000001  0.3549  1.0000
  C   C134      1.0  0.7614000000000001  0.11000000000000003  0.39669  1.0000
  C   C135      1.0  0.6646  0.13010000000000002  0.4300999999999999  1.0000
  C   C136      1.0  0.7083  0.15090000000000003  0.4743  1.0000
  C   C137      1.0  0.852  0.15360000000000001  0.48571  1.0000
  C   C138      1.0  0.949  0.133  0.4522  1.0000
  C   C139      1.0  0.9015  0.1121  0.40809999999999996  1.0000
  C   C140      1.0  0.9005999999999998  0.1795  0.5313  1.0000
  C   C141      1.0  0.8291  0.10080000000000003  0.29534  1.0000
  C   C142      1.0  0.8185  0.1534  0.2722  1.0000
  C   C143      1.0  0.9186999999999999  0.17080000000000006  0.23935  1.0000
  C   C144      1.0  0.0318  0.1367  0.22868  1.0000
  C   C145      1.0  0.0451  0.0839  0.2507  1.0000
  C   C146      1.0  0.9393  0.0659  0.284  1.0000
  C   C147      1.0  0.1424  0.15740000000000004  0.19459  1.0000
  C   C148      1.0  0.2991  0.4937  0.34458  1.0000
  C   C149      1.0  0.3873  0.5251  0.3161199999999999  1.0000
  C   C150      1.0  0.3899  0.5847000000000001  0.31889  1.0000
  C   C151      1.0  0.2996  0.6127  0.35008  1.0000
  C   C152      1.0  0.2097  0.5813  0.37779999999999997  1.0000
  C   C153      1.0  0.2098  0.5233  0.3766  1.0000
  C   C154      1.0  0.3108  0.6756000000000001  0.3549  1.0000
  C   C155      1.0  0.2386  0.3900000000000001  0.39669  1.0000
  C   C156      1.0  0.3354  0.36990000000000006  0.4300999999999999  1.0000
  C   C157      1.0  0.2917  0.3491  0.4743  1.0000
  C   C158      1.0  0.148  0.3464  0.48571  1.0000
  C   C159      1.0  0.051  0.367  0.4522  1.0000
  C   C160      1.0  0.0985  0.38790000000000013  0.40809999999999996  1.0000
  C   C161      1.0  0.0994  0.32050000000000006  0.5313  1.0000
  C   C162      1.0  0.1709  0.3992000000000001  0.29534  1.0000
  C   C163      1.0  0.1815  0.3466000000000001  0.2722  1.0000
  C   C164      1.0  0.0813  0.3292  0.23935  1.0000
  C   C165      1.0  0.9682  0.3633  0.22868  1.0000
  C   C166      1.0  0.9548999999999999  0.4161000000000001  0.2507  1.0000
  C   C167      1.0  0.060700000000000004  0.4341  0.284  1.0000
  C   C168      1.0  0.8575999999999999  0.34260000000000007  0.19459  1.0000
  O   O1        1.0  0.21400000000000002  0.7977900000000002  0.87628  1.0000
  O   O2        1.0  0.4181  0.7990500000000003  0.83877  1.0000
  O   O3        1.0  0.9691000000000001  0.1836  0.03907  1.0000
  O   O4        1.0  0.1888  0.19751000000000002  0.06219  1.0000
  O   O5        1.0  0.8877000000000002  0.19655000000000006  0.66583  1.0000
  O   O6        1.0  0.7365  0.136  0.6950499999999998  1.0000
  O   O7        1.0  0.786  0.70221  0.87628  1.0000
  O   O8        1.0  0.5819000000000001  0.70095  0.83877  1.0000
  O   O9        1.0  0.030900000000000004  0.3164  0.03907  1.0000
  O   O10       1.0  0.8112  0.30249000000000004  0.06219  1.0000
  O   O11       1.0  0.11229999999999998  0.30345  0.66583  1.0000
  O   O12       1.0  0.2635  0.3640000000000001  0.6950499999999998  1.0000
  O   O13       1.0  0.21400000000000002  0.20221000000000003  0.62372  1.0000
  O   O14       1.0  0.4181  0.20095  0.6612299999999999  1.0000
  O   O15       1.0  0.9691000000000001  0.8164000000000001  0.46093  1.0000
  O   O16       1.0  0.1888  0.80249  0.43781  1.0000
  O   O17       1.0  0.8877000000000002  0.8034500000000002  0.83417  1.0000
  O   O18       1.0  0.7365  0.8640000000000002  0.80495  1.0000
  O   O19       1.0  0.786  0.29779  0.62372  1.0000
  O   O20       1.0  0.5819000000000001  0.29905  0.6612299999999999  1.0000
  O   O21       1.0  0.030900000000000004  0.6836  0.46093  1.0000
  O   O22       1.0  0.8112  0.6975100000000002  0.43781  1.0000
  O   O23       1.0  0.11229999999999998  0.69655  0.83417  1.0000
  O   O24       1.0  0.2635  0.636  0.80495  1.0000
  O   O25       1.0  0.786  0.20221000000000003  0.12371999999999997  1.0000
  O   O26       1.0  0.5819000000000001  0.20095  0.16122999999999998  1.0000
  O   O27       1.0  0.030900000000000004  0.8164000000000001  0.96093  1.0000
  O   O28       1.0  0.8112  0.80249  0.93781  1.0000
  O   O29       1.0  0.11229999999999998  0.8034500000000002  0.33417  1.0000
  O   O30       1.0  0.2635  0.8640000000000002  0.30495  1.0000
  O   O31       1.0  0.21400000000000002  0.29779  0.12371999999999997  1.0000
  O   O32       1.0  0.4181  0.29905  0.16122999999999998  1.0000
  O   O33       1.0  0.9691000000000001  0.6836  0.96093  1.0000
  O   O34       1.0  0.1888  0.6975100000000002  0.93781  1.0000
  O   O35       1.0  0.8877000000000002  0.69655  0.33417  1.0000
  O   O36       1.0  0.7365  0.636  0.30495  1.0000
  O   O37       1.0  0.786  0.7977900000000002  0.37627999999999995  1.0000
  O   O38       1.0  0.5819000000000001  0.7990500000000003  0.33877  1.0000
  O   O39       1.0  0.030900000000000004  0.1836  0.53907  1.0000
  O   O40       1.0  0.8112  0.19751000000000002  0.56219  1.0000
  O   O41       1.0  0.11229999999999998  0.19655000000000006  0.16583  1.0000
  O   O42       1.0  0.2635  0.136  0.19504999999999997  1.0000
  O   O43       1.0  0.21400000000000002  0.70221  0.37627999999999995  1.0000
  O   O44       1.0  0.4181  0.70095  0.33877  1.0000
  O   O45       1.0  0.9691000000000001  0.3164  0.53907  1.0000
  O   O46       1.0  0.1888  0.30249000000000004  0.56219  1.0000
  O   O47       1.0  0.8877000000000002  0.30345  0.16583  1.0000
  O   O48       1.0  0.7365  0.3640000000000001  0.19504999999999997  1.0000
  O   O49       1.0  0.5  0.7500000000000002  0.9330399999999999  1.0000
  O   O50       1.0  0.5  0.25  0.56696  1.0000
  O   O51       1.0  0.5  0.25  0.06696  1.0000
  O   O52       1.0  0.5  0.7500000000000002  0.43304  1.0000
