data_image0
_chemical_formula_structural       Nd8H24C72S12O48
_chemical_formula_sum              "Nd8 H24 C72 S12 O48"
_cell_length_a       12.1455
_cell_length_b       17.0072
_cell_length_c       25.593699999999995
_cell_angle_alpha    102.38499999999999
_cell_angle_beta     90.0
_cell_angle_gamma    90.0

_space_group_name_H-M_alt    "P 1"
_space_group_IT_number       1

loop_
  _space_group_symop_operation_xyz
  'x, y, z'

loop_
  _atom_site_type_symbol
  _atom_site_label
  _atom_site_symmetry_multiplicity
  _atom_site_fract_x
  _atom_site_fract_y
  _atom_site_fract_z
  _atom_site_occupancy
  Nd  Nd1       1.0  0.027399999999999997  0.9853700000000001  0.41899  1.0000
  Nd  Nd2       1.0  0.50092  0.46074999999999994  0.41717999999999994  1.0000
  Nd  Nd3       1.0  0.027399999999999997  0.51463  0.08100999999999997  1.0000
  Nd  Nd4       1.0  0.50092  0.03925  0.08282  1.0000
  Nd  Nd5       1.0  0.9726  0.01462999999999999  0.58101  1.0000
  Nd  Nd6       1.0  0.49908  0.53925  0.58282  1.0000
  Nd  Nd7       1.0  0.9726  0.48537  0.91899  1.0000
  Nd  Nd8       1.0  0.49908  0.96075  0.91718  1.0000
  H   H1        1.0  0.0161  0.07540000000000001  0.23569999999999997  1.0000
  H   H2        1.0  0.9003  0.0835  0.159  1.0000
  H   H3        1.0  0.23189999999999994  0.248  0.6039  1.0000
  H   H4        1.0  0.32949999999999996  0.3662  0.5894  1.0000
  H   H5        1.0  0.633  0.2675  0.5915  1.0000
  H   H6        1.0  0.745  0.14659999999999998  0.5747  1.0000
  H   H7        1.0  0.0161  0.4246  0.2643  1.0000
  H   H8        1.0  0.9003  0.4165  0.341  1.0000
  H   H9        1.0  0.23189999999999994  0.25199999999999995  0.8960999999999999  1.0000
  H   H10       1.0  0.32949999999999996  0.13379999999999997  0.9105999999999999  1.0000
  H   H11       1.0  0.633  0.2325  0.9085  1.0000
  H   H12       1.0  0.745  0.35340000000000005  0.9252999999999998  1.0000
  H   H13       1.0  0.9838999999999999  0.9246000000000002  0.7643  1.0000
  H   H14       1.0  0.09969999999999998  0.9165  0.8409999999999999  1.0000
  H   H15       1.0  0.7680999999999999  0.752  0.3961  1.0000
  H   H16       1.0  0.6704999999999999  0.6338000000000001  0.4106  1.0000
  H   H17       1.0  0.367  0.7325  0.4084999999999999  1.0000
  H   H18       1.0  0.255  0.8534  0.42529999999999996  1.0000
  H   H19       1.0  0.9838999999999999  0.5754  0.7357  1.0000
  H   H20       1.0  0.09969999999999998  0.5835000000000002  0.659  1.0000
  H   H21       1.0  0.7680999999999999  0.7480000000000002  0.10389999999999999  1.0000
  H   H22       1.0  0.6704999999999999  0.8662  0.08939999999999998  1.0000
  H   H23       1.0  0.367  0.7675000000000002  0.0915  1.0000
  H   H24       1.0  0.255  0.6466  0.0747  1.0000
  C   C1        1.0  0.8972  0.012099999999999993  0.2633  1.0000
  C   C2        1.0  0.9461  0.052899999999999996  0.23009999999999994  1.0000
  C   C3        1.0  0.8791  0.05769999999999998  0.18599999999999997  1.0000
  C   C4        1.0  0.7811999999999999  0.02100000000000001  0.187  1.0000
  C   C5        1.0  0.9431  0.9965999999999999  0.3143  1.0000
  C   C6        1.0  0.6896999999999999  0.0202  0.1491  1.0000
  C   C7        1.0  0.1835  0.22079999999999997  0.5264  1.0000
  C   C8        1.0  0.2347  0.2628  0.571  1.0000
  C   C9        1.0  0.2921  0.3305  0.5626  1.0000
  C   C10       1.0  0.2868  0.33800000000000013  0.5111  1.0000
  C   C11       1.0  0.1159  0.145  0.5189  1.0000
  C   C12       1.0  0.33909999999999996  0.39719999999999994  0.485  1.0000
  C   C13       1.0  0.6588  0.2806  0.5156  1.0000
  C   C14       1.0  0.6667999999999998  0.2466  0.5589  1.0000
  C   C15       1.0  0.7309999999999999  0.1771  0.5493  1.0000
  C   C16       1.0  0.7709  0.1585  0.4981999999999999  1.0000
  C   C17       1.0  0.6009  0.3567  0.5114  1.0000
  C   C18       1.0  0.8467  0.09220000000000003  0.4736  1.0000
  C   C19       1.0  0.8972  0.4879  0.2367  1.0000
  C   C20       1.0  0.9461  0.4471  0.2699  1.0000
  C   C21       1.0  0.8791  0.4423  0.314  1.0000
  C   C22       1.0  0.7811999999999999  0.479  0.313  1.0000
  C   C23       1.0  0.9431  0.5034  0.1857  1.0000
  C   C24       1.0  0.6896999999999999  0.4798  0.3509  1.0000
  C   C25       1.0  0.1835  0.27919999999999995  0.9735999999999999  1.0000
  C   C26       1.0  0.2347  0.23720000000000005  0.929  1.0000
  C   C27       1.0  0.2921  0.16949999999999996  0.9374  1.0000
  C   C28       1.0  0.2868  0.162  0.9889  1.0000
  C   C29       1.0  0.1159  0.35500000000000004  0.9811  1.0000
  C   C30       1.0  0.33909999999999996  0.1028  0.015  1.0000
  C   C31       1.0  0.6588  0.21940000000000004  0.9844  1.0000
  C   C32       1.0  0.6667999999999998  0.25339999999999996  0.9410999999999999  1.0000
  C   C33       1.0  0.7309999999999999  0.3229  0.9507  1.0000
  C   C34       1.0  0.7709  0.3415  0.0018  1.0000
  C   C35       1.0  0.6009  0.14330000000000007  0.9886  1.0000
  C   C36       1.0  0.8467  0.4078000000000001  0.0264  1.0000
  C   C37       1.0  0.1028  0.9879  0.7367  1.0000
  C   C38       1.0  0.0539  0.9471000000000002  0.7698999999999999  1.0000
  C   C39       1.0  0.12089999999999998  0.9423  0.8139999999999997  1.0000
  C   C40       1.0  0.21879999999999997  0.979  0.813  1.0000
  C   C41       1.0  0.05689999999999999  0.0033999999999999907  0.6857  1.0000
  C   C42       1.0  0.3103  0.9798  0.8508999999999999  1.0000
  C   C43       1.0  0.8165  0.7792  0.4736  1.0000
  C   C44       1.0  0.7652999999999999  0.7372  0.429  1.0000
  C   C45       1.0  0.7079  0.6695  0.43739999999999996  1.0000
  C   C46       1.0  0.7132  0.662  0.4889  1.0000
  C   C47       1.0  0.8841  0.855  0.48109999999999997  1.0000
  C   C48       1.0  0.6609  0.6028  0.515  1.0000
  C   C49       1.0  0.3412  0.7194000000000003  0.48439999999999994  1.0000
  C   C50       1.0  0.33319999999999994  0.7534  0.4411  1.0000
  C   C51       1.0  0.269  0.8228999999999999  0.4507  1.0000
  C   C52       1.0  0.2291  0.8415000000000002  0.5018  1.0000
  C   C53       1.0  0.3991  0.6432999999999999  0.48859999999999987  1.0000
  C   C54       1.0  0.1533  0.9078  0.5264  1.0000
  C   C55       1.0  0.1028  0.5121  0.7633  1.0000
  C   C56       1.0  0.0539  0.5529000000000002  0.7301  1.0000
  C   C57       1.0  0.12089999999999998  0.5576999999999999  0.6859999999999998  1.0000
  C   C58       1.0  0.21879999999999997  0.521  0.687  1.0000
  C   C59       1.0  0.05689999999999999  0.4966  0.8143  1.0000
  C   C60       1.0  0.3103  0.5202  0.6491  1.0000
  C   C61       1.0  0.8165  0.7208  0.0264  1.0000
  C   C62       1.0  0.7652999999999999  0.7628000000000001  0.071  1.0000
  C   C63       1.0  0.7079  0.8305  0.0626  1.0000
  C   C64       1.0  0.7132  0.838  0.0111  1.0000
  C   C65       1.0  0.8841  0.645  0.0189  1.0000
  C   C66       1.0  0.6609  0.8972  0.9849999999999999  1.0000
  C   C67       1.0  0.3412  0.7806  0.0156  1.0000
  C   C68       1.0  0.33319999999999994  0.7466  0.0589  1.0000
  C   C69       1.0  0.269  0.6771  0.0493  1.0000
  C   C70       1.0  0.2291  0.6585  0.9981999999999998  1.0000
  C   C71       1.0  0.3991  0.8567  0.011399999999999999  1.0000
  C   C72       1.0  0.1533  0.5922  0.9735999999999999  1.0000
  S   S1        1.0  0.7698299999999999  0.97787  0.24148  1.0000
  S   S2        1.0  0.20991  0.26159  0.47243  1.0000
  S   S3        1.0  0.72473  0.2249800000000001  0.46174  1.0000
  S   S4        1.0  0.7698299999999999  0.52213  0.25852  1.0000
  S   S5        1.0  0.20991  0.23841000000000004  0.02757  1.0000
  S   S6        1.0  0.72473  0.27502  0.03826  1.0000
  S   S7        1.0  0.23016999999999996  0.02213000000000001  0.75852  1.0000
  S   S8        1.0  0.7900899999999998  0.73841  0.52757  1.0000
  S   S9        1.0  0.27527  0.77502  0.53826  1.0000
  S   S10       1.0  0.23016999999999996  0.47787  0.7414799999999999  1.0000
  S   S11       1.0  0.7900899999999998  0.7615900000000002  0.97243  1.0000
  S   S12       1.0  0.27527  0.72498  0.96174  1.0000
  O   O1        1.0  0.8951999999999999  0.9481  0.3372  1.0000
  O   O2        1.0  0.0284  0.03389999999999999  0.3335  1.0000
  O   O3        1.0  0.7005  0.0592  0.1127  1.0000
  O   O4        1.0  0.6011  0.9826000000000001  0.1543  1.0000
  O   O5        1.0  0.0888  0.11397999999999998  0.47207999999999994  1.0000
  O   O6        1.0  0.09299999999999999  0.1192  0.5601  1.0000
  O   O7        1.0  0.3889  0.4576  0.512  1.0000
  O   O8        1.0  0.3349  0.38560000000000016  0.4347  1.0000
  O   O9        1.0  0.5797  0.3651  0.4651  1.0000
  O   O10       1.0  0.5799  0.4058  0.5545  1.0000
  O   O11       1.0  0.8696  0.08329999999999999  0.4252  1.0000
  O   O12       1.0  0.8877999999999999  0.04855  0.50245  1.0000
  O   O13       1.0  0.8951999999999999  0.5519000000000001  0.1628  1.0000
  O   O14       1.0  0.0284  0.4661  0.1665  1.0000
  O   O15       1.0  0.7005  0.4408  0.3873  1.0000
  O   O16       1.0  0.6011  0.5174  0.3457  1.0000
  O   O17       1.0  0.0888  0.38602  0.02792  1.0000
  O   O18       1.0  0.09299999999999999  0.3808000000000001  0.9398999999999998  1.0000
  O   O19       1.0  0.3889  0.042399999999999986  0.9879999999999999  1.0000
  O   O20       1.0  0.3349  0.1144  0.0653  1.0000
  O   O21       1.0  0.5797  0.1349  0.0349  1.0000
  O   O22       1.0  0.5799  0.09420000000000002  0.9455  1.0000
  O   O23       1.0  0.8696  0.4167  0.0748  1.0000
  O   O24       1.0  0.8877999999999999  0.4514500000000001  0.99755  1.0000
  O   O25       1.0  0.10479999999999999  0.051900000000000016  0.6628  1.0000
  O   O26       1.0  0.9715999999999999  0.9661  0.6664999999999999  1.0000
  O   O27       1.0  0.2995  0.9407999999999999  0.8873  1.0000
  O   O28       1.0  0.3989  0.017399999999999926  0.8456999999999999  1.0000
  O   O29       1.0  0.9111999999999999  0.88602  0.52792  1.0000
  O   O30       1.0  0.907  0.8808  0.43989999999999996  1.0000
  O   O31       1.0  0.6111  0.5424  0.488  1.0000
  O   O32       1.0  0.6650999999999999  0.6144  0.5653  1.0000
  O   O33       1.0  0.4203  0.6349  0.5349  1.0000
  O   O34       1.0  0.4201  0.5942  0.44549999999999995  1.0000
  O   O35       1.0  0.13039999999999996  0.9167000000000002  0.5748  1.0000
  O   O36       1.0  0.1122  0.95145  0.49755  1.0000
  O   O37       1.0  0.10479999999999999  0.4481  0.8372  1.0000
  O   O38       1.0  0.9715999999999999  0.5339000000000002  0.8335  1.0000
  O   O39       1.0  0.2995  0.5592  0.6127  1.0000
  O   O40       1.0  0.3989  0.4826  0.6543  1.0000
  O   O41       1.0  0.9111999999999999  0.61398  0.97208  1.0000
  O   O42       1.0  0.907  0.6192  0.0601  1.0000
  O   O43       1.0  0.6111  0.9576  0.012  1.0000
  O   O44       1.0  0.6650999999999999  0.8856  0.9346999999999999  1.0000
  O   O45       1.0  0.4203  0.8651  0.9651  1.0000
  O   O46       1.0  0.4201  0.9057999999999999  0.054499999999999986  1.0000
  O   O47       1.0  0.13039999999999996  0.5832999999999999  0.9251999999999998  1.0000
  O   O48       1.0  0.1122  0.54855  0.00245  1.0000
