data_image0
_chemical_formula_structural       Nd8H24C72S12O48
_chemical_formula_sum              "Nd8 H24 C72 S12 O48"
_cell_length_a       12.1799
_cell_length_b       16.9836
_cell_length_c       25.7802
_cell_angle_alpha    102.109
_cell_angle_beta     90.0
_cell_angle_gamma    90.0

_space_group_name_H-M_alt    "P 1"
_space_group_IT_number       1

loop_
  _space_group_symop_operation_xyz
  'x, y, z'

loop_
  _atom_site_type_symbol
  _atom_site_label
  _atom_site_symmetry_multiplicity
  _atom_site_fract_x
  _atom_site_fract_y
  _atom_site_fract_z
  _atom_site_occupancy
  Nd  Nd1       1.0  0.47639  0.48566  0.4184800000000001  1.0000
  Nd  Nd2       1.0  0.9984499999999998  0.96057  0.4174900000000001  1.0000
  Nd  Nd3       1.0  0.47639  0.014340000000000009  0.08152000000000002  1.0000
  Nd  Nd4       1.0  0.9984499999999998  0.53943  0.08251  1.0000
  Nd  Nd5       1.0  0.52361  0.51434  0.58152  1.0000
  Nd  Nd6       1.0  0.0015499999999999997  0.03942999999999999  0.58251  1.0000
  Nd  Nd7       1.0  0.52361  0.98566  0.91848  1.0000
  Nd  Nd8       1.0  0.0015499999999999997  0.46057  0.91749  1.0000
  H   H1        1.0  0.7146999999999999  0.67  0.5792  1.0000
  H   H2        1.0  0.825  0.794  0.5946  1.0000
  H   H3        1.0  0.4897  0.5808  0.23900000000000002  1.0000
  H   H4        1.0  0.6  0.5886  0.1615  1.0000
  H   H5        1.0  0.2683  0.7442000000000001  0.6024000000000002  1.0000
  H   H6        1.0  0.17319999999999997  0.8647  0.5893  1.0000
  H   H7        1.0  0.7146999999999999  0.8300000000000002  0.9208000000000001  1.0000
  H   H8        1.0  0.825  0.7060000000000002  0.9054  1.0000
  H   H9        1.0  0.4897  0.9192000000000002  0.261  1.0000
  H   H10       1.0  0.6  0.9114  0.3385  1.0000
  H   H11       1.0  0.2683  0.7558000000000004  0.8976000000000002  1.0000
  H   H12       1.0  0.17319999999999997  0.6353  0.9107  1.0000
  H   H13       1.0  0.2853  0.33  0.4208  1.0000
  H   H14       1.0  0.17499999999999996  0.206  0.4054  1.0000
  H   H15       1.0  0.5103  0.4192  0.761  1.0000
  H   H16       1.0  0.4  0.4114  0.8385  1.0000
  H   H17       1.0  0.7316999999999999  0.2558  0.3976  1.0000
  H   H18       1.0  0.8267999999999999  0.1353  0.4107  1.0000
  H   H19       1.0  0.2853  0.17  0.0792  1.0000
  H   H20       1.0  0.17499999999999996  0.294  0.0946  1.0000
  H   H21       1.0  0.5103  0.08080000000000001  0.739  1.0000
  H   H22       1.0  0.4  0.08860000000000003  0.6615000000000001  1.0000
  H   H23       1.0  0.7316999999999999  0.2442  0.10240000000000003  1.0000
  H   H24       1.0  0.8267999999999999  0.3647  0.0893  1.0000
  C   C1        1.0  0.72  0.6643000000000002  0.4996  1.0000
  C   C2        1.0  0.74  0.6939000000000002  0.5522  1.0000
  C   C3        1.0  0.8050999999999999  0.7654000000000002  0.5611  1.0000
  C   C4        1.0  0.8341  0.7866  0.5159  1.0000
  C   C5        1.0  0.6503  0.5957  0.4754000000000001  1.0000
  C   C6        1.0  0.8972999999999999  0.8585  0.5112  1.0000
  C   C7        1.0  0.6067  0.5161  0.2653  1.0000
  C   C8        1.0  0.5587  0.5573  0.2326  1.0000
  C   C9        1.0  0.6221  0.5620000000000003  0.1878  1.0000
  C   C10       1.0  0.7202  0.5229  0.1876  1.0000
  C   C11       1.0  0.5631  0.5004  0.3156  1.0000
  C   C12       1.0  0.8107  0.5208  0.1494  1.0000
  C   C13       1.0  0.3148  0.718  0.5252  1.0000
  C   C14       1.0  0.2652  0.7599  0.57  1.0000
  C   C15       1.0  0.209  0.8289  0.5624  1.0000
  C   C16       1.0  0.2134  0.8371000000000002  0.5108  1.0000
  C   C17       1.0  0.3812  0.6430000000000001  0.5173  1.0000
  C   C18       1.0  0.16  0.8977000000000002  0.4852  1.0000
  C   C19       1.0  0.72  0.8357  0.00040000000000000013  1.0000
  C   C20       1.0  0.74  0.8061  0.9478  1.0000
  C   C21       1.0  0.8050999999999999  0.7346  0.9389000000000001  1.0000
  C   C22       1.0  0.8341  0.7134  0.9841  1.0000
  C   C23       1.0  0.6503  0.9043  0.024600000000000007  1.0000
  C   C24       1.0  0.8972999999999999  0.6415  0.9888  1.0000
  C   C25       1.0  0.6067  0.9839  0.2347  1.0000
  C   C26       1.0  0.5587  0.9427  0.2674  1.0000
  C   C27       1.0  0.6221  0.938  0.3122  1.0000
  C   C28       1.0  0.7202  0.9771000000000001  0.3124  1.0000
  C   C29       1.0  0.5631  0.9996000000000003  0.1844  1.0000
  C   C30       1.0  0.8107  0.9792  0.35060000000000013  1.0000
  C   C31       1.0  0.3148  0.782  0.9748  1.0000
  C   C32       1.0  0.2652  0.7401  0.93  1.0000
  C   C33       1.0  0.209  0.6711  0.9376  1.0000
  C   C34       1.0  0.2134  0.6629  0.9892000000000002  1.0000
  C   C35       1.0  0.3812  0.857  0.9827000000000001  1.0000
  C   C36       1.0  0.16  0.6023  0.0148  1.0000
  C   C37       1.0  0.28  0.3357000000000001  0.5004  1.0000
  C   C38       1.0  0.26  0.3061000000000001  0.4478000000000001  1.0000
  C   C39       1.0  0.1949  0.23460000000000011  0.4389  1.0000
  C   C40       1.0  0.16589999999999996  0.2134000000000001  0.4841  1.0000
  C   C41       1.0  0.3497  0.4043  0.5246  1.0000
  C   C42       1.0  0.1027  0.14150000000000001  0.4888000000000001  1.0000
  C   C43       1.0  0.3933  0.4839  0.7347  1.0000
  C   C44       1.0  0.4413  0.4427000000000001  0.7674  1.0000
  C   C45       1.0  0.3779  0.438  0.8122  1.0000
  C   C46       1.0  0.2798  0.4771  0.8124  1.0000
  C   C47       1.0  0.4369  0.4996  0.6844  1.0000
  C   C48       1.0  0.18929999999999997  0.4792  0.8506  1.0000
  C   C49       1.0  0.6851999999999999  0.28200000000000003  0.47480000000000006  1.0000
  C   C50       1.0  0.7348  0.24010000000000004  0.43  1.0000
  C   C51       1.0  0.791  0.17110000000000003  0.43760000000000004  1.0000
  C   C52       1.0  0.7866  0.16290000000000007  0.4892000000000001  1.0000
  C   C53       1.0  0.6188  0.357  0.4827  1.0000
  C   C54       1.0  0.84  0.1023  0.5148  1.0000
  C   C55       1.0  0.28  0.16430000000000003  0.9996000000000002  1.0000
  C   C56       1.0  0.26  0.19390000000000004  0.05220000000000002  1.0000
  C   C57       1.0  0.1949  0.2654  0.061100000000000015  1.0000
  C   C58       1.0  0.16589999999999996  0.2866  0.0159  1.0000
  C   C59       1.0  0.3497  0.09570000000000005  0.9754000000000003  1.0000
  C   C60       1.0  0.1027  0.3585  0.011200000000000002  1.0000
  C   C61       1.0  0.3933  0.016100000000000055  0.7653  1.0000
  C   C62       1.0  0.4413  0.05730000000000001  0.7326  1.0000
  C   C63       1.0  0.3779  0.062  0.6878  1.0000
  C   C64       1.0  0.2798  0.02289999999999999  0.6876  1.0000
  C   C65       1.0  0.4369  0.0003999999999999501  0.8156  1.0000
  C   C66       1.0  0.18929999999999997  0.02080000000000002  0.6494  1.0000
  C   C67       1.0  0.6851999999999999  0.218  0.025200000000000007  1.0000
  C   C68       1.0  0.7348  0.2599  0.07  1.0000
  C   C69       1.0  0.791  0.3289  0.062400000000000004  1.0000
  C   C70       1.0  0.7866  0.3371  0.0108  1.0000
  C   C71       1.0  0.6188  0.14300000000000004  0.0173  1.0000
  C   C72       1.0  0.84  0.3977000000000001  0.9852  1.0000
  S   S1        1.0  0.7821999999999999  0.72186  0.46236  1.0000
  S   S2        1.0  0.7324  0.48023  0.24149000000000007  1.0000
  S   S3        1.0  0.2894  0.7616  0.47207  1.0000
  S   S4        1.0  0.7821999999999999  0.77814  0.03764  1.0000
  S   S5        1.0  0.7324  0.019770000000000003  0.25851  1.0000
  S   S6        1.0  0.2894  0.7384  0.02793  1.0000
  S   S7        1.0  0.21779999999999997  0.27814  0.53764  1.0000
  S   S8        1.0  0.2676  0.5197700000000001  0.7585100000000002  1.0000
  S   S9        1.0  0.7106  0.23840000000000006  0.5279300000000001  1.0000
  S   S10       1.0  0.21779999999999997  0.22186000000000003  0.9623600000000001  1.0000
  S   S11       1.0  0.2676  0.9802300000000002  0.7414900000000002  1.0000
  S   S12       1.0  0.7106  0.2616000000000001  0.9720700000000002  1.0000
  O   O1        1.0  0.6085  0.5532  0.5056  1.0000
  O   O2        1.0  0.6335  0.5828000000000001  0.4276000000000001  1.0000
  O   O3        1.0  0.9235  0.8634  0.465  1.0000
  O   O4        1.0  0.919  0.9072  0.5527  1.0000
  O   O5        1.0  0.6106  0.45240000000000014  0.338  1.0000
  O   O6        1.0  0.4777  0.5368  0.3345  1.0000
  O   O7        1.0  0.7989  0.5598  0.11260000000000002  1.0000
  O   O8        1.0  0.8961999999999999  0.4825  0.1533  1.0000
  O   O9        1.0  0.4095  0.6132  0.4711000000000001  1.0000
  O   O10       1.0  0.4  0.6155  0.558  1.0000
  O   O11       1.0  0.16509999999999997  0.8867000000000003  0.43600000000000005  1.0000
  O   O12       1.0  0.1128  0.9574  0.5135  1.0000
  O   O13       1.0  0.6085  0.9468  0.9944000000000002  1.0000
  O   O14       1.0  0.6335  0.9172  0.0724  1.0000
  O   O15       1.0  0.9235  0.6366000000000003  0.035  1.0000
  O   O16       1.0  0.919  0.5928000000000001  0.9473  1.0000
  O   O17       1.0  0.6106  0.047600000000000024  0.16200000000000006  1.0000
  O   O18       1.0  0.4777  0.9632000000000001  0.1655  1.0000
  O   O19       1.0  0.7989  0.9402  0.3874  1.0000
  O   O20       1.0  0.8961999999999999  0.017499999999999998  0.3467  1.0000
  O   O21       1.0  0.4095  0.8868  0.0289  1.0000
  O   O22       1.0  0.4  0.8845000000000001  0.9420000000000001  1.0000
  O   O23       1.0  0.16509999999999997  0.6133  0.064  1.0000
  O   O24       1.0  0.1128  0.5426000000000002  0.9865  1.0000
  O   O25       1.0  0.3915  0.4468  0.4944  1.0000
  O   O26       1.0  0.36649999999999994  0.4172000000000001  0.5724  1.0000
  O   O27       1.0  0.0765  0.1366  0.535  1.0000
  O   O28       1.0  0.081  0.0928  0.4473  1.0000
  O   O29       1.0  0.38939999999999997  0.5476000000000002  0.662  1.0000
  O   O30       1.0  0.5223  0.4632  0.6655  1.0000
  O   O31       1.0  0.2011  0.4402000000000001  0.8874  1.0000
  O   O32       1.0  0.1038  0.5175000000000001  0.8467000000000002  1.0000
  O   O33       1.0  0.5905  0.3868  0.5289  1.0000
  O   O34       1.0  0.6  0.38450000000000006  0.4420000000000001  1.0000
  O   O35       1.0  0.8349  0.1133  0.564  1.0000
  O   O36       1.0  0.8871999999999999  0.04260000000000003  0.48650000000000004  1.0000
  O   O37       1.0  0.3915  0.0532  0.005600000000000001  1.0000
  O   O38       1.0  0.36649999999999994  0.08280000000000004  0.9276  1.0000
  O   O39       1.0  0.0765  0.36340000000000006  0.965  1.0000
  O   O40       1.0  0.081  0.4072000000000001  0.052700000000000004  1.0000
  O   O41       1.0  0.38939999999999997  0.9524000000000001  0.8380000000000001  1.0000
  O   O42       1.0  0.5223  0.036800000000000006  0.8345  1.0000
  O   O43       1.0  0.2011  0.05980000000000001  0.6126  1.0000
  O   O44       1.0  0.1038  0.9825  0.6533000000000002  1.0000
  O   O45       1.0  0.5905  0.11320000000000009  0.9711000000000002  1.0000
  O   O46       1.0  0.6  0.11550000000000005  0.058  1.0000
  O   O47       1.0  0.8349  0.3867  0.9360000000000002  1.0000
  O   O48       1.0  0.8871999999999999  0.4574000000000001  0.0135  1.0000
