data_image0
_chemical_formula_structural       Cd2H28C44N6O4Cd2H28C44N6O4
_chemical_formula_sum              "Cd4 H56 C88 N12 O8"
_cell_length_a       11.392
_cell_length_b       15.5684
_cell_length_c       17.668499999999998
_cell_angle_alpha    82.4152
_cell_angle_beta     71.193
_cell_angle_gamma    68.5389

_symmetry_space_group_name_H-M    'P 1'
_symmetry_Int_Tables_number       1

loop_
  _symmetry_equiv_pos_as_xyz
  'x,y,z'

loop_
  _atom_site_type_symbol
  _atom_site_label
  _atom_site_symmetry_multiplicity
  _atom_site_fract_x
  _atom_site_fract_y
  _atom_site_fract_z
  _atom_site_occupancy
  Cd  Cd1       1.0  0.15041000000000004  0.08587000000000003  0.54435  1.0000
  Cd  Cd2       1.0  0.21937000000000004  0.58587  0.04435  1.0000
  H   H1        1.0  0.5097  0.21370000000000003  0.3787  1.0000
  H   H2        1.0  0.5945  0.3344000000000001  0.338  1.0000
  H   H3        1.0  0.2763  0.5013  0.4987  1.0000
  H   H4        1.0  0.1915  0.3808  0.5324  1.0000
  H   H5        1.0  0.6833000000000002  0.4347  0.3181  1.0000
  H   H6        1.0  0.8446  0.4451  0.2029  1.0000
  H   H7        1.0  0.04330000000000002  0.4469  0.11310000000000003  1.0000
  H   H8        1.0  0.021099999999999865  0.6656000000000002  0.2128  1.0000
  H   H9        1.0  0.8194  0.6722  0.3048  1.0000
  H   H10       1.0  0.34070000000000006  0.6066000000000003  0.4532  1.0000
  H   H11       1.0  0.5540000000000002  0.8111  0.3897  1.0000
  H   H12       1.0  0.4396999999999998  0.9535000000000001  0.4487  1.0000
  H   H13       1.0  0.12069999999999989  0.8889  0.5423  1.0000
  H   H14       1.0  0.22739999999999988  0.7429000000000002  0.4889  1.0000
  H   H15       1.0  0.8978999999999999  0.7137  0.8787  1.0000
  H   H16       1.0  0.7331000000000002  0.8344  0.838  1.0000
  H   H17       1.0  0.7237000000000001  0.0013000000000000012  0.9987  1.0000
  H   H18       1.0  0.8953  0.8808  0.0324  1.0000
  H   H19       1.0  0.5639000000000002  0.9347  0.8181  1.0000
  H   H20       1.0  0.5073999999999999  0.9451  0.7029  1.0000
  H   H21       1.0  0.3966999999999999  0.9469000000000002  0.6131  1.0000
  H   H22       1.0  0.10050000000000002  0.1656  0.7128  1.0000
  H   H23       1.0  0.20359999999999984  0.1722  0.8048000000000002  1.0000
  H   H24       1.0  0.5995  0.1066  0.9532  1.0000
  H   H25       1.0  0.24520000000000006  0.3111000000000001  0.8897  1.0000
  H   H26       1.0  0.1581000000000001  0.4535  0.9487  1.0000
  H   H27       1.0  0.4481  0.3889000000000001  0.0423  1.0000
  H   H28       1.0  0.5408  0.24290000000000003  0.9889  1.0000
  C   C1        1.0  0.2891  0.2078  0.48440000000000005  1.0000
  C   C2        1.0  0.3404999999999999  0.2872  0.4592  1.0000
  C   C3        1.0  0.46100000000000013  0.2728000000000001  0.4022  1.0000
  C   C4        1.0  0.5124000000000002  0.34490000000000004  0.3787  1.0000
  C   C5        1.0  0.4461  0.4303  0.4135  1.0000
  C   C6        1.0  0.3244000000000001  0.4437  0.4727  1.0000
  C   C7        1.0  0.2748  0.37090000000000006  0.49310000000000004  1.0000
  C   C8        1.0  0.503  0.5067  0.3905  1.0000
  C   C9        1.0  0.6282  0.4941000000000001  0.3395  1.0000
  C   C10       1.0  0.6740999999999999  0.5681000000000003  0.3195  1.0000
  C   C11       1.0  0.8076  0.5588  0.2636  1.0000
  C   C12       1.0  0.8775  0.4922  0.2058  1.0000
  C   C13       1.0  0.9961  0.494  0.1518  1.0000
  C   C14       1.0  0.9829  0.6216  0.2098  1.0000
  C   C15       1.0  0.8632999999999998  0.6253  0.2657  1.0000
  C   C16       1.0  0.4285999999999999  0.5946  0.4192  1.0000
  C   C17       1.0  0.47919999999999996  0.6656000000000002  0.3994  1.0000
  C   C18       1.0  0.4055000000000001  0.7596  0.433  1.0000
  C   C19       1.0  0.4645999999999999  0.8249000000000002  0.4217  1.0000
  C   C20       1.0  0.39509999999999995  0.9105000000000001  0.4567  1.0000
  C   C21       1.0  0.2107  0.8725  0.5111  1.0000
  C   C22       1.0  0.2734999999999999  0.7851000000000002  0.47930000000000006  1.0000
  C   C23       1.0  0.01869999999999993  0.7078000000000001  0.9844000000000002  1.0000
  C   C24       1.0  0.9130999999999998  0.7872000000000002  0.9592000000000002  1.0000
  C   C25       1.0  0.8639999999999997  0.7728000000000003  0.9022  1.0000
  C   C26       1.0  0.7639999999999998  0.8449000000000002  0.8787  1.0000
  C   C27       1.0  0.7101000000000001  0.9303  0.9135  1.0000
  C   C28       1.0  0.7591999999999999  0.9437  0.9727000000000001  1.0000
  C   C29       1.0  0.8612  0.8709  0.9931  1.0000
  C   C30       1.0  0.5997999999999999  0.006700000000000002  0.8905  1.0000
  C   C31       1.0  0.5381999999999998  0.9941  0.8395  1.0000
  C   C32       1.0  0.43830000000000013  0.0681  0.8195  1.0000
  C   C33       1.0  0.37000000000000005  0.058800000000000005  0.7636  1.0000
  C   C34       1.0  0.4244999999999999  0.9922  0.7058  1.0000
  C   C35       1.0  0.3580999999999998  0.9940000000000002  0.6518  1.0000
  C   C36       1.0  0.18570000000000003  0.12159999999999999  0.7098  1.0000
  C   C37       1.0  0.24569999999999997  0.1253  0.7657  1.0000
  C   C38       1.0  0.5575999999999999  0.09460000000000003  0.9192  1.0000
  C   C39       1.0  0.4558  0.1656  0.8994  1.0000
  C   C40       1.0  0.40190000000000003  0.2596  0.933  1.0000
  C   C41       1.0  0.2887999999999999  0.3249  0.9217000000000001  1.0000
  C   C42       1.0  0.2376999999999999  0.4105  0.9567  1.0000
  C   C43       1.0  0.40569999999999995  0.3725000000000001  0.011100000000000004  1.0000
  C   C44       1.0  0.46210000000000007  0.2851000000000001  0.9793000000000001  1.0000
  N   N1        1.0  0.6002  0.653  0.3494  1.0000
  N   N2        1.0  0.0467999999999999  0.5587000000000002  0.1517  1.0000
  N   N3        1.0  0.27029999999999993  0.9355000000000001  0.5003000000000001  1.0000
  N   N4        1.0  0.39740000000000003  0.15300000000000002  0.8494  1.0000
  N   N5        1.0  0.24279999999999996  0.0587  0.6517  1.0000
  N   N6        1.0  0.2939  0.4355  0.0003  1.0000
  O   O1        1.0  0.35790000000000005  0.12830000000000003  0.4635  1.0000
  O   O2        1.0  0.16830000000000003  0.23  0.5298  1.0000
  O   O3        1.0  0.050299999999999886  0.6283000000000002  0.9635  1.0000
  O   O4        1.0  0.07189999999999998  0.73  0.0298  1.0000
  Cd  Cd3       1.0  0.7806299999999999  0.4141300000000001  0.9556500000000002  1.0000
  Cd  Cd4       1.0  0.84959  0.9141300000000002  0.45565  1.0000
  H   H29       1.0  0.10209999999999993  0.2863000000000001  0.1213  1.0000
  H   H30       1.0  0.26689999999999997  0.1656  0.162  1.0000
  H   H31       1.0  0.27629999999999993  0.9987  0.0013  1.0000
  H   H32       1.0  0.1047  0.1192  0.9676  1.0000
  H   H33       1.0  0.4361  0.0653  0.1819  1.0000
  H   H34       1.0  0.4926  0.0549  0.2971  1.0000
  H   H35       1.0  0.6032999999999998  0.0531  0.3869  1.0000
  H   H36       1.0  0.8995  0.8344  0.2872  1.0000
  H   H37       1.0  0.7963999999999999  0.8278000000000001  0.1952  1.0000
  H   H38       1.0  0.4005000000000001  0.8934  0.0468  1.0000
  H   H39       1.0  0.7547999999999998  0.6889000000000002  0.1103  1.0000
  H   H40       1.0  0.8419000000000001  0.5465  0.0513  1.0000
  H   H41       1.0  0.5518999999999998  0.6111000000000002  0.9577  1.0000
  H   H42       1.0  0.4592  0.7571  0.011100000000000004  1.0000
  H   H43       1.0  0.4903000000000001  0.7863000000000002  0.6213  1.0000
  H   H44       1.0  0.4054999999999999  0.6656000000000002  0.662  1.0000
  H   H45       1.0  0.7237000000000001  0.4987  0.5013  1.0000
  H   H46       1.0  0.8085000000000001  0.6192  0.4676  1.0000
  H   H47       1.0  0.3167  0.5653000000000001  0.6819  1.0000
  H   H48       1.0  0.15539999999999995  0.5549  0.7971  1.0000
  H   H49       1.0  0.9567  0.5531  0.8869  1.0000
  H   H50       1.0  0.9789  0.3344000000000001  0.7872  1.0000
  H   H51       1.0  0.18059999999999987  0.3278  0.6952  1.0000
  H   H52       1.0  0.6593000000000001  0.3934000000000001  0.5468  1.0000
  H   H53       1.0  0.44599999999999995  0.18890000000000007  0.6103  1.0000
  H   H54       1.0  0.5603  0.0465  0.5513  1.0000
  H   H55       1.0  0.8793000000000001  0.11110000000000002  0.4577  1.0000
  H   H56       1.0  0.7726  0.2571  0.5111  1.0000
  C   C45       1.0  0.9813  0.2922  0.015600000000000001  1.0000
  C   C46       1.0  0.08690000000000002  0.2128  0.0408  1.0000
  C   C47       1.0  0.13600000000000004  0.22720000000000007  0.0978  1.0000
  C   C48       1.0  0.23599999999999996  0.1551  0.1213  1.0000
  C   C49       1.0  0.2899  0.0697  0.0865  1.0000
  C   C50       1.0  0.2408  0.0563  0.0273  1.0000
  C   C51       1.0  0.1388  0.1291  0.0069  1.0000
  C   C52       1.0  0.40019999999999994  0.9933  0.1095  1.0000
  C   C53       1.0  0.4618  0.005900000000000003  0.1605  1.0000
  C   C54       1.0  0.5617  0.9319  0.1805  1.0000
  C   C55       1.0  0.6299999999999998  0.9412000000000001  0.2364  1.0000
  C   C56       1.0  0.5755  0.007800000000000003  0.2942  1.0000
  C   C57       1.0  0.6419  0.006  0.3482  1.0000
  C   C58       1.0  0.8143  0.8784  0.2902  1.0000
  C   C59       1.0  0.7543  0.8747000000000003  0.2343  1.0000
  C   C60       1.0  0.44240000000000007  0.9054  0.08080000000000001  1.0000
  C   C61       1.0  0.5442  0.8344  0.10060000000000002  1.0000
  C   C62       1.0  0.5981  0.7404  0.067  1.0000
  C   C63       1.0  0.7112  0.6751  0.0783  1.0000
  C   C64       1.0  0.7623  0.5895  0.0433  1.0000
  C   C65       1.0  0.5943  0.6275000000000002  0.9889  1.0000
  C   C66       1.0  0.5379000000000002  0.7149  0.0207  1.0000
  C   C67       1.0  0.7109  0.7922  0.5156  1.0000
  C   C68       1.0  0.6595  0.7128  0.5408  1.0000
  C   C69       1.0  0.5390000000000003  0.7272  0.5978  1.0000
  C   C70       1.0  0.48760000000000003  0.6551  0.6213  1.0000
  C   C71       1.0  0.5539  0.5697000000000003  0.5865  1.0000
  C   C72       1.0  0.6756  0.5563000000000001  0.5273  1.0000
  C   C73       1.0  0.7251999999999998  0.6291000000000002  0.5069  1.0000
  C   C74       1.0  0.497  0.4933000000000001  0.6095  1.0000
  C   C75       1.0  0.3718  0.5059  0.6605  1.0000
  C   C76       1.0  0.3259  0.43190000000000006  0.6805  1.0000
  C   C77       1.0  0.19240000000000013  0.4412  0.7364  1.0000
  C   C78       1.0  0.12250000000000011  0.5078  0.7942  1.0000
  C   C79       1.0  0.0038999999999999946  0.506  0.8482  1.0000
  C   C80       1.0  0.01709999999999988  0.3784000000000001  0.7902000000000002  1.0000
  C   C81       1.0  0.1367  0.3747  0.7343  1.0000
  C   C82       1.0  0.5714  0.4054  0.5808  1.0000
  C   C83       1.0  0.5207999999999998  0.3344000000000001  0.6006  1.0000
  C   C84       1.0  0.5945000000000001  0.24040000000000006  0.567  1.0000
  C   C85       1.0  0.5354000000000002  0.17510000000000006  0.5783  1.0000
  C   C86       1.0  0.6049  0.08950000000000001  0.5433  1.0000
  C   C87       1.0  0.7893  0.1275  0.4889  1.0000
  C   C88       1.0  0.7264999999999997  0.21490000000000006  0.5207  1.0000
  N   N7        1.0  0.6026000000000001  0.8470000000000002  0.1506  1.0000
  N   N8        1.0  0.7572000000000001  0.9413  0.3483  1.0000
  N   N9        1.0  0.7061000000000002  0.5645  0.9997  1.0000
  N   N10       1.0  0.3998  0.347  0.6506  1.0000
  N   N11       1.0  0.9532000000000003  0.44130000000000014  0.8483  1.0000
  N   N12       1.0  0.7297  0.0645  0.4997  1.0000
  O   O5        1.0  0.9497  0.3717000000000001  0.03650000000000001  1.0000
  O   O6        1.0  0.9281000000000001  0.2700000000000001  0.9701999999999998  1.0000
  O   O7        1.0  0.6421  0.8717  0.5365  1.0000
  O   O8        1.0  0.8316999999999999  0.7700000000000002  0.4702  1.0000
