data_image0
_chemical_formula_structural       Zn6H36C36N24
_chemical_formula_sum              "Zn6 H36 C36 N24"
_cell_length_a       14.5755
_cell_length_b       14.5755
_cell_length_c       14.5755
_cell_angle_alpha    109.471
_cell_angle_beta     109.471
_cell_angle_gamma    109.471

_space_group_name_H-M_alt    "P 1"
_space_group_IT_number       1

loop_
  _space_group_symop_operation_xyz
  'x, y, z'

loop_
  _atom_site_type_symbol
  _atom_site_label
  _atom_site_symmetry_multiplicity
  _atom_site_fract_x
  _atom_site_fract_y
  _atom_site_fract_z
  _atom_site_occupancy
  Zn  Zn1       1.0  0.7500000000000002  0.5  0.24999999999999994  1.0000
  Zn  Zn2       1.0  0.25  0.5  0.75  1.0000
  Zn  Zn3       1.0  0.25  0.7500000000000001  0.4999999999999999  1.0000
  Zn  Zn4       1.0  0.7500000000000002  0.25  0.4999999999999999  1.0000
  Zn  Zn5       1.0  0.5000000000000001  0.7500000000000001  0.24999999999999994  1.0000
  Zn  Zn6       1.0  0.5000000000000001  0.2500000000000001  0.75  1.0000
  H   H1        1.0  0.6708000000000001  0.5387  0.4367  1.0000
  H   H2        1.0  0.10200000000000001  0.23410000000000009  0.5633  1.0000
  H   H3        1.0  0.8980000000000001  0.4613000000000001  0.1321  1.0000
  H   H4        1.0  0.3292  0.7659  0.8679  1.0000
  H   H5        1.0  0.13210000000000002  0.898  0.4613  1.0000
  H   H6        1.0  0.8679000000000003  0.3292  0.7658999999999999  1.0000
  H   H7        1.0  0.4367  0.6708  0.5387  1.0000
  H   H8        1.0  0.5633  0.10200000000000002  0.2341  1.0000
  H   H9        1.0  0.2341000000000001  0.5633000000000002  0.102  1.0000
  H   H10       1.0  0.5387000000000001  0.4366999999999999  0.6707999999999998  1.0000
  H   H11       1.0  0.7659  0.8679000000000002  0.3292  1.0000
  H   H12       1.0  0.4613  0.13209999999999997  0.898  1.0000
  H   H13       1.0  0.23410000000000006  0.10200000000000005  0.5633  1.0000
  H   H14       1.0  0.5387  0.6708  0.4367  1.0000
  H   H15       1.0  0.7659  0.3292  0.8679  1.0000
  H   H16       1.0  0.4613  0.898  0.1321  1.0000
  H   H17       1.0  0.6708000000000001  0.4367000000000001  0.5387  1.0000
  H   H18       1.0  0.10200000000000008  0.5633000000000002  0.2341  1.0000
  H   H19       1.0  0.898  0.1321  0.4613  1.0000
  H   H20       1.0  0.3292  0.8679000000000001  0.7658999999999999  1.0000
  H   H21       1.0  0.1321000000000001  0.4613000000000001  0.898  1.0000
  H   H22       1.0  0.8679000000000002  0.7659  0.3292  1.0000
  H   H23       1.0  0.4366999999999999  0.5387  0.6707999999999998  1.0000
  H   H24       1.0  0.5633  0.23410000000000003  0.102  1.0000
  H   H25       1.0  0.8031999999999999  0.3591000000000001  0.3591  1.0000
  H   H26       1.0  0.0  0.4441  0.6408999999999999  1.0000
  H   H27       1.0  3.046819730712927e-17  0.6409000000000002  0.4441  1.0000
  H   H28       1.0  0.19680000000000006  0.5559000000000001  0.5558999999999998  1.0000
  H   H29       1.0  0.44410000000000005  0.0  0.6408999999999999  1.0000
  H   H30       1.0  0.5559000000000001  0.19679999999999995  0.5558999999999998  1.0000
  H   H31       1.0  0.3591  0.8032  0.3591  1.0000
  H   H32       1.0  0.6409  0.0  0.4441  1.0000
  H   H33       1.0  0.4441  0.6409000000000002  0.0  1.0000
  H   H34       1.0  0.3591  0.3591000000000001  0.8032  1.0000
  H   H35       1.0  0.5559000000000001  0.5559000000000001  0.19679999999999997  1.0000
  H   H36       1.0  0.6409  0.4441  0.0  1.0000
  C   C1        1.0  0.6921  0.48280000000000006  0.4270999999999999  1.0000
  C   C2        1.0  0.055700000000000006  0.265  0.5729  1.0000
  C   C3        1.0  0.9443  0.5172  0.20929999999999996  1.0000
  C   C4        1.0  0.30790000000000023  0.7350000000000002  0.7907  1.0000
  C   C5        1.0  0.20930000000000007  0.9443000000000001  0.5172  1.0000
  C   C6        1.0  0.7907  0.30790000000000006  0.735  1.0000
  C   C7        1.0  0.42710000000000004  0.6921  0.4827999999999999  1.0000
  C   C8        1.0  0.5729  0.05570000000000003  0.265  1.0000
  C   C9        1.0  0.265  0.5729  0.0557  1.0000
  C   C10       1.0  0.48280000000000006  0.42710000000000004  0.6920999999999999  1.0000
  C   C11       1.0  0.7350000000000002  0.7907000000000002  0.3079  1.0000
  C   C12       1.0  0.5172  0.20929999999999996  0.9442999999999998  1.0000
  C   C13       1.0  0.26500000000000007  0.05570000000000006  0.5729  1.0000
  C   C14       1.0  0.4828000000000001  0.6921  0.4270999999999999  1.0000
  C   C15       1.0  0.7350000000000002  0.30790000000000006  0.7907  1.0000
  C   C16       1.0  0.5172  0.9443000000000001  0.20929999999999996  1.0000
  C   C17       1.0  0.6921  0.4271  0.4827999999999999  1.0000
  C   C18       1.0  0.055700000000000006  0.5729  0.265  1.0000
  C   C19       1.0  0.9443  0.2093  0.5172  1.0000
  C   C20       1.0  0.30790000000000023  0.7907000000000002  0.735  1.0000
  C   C21       1.0  0.2093  0.5172  0.9442999999999998  1.0000
  C   C22       1.0  0.7907000000000001  0.7350000000000002  0.3079  1.0000
  C   C23       1.0  0.4271000000000001  0.48280000000000006  0.6920999999999999  1.0000
  C   C24       1.0  0.5729  0.265  0.0557  1.0000
  C   C25       1.0  0.75844  0.38342000000000004  0.3834199999999999  1.0000
  C   C26       1.0  1.5234098653564634e-17  0.37502000000000013  0.61658  1.0000
  C   C27       1.0  3.046819730712927e-17  0.6165800000000002  0.3750199999999999  1.0000
  C   C28       1.0  0.24156000000000008  0.6249800000000001  0.62498  1.0000
  C   C29       1.0  0.37502000000000013  0.0  0.61658  1.0000
  C   C30       1.0  0.62498  0.24155999999999994  0.62498  1.0000
  C   C31       1.0  0.38342  0.7584400000000002  0.3834199999999999  1.0000
  C   C32       1.0  0.6165799999999999  0.0  0.3750199999999999  1.0000
  C   C33       1.0  0.3750200000000002  0.6165800000000002  0.0  1.0000
  C   C34       1.0  0.38342  0.38342000000000004  0.75844  1.0000
  C   C35       1.0  0.62498  0.6249800000000001  0.24155999999999994  1.0000
  C   C36       1.0  0.61658  0.37502000000000013  0.0  1.0000
  N   N1        1.0  0.72769  0.44686000000000003  0.35367  1.0000
  N   N2        1.0  0.09319000000000004  0.37402  0.64633  1.0000
  N   N3        1.0  0.9068100000000002  0.5531400000000001  0.28083  1.0000
  N   N4        1.0  0.27231000000000016  0.6259800000000002  0.71917  1.0000
  N   N5        1.0  0.28083  0.9068100000000001  0.55314  1.0000
  N   N6        1.0  0.71917  0.27231  0.62598  1.0000
  N   N7        1.0  0.3536700000000001  0.7276900000000002  0.44686  1.0000
  N   N8        1.0  0.64633  0.09318999999999994  0.3740199999999999  1.0000
  N   N9        1.0  0.3740200000000001  0.6463300000000001  0.09319  1.0000
  N   N10       1.0  0.44686000000000003  0.35367000000000004  0.7276899999999998  1.0000
  N   N11       1.0  0.62598  0.71917  0.27231  1.0000
  N   N12       1.0  0.5531399999999999  0.2808299999999999  0.9068099999999998  1.0000
  N   N13       1.0  0.3740200000000001  0.09319000000000005  0.64633  1.0000
  N   N14       1.0  0.44686000000000003  0.7276900000000002  0.35367  1.0000
  N   N15       1.0  0.62598  0.27231  0.71917  1.0000
  N   N16       1.0  0.55314  0.9068100000000001  0.28083  1.0000
  N   N17       1.0  0.72769  0.3536700000000001  0.44686  1.0000
  N   N18       1.0  0.09318999999999995  0.6463299999999998  0.3740199999999999  1.0000
  N   N19       1.0  0.9068100000000001  0.28083000000000014  0.55314  1.0000
  N   N20       1.0  0.27231  0.71917  0.62598  1.0000
  N   N21       1.0  0.28082999999999997  0.55314  0.9068099999999998  1.0000
  N   N22       1.0  0.7191700000000002  0.6259800000000002  0.27231  1.0000
  N   N23       1.0  0.3536700000000001  0.44686000000000003  0.7276899999999998  1.0000
  N   N24       1.0  0.64633  0.37402  0.09319  1.0000
