data_image0
_chemical_formula_structural       Nd4H16C20O24
_chemical_formula_sum              "Nd4 H16 C20 O24"
_cell_length_a       9.0722
_cell_length_b       9.0722
_cell_length_c       14.582
_cell_angle_alpha    79.9172
_cell_angle_beta     79.9176
_cell_angle_gamma    115.926

_space_group_name_H-M_alt    "P 1"
_space_group_IT_number       1

loop_
  _space_group_symop_operation_xyz
  'x, y, z'

loop_
  _atom_site_type_symbol
  _atom_site_label
  _atom_site_symmetry_multiplicity
  _atom_site_fract_x
  _atom_site_fract_y
  _atom_site_fract_z
  _atom_site_occupancy
  Nd  Nd1       1.0  0.49059  0.74059  0.01882  1.0000
  Nd  Nd2       1.0  0.25941  0.50941  0.48118  1.0000
  Nd  Nd3       1.0  0.50941  0.25941000000000003  0.98118  1.0000
  Nd  Nd4       1.0  0.7405900000000001  0.4905900000000001  0.51882  1.0000
  H   H1        1.0  0.9077999999999999  0.3124  0.029599999999999994  1.0000
  H   H2        1.0  0.8368999999999998  0.22270000000000004  0.1412  1.0000
  H   H3        1.0  0.0626  0.158  0.029599999999999994  1.0000
  H   H4        1.0  0.0219  0.1361  0.1412  1.0000
  H   H5        1.0  0.6876  0.09219999999999998  0.4704  1.0000
  H   H6        1.0  0.7772999999999999  0.16310000000000005  0.3588  1.0000
  H   H7        1.0  0.8419999999999999  0.9374  0.4704  1.0000
  H   H8        1.0  0.8638999999999998  0.9781  0.3588  1.0000
  H   H9        1.0  0.09219999999999998  0.6876  0.9704  1.0000
  H   H10       1.0  0.16310000000000005  0.7773000000000001  0.8587999999999999  1.0000
  H   H11       1.0  0.9373999999999999  0.8419999999999999  0.9704  1.0000
  H   H12       1.0  0.9781  0.8639000000000002  0.8587999999999999  1.0000
  H   H13       1.0  0.3124000000000001  0.9078000000000004  0.5296  1.0000
  H   H14       1.0  0.22269999999999998  0.8369  0.6412  1.0000
  H   H15       1.0  0.15799999999999997  0.06259999999999998  0.5296  1.0000
  H   H16       1.0  0.13609999999999997  0.02189999999999997  0.6412  1.0000
  C   C1        1.0  0.7446999999999999  0.061500000000000006  0.0622  1.0000
  C   C2        1.0  0.8819999999999999  0.2112  0.079  1.0000
  C   C3        1.0  0.1931  0.3763  0.0622  1.0000
  C   C4        1.0  0.038999999999999986  0.20979999999999996  0.079  1.0000
  C   C5        1.0  0.9385000000000001  0.2553000000000001  0.4378  1.0000
  C   C6        1.0  0.7888000000000001  0.11800000000000001  0.42099999999999993  1.0000
  C   C7        1.0  0.6237  0.8069000000000001  0.4378  1.0000
  C   C8        1.0  0.7901999999999998  0.961  0.42099999999999993  1.0000
  C   C9        1.0  0.2553000000000001  0.9385000000000003  0.9378  1.0000
  C   C10       1.0  0.11799999999999998  0.7888  0.921  1.0000
  C   C11       1.0  0.8069000000000001  0.6237000000000001  0.9378  1.0000
  C   C12       1.0  0.9610000000000002  0.7902  0.921  1.0000
  C   C13       1.0  0.06149999999999998  0.7446999999999999  0.5622  1.0000
  C   C14       1.0  0.2112  0.8820000000000001  0.579  1.0000
  C   C15       1.0  0.3763000000000001  0.19309999999999997  0.5622  1.0000
  C   C16       1.0  0.20980000000000001  0.039  0.579  1.0000
  C   C17       1.0  0.4254  0.5746  0.25  1.0000
  C   C18       1.0  0.3246000000000001  0.6754000000000002  0.25  1.0000
  C   C19       1.0  0.5746000000000001  0.42540000000000006  0.75  1.0000
  C   C20       1.0  0.6754  0.3246  0.75  1.0000
  O   O1        1.0  0.7357099999999998  0.91929  0.079  1.0000
  O   O2        1.0  0.63412  0.08584  0.03284  1.0000
  O   O3        1.0  0.49023  0.56771  0.17026  1.0000
  O   O4        1.0  0.18528999999999998  0.50171  0.079  1.0000
  O   O5        1.0  0.33304  0.38132  0.03284  1.0000
  O   O6        1.0  0.33951  0.76203  0.17026  1.0000
  O   O7        1.0  0.08070999999999999  0.26429  0.42099999999999993  1.0000
  O   O8        1.0  0.9141599999999996  0.36588000000000004  0.46716  1.0000
  O   O9        1.0  0.4322900000000001  0.50977  0.32974  1.0000
  O   O10       1.0  0.49828999999999996  0.8147099999999999  0.42099999999999993  1.0000
  O   O11       1.0  0.6186799999999997  0.66696  0.46716  1.0000
  O   O12       1.0  0.23797  0.66049  0.32974  1.0000
  O   O13       1.0  0.26429  0.08070999999999996  0.921  1.0000
  O   O14       1.0  0.3658799999999998  0.91416  0.96716  1.0000
  O   O15       1.0  0.50977  0.43229  0.82974  1.0000
  O   O16       1.0  0.81471  0.49829  0.921  1.0000
  O   O17       1.0  0.6669599999999999  0.6186799999999999  0.96716  1.0000
  O   O18       1.0  0.66049  0.23797000000000004  0.82974  1.0000
  O   O19       1.0  0.91929  0.7357100000000001  0.579  1.0000
  O   O20       1.0  0.08584  0.6341200000000001  0.53284  1.0000
  O   O21       1.0  0.56771  0.49023000000000005  0.6702599999999999  1.0000
  O   O22       1.0  0.50171  0.1852900000000001  0.579  1.0000
  O   O23       1.0  0.38131999999999994  0.33304000000000006  0.53284  1.0000
  O   O24       1.0  0.76203  0.33951000000000003  0.6702599999999999  1.0000
