data_image0
_chemical_formula_structural       Cu4H16C24N20
_chemical_formula_sum              "Cu4 H16 C24 N20"
_cell_length_a       4.42287954
_cell_length_b       11.25534641
_cell_length_c       16.270984339999995
_cell_angle_alpha    90.00000209
_cell_angle_beta     89.99999956999999
_cell_angle_gamma    106.04868595

_space_group_name_H-M_alt    "P 1"
_space_group_IT_number       1

loop_
  _space_group_symop_operation_xyz
  'x, y, z'

loop_
  _atom_site_type_symbol
  _atom_site_label
  _atom_site_symmetry_multiplicity
  _atom_site_fract_x
  _atom_site_fract_y
  _atom_site_fract_z
  _atom_site_occupancy
  Cu  Cu1       1.0  0.13296228000000004  0.42372216000000007  0.57476785  1.0000
  Cu  Cu2       1.0  0.86703768  0.07627784000000001  0.07476784  1.0000
  Cu  Cu3       1.0  0.8670377100000001  0.57627785  0.42523218  1.0000
  Cu  Cu4       1.0  0.13296229000000004  0.92372213  0.92523214  1.0000
  H   H1        1.0  0.53275329  0.25735215  0.57624835  1.0000
  H   H2        1.0  0.78531304  0.15659183  0.68609147  1.0000
  H   H3        1.0  0.30964848  0.31638915  0.86793279  1.0000
  H   H4        1.0  0.07959558999999994  0.41133763  0.75148717  1.0000
  H   H5        1.0  0.46724672  0.24264785000000003  0.07624837  1.0000
  H   H6        1.0  0.21468696000000007  0.34340816  0.18609147  1.0000
  H   H7        1.0  0.69035152  0.18361085000000002  0.36793278  1.0000
  H   H8        1.0  0.92040437  0.08866239  0.25148716  1.0000
  H   H9        1.0  0.46724673000000005  0.7426478600000002  0.42375164  1.0000
  H   H10       1.0  0.21468698000000003  0.84340816  0.31390853  1.0000
  H   H11       1.0  0.6903515100000001  0.6836108500000001  0.13206722  1.0000
  H   H12       1.0  0.92040437  0.5886624  0.24851284000000004  1.0000
  H   H13       1.0  0.5327532800000001  0.7573521400000001  0.92375165  1.0000
  H   H14       1.0  0.78531303  0.65659183  0.81390853  1.0000
  H   H15       1.0  0.30964848  0.81638916  0.63206722  1.0000
  H   H16       1.0  0.07959559000000005  0.91133762  0.74851283  1.0000
  C   C1        1.0  0.4963109600000001  0.26972129  0.64156712  1.0000
  C   C2        1.0  0.6409899600000001  0.21686372000000004  0.70198986  1.0000
  C   C3        1.0  0.56195789  0.22863105  0.78524949  1.0000
  C   C4        1.0  0.35756981  0.29839185  0.80423451  1.0000
  C   C5        1.0  0.22533905000000007  0.3494906  0.74003478  1.0000
  C   C6        1.0  0.71453066  0.17483858000000002  0.84687275  1.0000
  C   C7        1.0  0.50368897  0.23027872  0.14156712  1.0000
  C   C8        1.0  0.35901007  0.28313627  0.20198987000000004  1.0000
  C   C9        1.0  0.4380421  0.27136895  0.28524949  1.0000
  C   C10       1.0  0.64243017  0.20160813  0.30423448  1.0000
  C   C11       1.0  0.77466097  0.15050941  0.2400348  1.0000
  C   C12       1.0  0.28546939  0.3251614  0.34687276  1.0000
  C   C13       1.0  0.50368894  0.7302787400000001  0.35843287  1.0000
  C   C14       1.0  0.35901005  0.78313627  0.29801015  1.0000
  C   C15       1.0  0.43804207  0.7713689400000001  0.2147505  1.0000
  C   C16       1.0  0.64243022  0.70160813  0.19576552  1.0000
  C   C17       1.0  0.7746609600000002  0.6505094200000001  0.25996517  1.0000
  C   C18       1.0  0.2854693600000002  0.8251613900000002  0.15312723  1.0000
  C   C19       1.0  0.4963109500000001  0.7697212800000001  0.85843287  1.0000
  C   C20       1.0  0.64098996  0.71686373  0.79801015  1.0000
  C   C21       1.0  0.5619579000000001  0.7286310600000001  0.7147505  1.0000
  C   C22       1.0  0.35756981  0.79839186  0.6957655  1.0000
  C   C23       1.0  0.22533906999999992  0.84949059  0.75996522  1.0000
  C   C24       1.0  0.71453063  0.6748386  0.65312725  1.0000
  N   N1        1.0  0.29302051000000007  0.33503439  0.6600019  1.0000
  N   N2        1.0  0.70857091  0.19566550000000002  0.92945848  1.0000
  N   N3        1.0  0.8838133  0.12992066  0.96169803  1.0000
  N   N4        1.0  0.9957554  0.06943874  0.90077989  1.0000
  N   N5        1.0  0.89276958  0.09814663  0.82884092  1.0000
  N   N6        1.0  0.70697975  0.16496553000000003  0.16000179  1.0000
  N   N7        1.0  0.29142912  0.30433449  0.42945846  1.0000
  N   N8        1.0  0.11618670000000007  0.3700792900000001  0.46169791  1.0000
  N   N9        1.0  0.004244510000000018  0.43056134000000007  0.40077993  1.0000
  N   N10       1.0  0.10723042999999996  0.40185338  0.32884093  1.0000
  N   N11       1.0  0.7069796  0.6649656  0.33999815  1.0000
  N   N12       1.0  0.29142904000000003  0.8043345200000002  0.07054156  1.0000
  N   N13       1.0  0.1161867300000001  0.8700792500000001  0.03830214  1.0000
  N   N14       1.0  0.004244540000000047  0.9305613500000001  0.09922008  1.0000
  N   N15       1.0  0.10723044999999999  0.90185334  0.17115902  1.0000
  N   N16       1.0  0.2930205300000002  0.8350343500000003  0.83999808  1.0000
  N   N17       1.0  0.70857088  0.69566551  0.57054154  1.0000
  N   N18       1.0  0.88381329  0.6299207  0.53830201  1.0000
  N   N19       1.0  0.99575535  0.56943876  0.59922012  1.0000
  N   N20       1.0  0.89276955  0.59814667  0.67115905  1.0000
