data_image0
_chemical_formula_structural       Co2H2C10O8
_chemical_formula_sum              "Co2 H2 C10 O8"
_cell_length_a       6.9362
_cell_length_b       7.4559
_cell_length_c       8.2797
_cell_angle_alpha    90.342
_cell_angle_beta     109.848
_cell_angle_gamma    93.161

_space_group_name_H-M_alt    "P 1"
_space_group_IT_number       1

loop_
  _space_group_symop_operation_xyz
  'x, y, z'

loop_
  _atom_site_type_symbol
  _atom_site_label
  _atom_site_symmetry_multiplicity
  _atom_site_fract_x
  _atom_site_fract_y
  _atom_site_fract_z
  _atom_site_occupancy
  Co  Co1       1.0  0.0  0.0  0.4999999999999999  1.0000
  Co  Co2       1.0  0.5  0.5  0.4999999999999999  1.0000
  H   H1        1.0  0.5758999999999997  0.7088  0.9600999999999997  1.0000
  H   H2        1.0  0.42409999999999987  0.29119999999999996  0.0399  1.0000
  C   C1        1.0  0.6476999999999998  0.7589  0.28449999999999986  1.0000
  C   C2        1.0  0.5806999999999999  0.8919  0.1426  1.0000
  C   C3        1.0  0.536  0.06769999999999997  0.1667  1.0000
  C   C4        1.0  0.5753999999999998  0.1563  0.3404  1.0000
  C   C5        1.0  0.5450999999999999  0.8259  0.9761999999999997  1.0000
  C   C6        1.0  0.35229999999999984  0.2411  0.7154999999999998  1.0000
  C   C7        1.0  0.4192999999999999  0.10809999999999996  0.8574  1.0000
  C   C8        1.0  0.46399999999999986  0.9322999999999999  0.8332999999999998  1.0000
  C   C9        1.0  0.42459999999999987  0.8436999999999998  0.6596  1.0000
  C   C10       1.0  0.4548999999999999  0.1741  0.023799999999999995  1.0000
  O   O1        1.0  0.8306000000000001  0.7674999999999998  0.3881  1.0000
  O   O2        1.0  0.5124999999999998  0.6423999999999999  0.2876999999999999  1.0000
  O   O3        1.0  0.7355  0.1283  0.4621999999999999  1.0000
  O   O4        1.0  0.4429999999999999  0.262  0.3501  1.0000
  O   O5        1.0  0.16939999999999988  0.23249999999999996  0.6118999999999998  1.0000
  O   O6        1.0  0.4875  0.3576  0.7122999999999999  1.0000
  O   O7        1.0  0.26449999999999985  0.8717  0.5377999999999997  1.0000
  O   O8        1.0  0.5569999999999998  0.7379999999999999  0.6498999999999998  1.0000
