data_image0
_chemical_formula_structural       Cu24H120C120I24N72
_chemical_formula_sum              "Cu24 H120 C120 I24 N72"
_cell_length_a       20.0135
_cell_length_b       20.013499999999997
_cell_length_c       20.0135
_cell_angle_alpha    109.47100000000002
_cell_angle_beta     109.471
_cell_angle_gamma    109.47100000000002

_symmetry_space_group_name_H-M    'P 1'
_symmetry_Int_Tables_number       1

loop_
  _symmetry_equiv_pos_as_xyz
  'x,y,z'

loop_
  _atom_site_type_symbol
  _atom_site_label
  _atom_site_symmetry_multiplicity
  _atom_site_fract_x
  _atom_site_fract_y
  _atom_site_fract_z
  _atom_site_occupancy
  Cu  Cu1       1.0  0.20800000000000002  0.8769600000000001  0.2481  1.0000
  Cu  Cu2       1.0  0.12885999999999997  0.9598999999999999  0.2519  1.0000
  Cu  Cu3       1.0  0.37114  0.62304  0.83104  1.0000
  Cu  Cu4       1.0  0.29200000000000004  0.5401  0.66896  1.0000
  Cu  Cu5       1.0  0.33104  0.37114  0.12303999999999998  1.0000
  Cu  Cu6       1.0  0.16896  0.292  0.0401  1.0000
  Cu  Cu7       1.0  0.7481  0.20799999999999996  0.37696  1.0000
  Cu  Cu8       1.0  0.7519  0.12886000000000006  0.4599  1.0000
  Cu  Cu9       1.0  0.9598999999999998  0.7519000000000001  0.62886  1.0000
  Cu  Cu10      1.0  0.87696  0.7481  0.708  1.0000
  Cu  Cu11      1.0  0.5401  0.16896  0.792  1.0000
  Cu  Cu12      1.0  0.62304  0.33104  0.87114  1.0000
  Cu  Cu13      1.0  0.45990000000000003  0.62886  0.7519  1.0000
  Cu  Cu14      1.0  0.37695999999999996  0.708  0.7481  1.0000
  Cu  Cu15      1.0  0.04010000000000006  0.792  0.16896  1.0000
  Cu  Cu16      1.0  0.12303999999999994  0.8711399999999999  0.33104  1.0000
  Cu  Cu17      1.0  0.7080000000000001  0.2481  0.87696  1.0000
  Cu  Cu18      1.0  0.62886  0.2519  0.9599  1.0000
  Cu  Cu19      1.0  0.8711400000000001  0.83104  0.62304  1.0000
  Cu  Cu20      1.0  0.792  0.66896  0.5401  1.0000
  Cu  Cu21      1.0  0.83104  0.12304  0.37114  1.0000
  Cu  Cu22      1.0  0.66896  0.04009999999999999  0.292  1.0000
  Cu  Cu23      1.0  0.2481  0.37696  0.208  1.0000
  Cu  Cu24      1.0  0.25190000000000007  0.4599  0.12886  1.0000
  H   H1        1.0  0.2955000000000001  0.9776  0.1969  1.0000
  H   H2        1.0  0.4460000000000001  0.8526000000000001  0.2258  1.0000
  H   H3        1.0  0.5472  0.017999999999999988  0.1332  1.0000
  H   H4        1.0  0.4515000000000001  0.9772999999999998  0.072  1.0000
  H   H5        1.0  0.49260000000000004  0.04659999999999998  0.16499999999999995  1.0000
  H   H6        1.0  0.2807  0.0986  0.3031  1.0000
  H   H7        1.0  0.1268  0.2202  0.2742  1.0000
  H   H8        1.0  0.3848  0.414  0.3668  1.0000
  H   H9        1.0  0.40529999999999994  0.37949999999999995  0.4279999999999999  1.0000
  H   H10       1.0  0.3816  0.3276  0.335  1.0000
  H   H11       1.0  0.21930000000000002  0.5224  0.8179  1.0000
  H   H12       1.0  0.3732  0.6474  0.0934  1.0000
  H   H13       1.0  0.11520000000000001  0.482  0.0292  1.0000
  H   H14       1.0  0.09470000000000008  0.5227  0.9742  1.0000
  H   H15       1.0  0.11839999999999996  0.4533999999999999  0.9459999999999997  1.0000
  H   H16       1.0  0.20450000000000002  0.4014  0.6821  1.0000
  H   H17       1.0  0.05400000000000001  0.2798  0.4066  1.0000
  H   H18       1.0  0.9528000000000001  0.08599999999999997  0.4708  1.0000
  H   H19       1.0  0.048500000000000036  0.1205  0.5258  1.0000
  H   H20       1.0  0.007400000000000003  0.17239999999999994  0.554  1.0000
  H   H21       1.0  0.3179  0.2193  0.022399999999999993  1.0000
  H   H22       1.0  0.5934  0.3732  0.1474  1.0000
  H   H23       1.0  0.5292  0.1151999999999999  0.982  1.0000
  H   H24       1.0  0.4742  0.0947  0.0227  1.0000
  H   H25       1.0  0.446  0.11840000000000003  0.9534  1.0000
  H   H26       1.0  0.1820999999999999  0.20449999999999996  0.9013999999999998  1.0000
  H   H27       1.0  0.9066  0.05400000000000002  0.7798  1.0000
  H   H28       1.0  0.9708000000000001  0.9528  0.586  1.0000
  H   H29       1.0  0.025799999999999976  0.048499999999999974  0.6205  1.0000
  H   H30       1.0  0.054000000000000006  0.007399999999999969  0.6724  1.0000
  H   H31       1.0  0.6969000000000001  0.2955  0.4776  1.0000
  H   H32       1.0  0.7257999999999999  0.446  0.3526  1.0000
  H   H33       1.0  0.6332  0.5472  0.518  1.0000
  H   H34       1.0  0.572  0.4515  0.4773  1.0000
  H   H35       1.0  0.665  0.4925999999999998  0.5465999999999999  1.0000
  H   H36       1.0  0.8031  0.2807  0.5986  1.0000
  H   H37       1.0  0.7742  0.1268  0.7202  1.0000
  H   H38       1.0  0.8668000000000003  0.3848  0.914  1.0000
  H   H39       1.0  0.9280000000000002  0.40529999999999994  0.8795  1.0000
  H   H40       1.0  0.835  0.3816  0.8276  1.0000
  H   H41       1.0  0.09860000000000001  0.8031  0.7807  1.0000
  H   H42       1.0  0.22019999999999995  0.7742  0.6267999999999999  1.0000
  H   H43       1.0  0.4139999999999999  0.8667999999999998  0.8847999999999999  1.0000
  H   H44       1.0  0.3795  0.928  0.9053  1.0000
  H   H45       1.0  0.3276  0.835  0.8816  1.0000
  H   H46       1.0  0.9775999999999999  0.6968999999999999  0.7954999999999998  1.0000
  H   H47       1.0  0.8525999999999998  0.7257999999999999  0.9459999999999997  1.0000
  H   H48       1.0  0.01799999999999998  0.6332  0.0472  1.0000
  H   H49       1.0  0.9773000000000002  0.572  0.9515  1.0000
  H   H50       1.0  0.04659999999999995  0.665  0.9925999999999999  1.0000
  H   H51       1.0  0.4014  0.1821  0.7045  1.0000
  H   H52       1.0  0.27980000000000005  0.9066  0.554  1.0000
  H   H53       1.0  0.08599999999999998  0.9708  0.4528  1.0000
  H   H54       1.0  0.1205  0.02579999999999998  0.5485  1.0000
  H   H55       1.0  0.1724  0.05399999999999999  0.5074  1.0000
  H   H56       1.0  0.5224  0.3179  0.7193  1.0000
  H   H57       1.0  0.6474000000000001  0.5933999999999999  0.8732  1.0000
  H   H58       1.0  0.482  0.5292  0.6152  1.0000
  H   H59       1.0  0.5227  0.47419999999999995  0.5947  1.0000
  H   H60       1.0  0.4534  0.446  0.6183999999999997  1.0000
  H   H61       1.0  0.5986000000000001  0.7807  0.8031  1.0000
  H   H62       1.0  0.7202  0.6268  0.7742  1.0000
  H   H63       1.0  0.9140000000000001  0.8848  0.8668  1.0000
  H   H64       1.0  0.8795000000000001  0.9053  0.928  1.0000
  H   H65       1.0  0.8276000000000001  0.8816000000000002  0.835  1.0000
  H   H66       1.0  0.47760000000000014  0.7954999999999999  0.6969  1.0000
  H   H67       1.0  0.35259999999999986  0.9459999999999997  0.7257999999999998  1.0000
  H   H68       1.0  0.518  0.047200000000000006  0.6332  1.0000
  H   H69       1.0  0.4773  0.9514999999999999  0.572  1.0000
  H   H70       1.0  0.5466  0.9926000000000001  0.665  1.0000
  H   H71       1.0  0.9014000000000001  0.7045  0.1821  1.0000
  H   H72       1.0  0.7797999999999999  0.5539999999999999  0.9065999999999997  1.0000
  H   H73       1.0  0.586  0.4527999999999999  0.9708  1.0000
  H   H74       1.0  0.6205000000000002  0.5485  0.0258  1.0000
  H   H75       1.0  0.6724  0.5074  0.054  1.0000
  H   H76       1.0  0.022399999999999923  0.7192999999999999  0.3178999999999999  1.0000
  H   H77       1.0  0.14740000000000003  0.8732  0.5934  1.0000
  H   H78       1.0  0.9819999999999999  0.6151999999999999  0.5291999999999999  1.0000
  H   H79       1.0  0.02269999999999999  0.5947  0.4742  1.0000
  H   H80       1.0  0.9534  0.6184  0.446  1.0000
  H   H81       1.0  0.7955  0.19690000000000005  0.9776  1.0000
  H   H82       1.0  0.946  0.22579999999999997  0.8526  1.0000
  H   H83       1.0  0.04719999999999999  0.1332  0.018  1.0000
  H   H84       1.0  0.9515  0.072  0.9773  1.0000
  H   H85       1.0  0.9926000000000001  0.165  0.0466  1.0000
  H   H86       1.0  0.7807  0.3031  0.0986  1.0000
  H   H87       1.0  0.6267999999999999  0.2742  0.2202  1.0000
  H   H88       1.0  0.8848  0.3667999999999999  0.41399999999999987  1.0000
  H   H89       1.0  0.9053000000000001  0.428  0.3795  1.0000
  H   H90       1.0  0.8816000000000002  0.335  0.3276  1.0000
  H   H91       1.0  0.7193  0.8179  0.5224  1.0000
  H   H92       1.0  0.8732  0.09340000000000002  0.6474  1.0000
  H   H93       1.0  0.6152  0.029200000000000007  0.482  1.0000
  H   H94       1.0  0.5947000000000001  0.9741999999999998  0.5227  1.0000
  H   H95       1.0  0.6184  0.946  0.4534  1.0000
  H   H96       1.0  0.7045  0.6821  0.4014  1.0000
  H   H97       1.0  0.554  0.4066  0.2798  1.0000
  H   H98       1.0  0.4528  0.47079999999999994  0.08599999999999997  1.0000
  H   H99       1.0  0.5485  0.5258  0.1205  1.0000
  H   H100      1.0  0.5074000000000001  0.5539999999999999  0.17239999999999997  1.0000
  H   H101      1.0  0.8179  0.02239999999999996  0.21929999999999994  1.0000
  H   H102      1.0  0.0934  0.1474  0.3732  1.0000
  H   H103      1.0  0.02920000000000001  0.982  0.1152  1.0000
  H   H104      1.0  0.9742  0.022699999999999984  0.09469999999999998  1.0000
  H   H105      1.0  0.946  0.9534  0.1184  1.0000
  H   H106      1.0  0.6821  0.9013999999999999  0.2045  1.0000
  H   H107      1.0  0.4066  0.7798  0.054  1.0000
  H   H108      1.0  0.47079999999999983  0.5859999999999997  0.9527999999999998  1.0000
  H   H109      1.0  0.5258  0.6205  0.0485  1.0000
  H   H110      1.0  0.554  0.6724  0.0074  1.0000
  H   H111      1.0  0.1969  0.47759999999999997  0.2955  1.0000
  H   H112      1.0  0.22580000000000003  0.3526  0.446  1.0000
  H   H113      1.0  0.13319999999999999  0.518  0.5472  1.0000
  H   H114      1.0  0.07199999999999995  0.47729999999999995  0.4515  1.0000
  H   H115      1.0  0.165  0.5466  0.4925999999999999  1.0000
  H   H116      1.0  0.3031  0.5986  0.2807  1.0000
  H   H117      1.0  0.2742  0.7202  0.12679999999999994  1.0000
  H   H118      1.0  0.3668000000000001  0.914  0.3848  1.0000
  H   H119      1.0  0.428  0.8795000000000001  0.4052999999999999  1.0000
  H   H120      1.0  0.335  0.8276  0.3816  1.0000
  C   C1        1.0  0.3272  0.9516  0.20319999999999994  1.0000
  C   C2        1.0  0.4196  0.9260000000000002  0.1836  1.0000
  C   C3        1.0  0.4128  0.8771  0.2187  1.0000
  C   C4        1.0  0.3546000000000001  0.8658000000000001  0.2428  1.0000
  C   C5        1.0  0.49310000000000004  0.9999000000000001  0.1286  1.0000
  C   C6        1.0  0.2484  0.12400000000000001  0.2968  1.0000
  C   C7        1.0  0.24239999999999995  0.2359999999999999  0.3163999999999999  1.0000
  C   C8        1.0  0.15839999999999999  0.19409999999999997  0.2813  1.0000
  C   C9        1.0  0.123  0.11179999999999998  0.2572  1.0000
  C   C10       1.0  0.3713  0.3645  0.3714  1.0000
  C   C11       1.0  0.2516  0.5483999999999999  0.8755999999999998  1.0000
  C   C12       1.0  0.2575999999999999  0.5739999999999997  0.9935999999999999  1.0000
  C   C13       1.0  0.3416  0.6229  0.0357  1.0000
  C   C14       1.0  0.377  0.6342  0.9888  1.0000
  C   C15       1.0  0.1287  0.5001  0.9932  1.0000
  C   C16       1.0  0.17280000000000004  0.376  0.6244  1.0000
  C   C17       1.0  0.08040000000000003  0.264  0.5064  1.0000
  C   C18       1.0  0.08719999999999992  0.3058999999999999  0.4642999999999999  1.0000
  C   C19       1.0  0.14539999999999997  0.38819999999999993  0.5112  1.0000
  C   C20       1.0  0.006900000000000039  0.13550000000000006  0.5068  1.0000
  C   C21       1.0  0.37560000000000004  0.2516  0.0484  1.0000
  C   C22       1.0  0.4936  0.2576  0.07399999999999998  1.0000
  C   C23       1.0  0.5357  0.3416  0.12290000000000001  1.0000
  C   C24       1.0  0.4888  0.377  0.1342  1.0000
  C   C25       1.0  0.4932000000000001  0.1287  0.0001  1.0000
  C   C26       1.0  0.1244000000000001  0.1728000000000001  0.876  1.0000
  C   C27       1.0  0.006400000000000025  0.0804  0.764  1.0000
  C   C28       1.0  0.9643  0.08720000000000001  0.8059  1.0000
  C   C29       1.0  0.011200000000000005  0.1454  0.8882  1.0000
  C   C30       1.0  0.006800000000000042  0.006900000000000021  0.6355  1.0000
  C   C31       1.0  0.7032  0.3272  0.4516  1.0000
  C   C32       1.0  0.6836000000000001  0.4196  0.426  1.0000
  C   C33       1.0  0.7187000000000001  0.41280000000000006  0.3771  1.0000
  C   C34       1.0  0.7428000000000002  0.3546  0.3658  1.0000
  C   C35       1.0  0.6286  0.4931  0.4999  1.0000
  C   C36       1.0  0.7968  0.2484  0.624  1.0000
  C   C37       1.0  0.8163999999999997  0.24240000000000006  0.736  1.0000
  C   C38       1.0  0.7812999999999998  0.15839999999999993  0.6940999999999998  1.0000
  C   C39       1.0  0.7572  0.123  0.6118  1.0000
  C   C40       1.0  0.8714  0.37130000000000013  0.8645  1.0000
  C   C41       1.0  0.124  0.7968  0.7484  1.0000
  C   C42       1.0  0.23600000000000002  0.8164  0.7424  1.0000
  C   C43       1.0  0.1941  0.7813  0.6584  1.0000
  C   C44       1.0  0.11179999999999987  0.7571999999999999  0.6229999999999998  1.0000
  C   C45       1.0  0.3645000000000001  0.8714  0.8713  1.0000
  C   C46       1.0  0.9516  0.7032  0.8271999999999998  1.0000
  C   C47       1.0  0.926  0.6836000000000001  0.9196  1.0000
  C   C48       1.0  0.8771  0.7186999999999999  0.9128  1.0000
  C   C49       1.0  0.8658000000000001  0.7428  0.8546  1.0000
  C   C50       1.0  0.9999  0.6286  0.9931  1.0000
  C   C51       1.0  0.376  0.12440000000000002  0.6728  1.0000
  C   C52       1.0  0.264  0.0064000000000000255  0.5804  1.0000
  C   C53       1.0  0.30590000000000006  0.9643  0.5872  1.0000
  C   C54       1.0  0.3882  0.01120000000000001  0.6454  1.0000
  C   C55       1.0  0.13550000000000004  0.006800000000000013  0.5069  1.0000
  C   C56       1.0  0.5483999999999999  0.3755999999999999  0.7515999999999998  1.0000
  C   C57       1.0  0.5739999999999998  0.4935999999999998  0.7575999999999998  1.0000
  C   C58       1.0  0.6228999999999999  0.5356999999999997  0.8415999999999998  1.0000
  C   C59       1.0  0.6342  0.4888  0.877  1.0000
  C   C60       1.0  0.5001  0.49319999999999997  0.6287  1.0000
  C   C61       1.0  0.6239999999999999  0.7484  0.7968  1.0000
  C   C62       1.0  0.7360000000000001  0.7424  0.8164  1.0000
  C   C63       1.0  0.6941  0.6584  0.7813  1.0000
  C   C64       1.0  0.6118000000000001  0.623  0.7572  1.0000
  C   C65       1.0  0.8645000000000002  0.8712999999999999  0.8714  1.0000
  C   C66       1.0  0.4516  0.8271999999999999  0.7031999999999998  1.0000
  C   C67       1.0  0.426  0.9196  0.6836  1.0000
  C   C68       1.0  0.3771  0.9128  0.7187  1.0000
  C   C69       1.0  0.36580000000000007  0.8546  0.7428  1.0000
  C   C70       1.0  0.4999  0.9931000000000001  0.6286  1.0000
  C   C71       1.0  0.876  0.6728  0.1244  1.0000
  C   C72       1.0  0.7640000000000001  0.5804  0.0064  1.0000
  C   C73       1.0  0.8059  0.5872  0.9643  1.0000
  C   C74       1.0  0.8882000000000001  0.6454  0.011199999999999996  1.0000
  C   C75       1.0  0.6355000000000001  0.5069  0.006799999999999999  1.0000
  C   C76       1.0  0.0484  0.7516  0.3756  1.0000
  C   C77       1.0  0.07399999999999997  0.7576  0.4936  1.0000
  C   C78       1.0  0.12289999999999997  0.8416  0.5357  1.0000
  C   C79       1.0  0.1342  0.8769999999999999  0.4888  1.0000
  C   C80       1.0  9.999999999993407e-05  0.6287  0.49319999999999997  1.0000
  C   C81       1.0  0.8272  0.20320000000000008  0.9516  1.0000
  C   C82       1.0  0.9196  0.1836  0.926  1.0000
  C   C83       1.0  0.9127999999999998  0.2186999999999999  0.8770999999999998  1.0000
  C   C84       1.0  0.8545999999999998  0.2427999999999999  0.8657999999999998  1.0000
  C   C85       1.0  0.9931000000000001  0.1286  0.9999  1.0000
  C   C86       1.0  0.7484000000000001  0.29679999999999995  0.12399999999999999  1.0000
  C   C87       1.0  0.7424  0.3164  0.236  1.0000
  C   C88       1.0  0.6584  0.2813  0.1941  1.0000
  C   C89       1.0  0.6230000000000001  0.2572  0.1118  1.0000
  C   C90       1.0  0.8712999999999997  0.3714  0.3645  1.0000
  C   C91       1.0  0.7515999999999999  0.8755999999999999  0.5484  1.0000
  C   C92       1.0  0.7576  0.9936  0.574  1.0000
  C   C93       1.0  0.8416000000000001  0.035700000000000016  0.6229  1.0000
  C   C94       1.0  0.877  0.9888  0.6342  1.0000
  C   C95       1.0  0.6287  0.9932  0.5001  1.0000
  C   C96       1.0  0.6728  0.6244  0.376  1.0000
  C   C97       1.0  0.5804000000000001  0.5064  0.264  1.0000
  C   C98       1.0  0.5872  0.4643  0.3059  1.0000
  C   C99       1.0  0.6454  0.5112  0.3882  1.0000
  C   C100      1.0  0.5069  0.5067999999999998  0.13549999999999995  1.0000
  C   C101      1.0  0.8756  0.048400000000000006  0.2516  1.0000
  C   C102      1.0  0.9936  0.07400000000000002  0.2576  1.0000
  C   C103      1.0  0.03569999999999999  0.12289999999999998  0.3416  1.0000
  C   C104      1.0  0.9888  0.1342  0.377  1.0000
  C   C105      1.0  0.9931999999999997  9.999999999997318e-05  0.12869999999999995  1.0000
  C   C106      1.0  0.6244000000000001  0.876  0.1728  1.0000
  C   C107      1.0  0.5064  0.764  0.0804  1.0000
  C   C108      1.0  0.46430000000000005  0.8059  0.0872  1.0000
  C   C109      1.0  0.5111999999999999  0.8881999999999999  0.1454  1.0000
  C   C110      1.0  0.5068  0.6355  0.006899999999999998  1.0000
  C   C111      1.0  0.20320000000000002  0.45160000000000006  0.3272  1.0000
  C   C112      1.0  0.1836  0.42600000000000005  0.4196  1.0000
  C   C113      1.0  0.2187  0.3771  0.4128  1.0000
  C   C114      1.0  0.24279999999999996  0.36579999999999996  0.3545999999999999  1.0000
  C   C115      1.0  0.1286  0.4999  0.4931  1.0000
  C   C116      1.0  0.29679999999999995  0.6239999999999999  0.24839999999999998  1.0000
  C   C117      1.0  0.3164  0.736  0.2424  1.0000
  C   C118      1.0  0.2813  0.6941  0.15839999999999996  1.0000
  C   C119      1.0  0.25720000000000004  0.6118  0.12300000000000001  1.0000
  C   C120      1.0  0.37140000000000006  0.8645  0.3713  1.0000
  I   I1        1.0  0.1321  0.73864  0.24028  1.0000
  I   I2        1.0  0.9983599999999997  0.89182  0.25972  1.0000
  I   I3        1.0  0.5016399999999998  0.7613599999999998  0.8934599999999998  1.0000
  I   I4        1.0  0.36790000000000006  0.60818  0.60654  1.0000
  I   I5        1.0  0.39346000000000003  0.50164  0.26136  1.0000
  I   I6        1.0  0.10654000000000001  0.3679  0.10818  1.0000
  I   I7        1.0  0.7402800000000002  0.1321  0.23864  1.0000
  I   I8        1.0  0.7597200000000002  0.99836  0.3918199999999999  1.0000
  I   I9        1.0  0.8918200000000004  0.75972  0.49836  1.0000
  I   I10       1.0  0.73864  0.7402799999999999  0.6320999999999999  1.0000
  I   I11       1.0  0.6081799999999999  0.1065399999999999  0.8679  1.0000
  I   I12       1.0  0.76136  0.39346  0.00164  1.0000
  I   I13       1.0  0.39182000000000006  0.4983600000000001  0.75972  1.0000
  I   I14       1.0  0.23864  0.6321  0.74028  1.0000
  I   I15       1.0  0.10817999999999994  0.8679  0.10653999999999997  1.0000
  I   I16       1.0  0.26136  0.0016399999999999791  0.39346  1.0000
  I   I17       1.0  0.6321  0.24027999999999994  0.73864  1.0000
  I   I18       1.0  0.49836  0.25972  0.89182  1.0000
  I   I19       1.0  0.0016400000000000195  0.89346  0.76136  1.0000
  I   I20       1.0  0.8679000000000004  0.60654  0.60818  1.0000
  I   I21       1.0  0.89346  0.26136  0.50164  1.0000
  I   I22       1.0  0.6065400000000001  0.10818  0.3679  1.0000
  I   I23       1.0  0.24028000000000002  0.23864  0.13209999999999994  1.0000
  I   I24       1.0  0.2597199999999999  0.3918199999999999  0.9983599999999999  1.0000
  N   N1        1.0  0.3806  0.9663  0.1767  1.0000
  N   N2        1.0  0.312  0.905  0.2376  1.0000
  N   N3        1.0  0.47530000000000006  0.937  0.1519  1.0000
  N   N4        1.0  0.2896  0.2039  0.3233  1.0000
  N   N5        1.0  0.1674  0.0744  0.2624  1.0000
  N   N6        1.0  0.2851  0.3234  0.3481  1.0000
  N   N7        1.0  0.21039999999999998  0.5336999999999998  0.9142999999999999  1.0000
  N   N8        1.0  0.3326000000000001  0.595  0.907  1.0000
  N   N9        1.0  0.21490000000000004  0.563  0.0383  1.0000
  N   N10       1.0  0.11940000000000006  0.2961  0.5857  1.0000
  N   N11       1.0  0.188  0.4256  0.593  1.0000
  N   N12       1.0  0.024700000000000003  0.1766  0.4617  1.0000
  N   N13       1.0  0.4143  0.2104  0.0337  1.0000
  N   N14       1.0  0.407  0.3326  0.095  1.0000
  N   N15       1.0  0.5383000000000001  0.21489999999999998  0.063  1.0000
  N   N16       1.0  0.0857  0.11939999999999996  0.7961  1.0000
  N   N17       1.0  0.09299999999999987  0.18799999999999986  0.9255999999999998  1.0000
  N   N18       1.0  0.9617  0.02469999999999998  0.6766  1.0000
  N   N19       1.0  0.6767  0.3806  0.4663  1.0000
  N   N20       1.0  0.7376  0.312  0.405  1.0000
  N   N21       1.0  0.6519  0.47529999999999994  0.437  1.0000
  N   N22       1.0  0.8232999999999996  0.2895999999999999  0.7038999999999997  1.0000
  N   N23       1.0  0.7624  0.1674  0.5744  1.0000
  N   N24       1.0  0.8480999999999997  0.2850999999999999  0.8233999999999998  1.0000
  N   N25       1.0  0.2039  0.8233  0.7896  1.0000
  N   N26       1.0  0.0744  0.7624  0.6674  1.0000
  N   N27       1.0  0.3234  0.8481  0.7851  1.0000
  N   N28       1.0  0.9663000000000002  0.6767  0.8806  1.0000
  N   N29       1.0  0.905  0.7376  0.812  1.0000
  N   N30       1.0  0.937  0.6519  0.9753  1.0000
  N   N31       1.0  0.2961  0.08569999999999998  0.6194  1.0000
  N   N32       1.0  0.4255999999999999  0.09299999999999989  0.6879999999999997  1.0000
  N   N33       1.0  0.17660000000000006  0.9617  0.5247  1.0000
  N   N34       1.0  0.5337  0.4143  0.7104  1.0000
  N   N35       1.0  0.5949999999999999  0.407  0.8326  1.0000
  N   N36       1.0  0.563  0.5383  0.7149  1.0000
  N   N37       1.0  0.7038999999999999  0.7896  0.8233  1.0000
  N   N38       1.0  0.5744  0.6674  0.7624  1.0000
  N   N39       1.0  0.8234  0.7851000000000001  0.8481  1.0000
  N   N40       1.0  0.46629999999999994  0.8806  0.6766999999999997  1.0000
  N   N41       1.0  0.4050000000000001  0.812  0.7376  1.0000
  N   N42       1.0  0.437  0.9752999999999998  0.6519  1.0000
  N   N43       1.0  0.7961  0.6194  0.0857  1.0000
  N   N44       1.0  0.9256000000000001  0.6879999999999998  0.09299999999999997  1.0000
  N   N45       1.0  0.6766000000000001  0.5247  0.9617  1.0000
  N   N46       1.0  0.033700000000000015  0.7104  0.4143  1.0000
  N   N47       1.0  0.09499999999999995  0.8326  0.407  1.0000
  N   N48       1.0  0.063  0.7149  0.5383  1.0000
  N   N49       1.0  0.8806000000000002  0.17669999999999988  0.9663  1.0000
  N   N50       1.0  0.812  0.2376000000000001  0.905  1.0000
  N   N51       1.0  0.9753  0.15189999999999995  0.9369999999999999  1.0000
  N   N52       1.0  0.7896  0.3233  0.2039  1.0000
  N   N53       1.0  0.6674000000000002  0.2624  0.0744  1.0000
  N   N54       1.0  0.7851  0.3481  0.3234  1.0000
  N   N55       1.0  0.7103999999999999  0.9142999999999998  0.5336999999999997  1.0000
  N   N56       1.0  0.8325999999999998  0.907  0.5949999999999998  1.0000
  N   N57       1.0  0.7149  0.03830000000000001  0.563  1.0000
  N   N58       1.0  0.6194  0.5857  0.2961  1.0000
  N   N59       1.0  0.688  0.593  0.4256  1.0000
  N   N60       1.0  0.5247000000000002  0.46170000000000005  0.1766  1.0000
  N   N61       1.0  0.9143  0.033699999999999966  0.21039999999999995  1.0000
  N   N62       1.0  0.9070000000000001  0.095  0.3326  1.0000
  N   N63       1.0  0.038299999999999994  0.06299999999999999  0.2149  1.0000
  N   N64       1.0  0.5857000000000001  0.7961  0.1194  1.0000
  N   N65       1.0  0.593  0.9255999999999999  0.188  1.0000
  N   N66       1.0  0.4617  0.6766  0.0247  1.0000
  N   N67       1.0  0.1767  0.46629999999999994  0.3806  1.0000
  N   N68       1.0  0.2376  0.405  0.312  1.0000
  N   N69       1.0  0.1519  0.437  0.4752999999999999  1.0000
  N   N70       1.0  0.3233  0.7039  0.2896  1.0000
  N   N71       1.0  0.2624  0.5744  0.1674  1.0000
  N   N72       1.0  0.3481  0.8234  0.2851  1.0000
