data_image0
_chemical_formula_structural       K12H180C132O28
_chemical_formula_sum              "K12 H180 C132 O28"
_cell_length_a       13.8683
_cell_length_b       16.2281
_cell_length_c       20.491
_cell_angle_alpha    90.0
_cell_angle_beta     104.715
_cell_angle_gamma    90.0

_symmetry_space_group_name_H-M    'P 1'
_symmetry_Int_Tables_number       1

loop_
  _symmetry_equiv_pos_as_xyz
  'x,y,z'

loop_
  _atom_site_type_symbol
  _atom_site_label
  _atom_site_symmetry_multiplicity
  _atom_site_fract_x
  _atom_site_fract_y
  _atom_site_fract_z
  _atom_site_occupancy
  K   K1        1.0  0.010020000000000005  0.39783  0.88517  1.0000
  K   K2        1.0  0.06503999999999999  0.3711799999999999  0.11015  1.0000
  K   K3        1.0  0.21901  0.48151  0.028230000000000005  1.0000
  K   K4        1.0  0.9899800000000001  0.89783  0.6148300000000002  1.0000
  K   K5        1.0  0.93496  0.87118  0.38985  1.0000
  K   K6        1.0  0.7809899999999997  0.98151  0.47177  1.0000
  K   K7        1.0  0.98998  0.60217  0.11483000000000002  1.0000
  K   K8        1.0  0.93496  0.62882  0.88985  1.0000
  K   K9        1.0  0.7809900000000001  0.51849  0.9717700000000002  1.0000
  K   K10       1.0  0.01002000000000002  0.10217  0.38517000000000007  1.0000
  K   K11       1.0  0.06504000000000006  0.12882  0.6101500000000001  1.0000
  K   K12       1.0  0.21901  0.01849  0.52823  1.0000
  H   H1        1.0  0.2015  0.08159999999999999  0.969  1.0000
  H   H2        1.0  0.31770000000000004  0.1212  0.9106000000000002  1.0000
  H   H3        1.0  0.3413  0.2609  0.8934000000000001  1.0000
  H   H4        1.0  0.2511000000000001  0.359  0.9345000000000001  1.0000
  H   H5        1.0  0.0746  0.21049999999999994  0.057300000000000004  1.0000
  H   H6        1.0  0.9691  0.1319  0.9353  1.0000
  H   H7        1.0  0.9206  0.161  0.9945000000000002  1.0000
  H   H8        1.0  0.9617000000000001  0.228  0.9509000000000002  1.0000
  H   H9        1.0  0.155  0.0836  0.08740000000000002  1.0000
  H   H10       1.0  0.037200000000000004  0.0752  0.07750000000000001  1.0000
  H   H11       1.0  0.0875  0.0427  0.020200000000000003  1.0000
  H   H12       1.0  0.6278  0.3892  0.6841  1.0000
  H   H13       1.0  0.7174  0.4432  0.6123000000000002  1.0000
  H   H14       1.0  0.8682000000000001  0.5117  0.6585000000000002  1.0000
  H   H15       1.0  0.9260000000000002  0.5267  0.775  1.0000
  H   H16       1.0  0.6634  0.4303  0.8547000000000001  1.0000
  H   H17       1.0  0.5256000000000001  0.3449  0.8219  1.0000
  H   H18       1.0  0.5201  0.4134  0.7648  1.0000
  H   H19       1.0  0.5546  0.3214999999999999  0.7535  1.0000
  H   H20       1.0  0.7221  0.2703  0.8208  1.0000
  H   H21       1.0  0.7898  0.3292  0.8767  1.0000
  H   H22       1.0  0.6883  0.2921  0.8878  1.0000
  H   H23       1.0  0.3404  0.6411  0.8175  1.0000
  H   H24       1.0  0.3583  0.7567  0.8875  1.0000
  H   H25       1.0  0.262  0.7694  0.9644  1.0000
  H   H26       1.0  0.1483  0.6679  0.9711  1.0000
  H   H27       1.0  0.1766000000000001  0.4693  0.8241  1.0000
  H   H28       1.0  0.2971  0.4142  0.7793  1.0000
  H   H29       1.0  0.34560000000000013  0.4484  0.8536000000000001  1.0000
  H   H30       1.0  0.3567000000000001  0.49959999999999993  0.7892000000000002  1.0000
  H   H31       1.0  0.09630000000000002  0.5511  0.7357000000000001  1.0000
  H   H32       1.0  0.1522  0.478  0.7078  1.0000
  H   H33       1.0  0.1985000000000001  0.5689  0.7155000000000002  1.0000
  H   H34       1.0  0.8821  0.225  0.7134  1.0000
  H   H35       1.0  0.8551  0.3178  0.729  1.0000
  H   H36       1.0  0.0878000000000001  0.20859999999999995  0.8501000000000002  1.0000
  H   H37       1.0  0.022299999999999997  0.1598  0.786  1.0000
  H   H38       1.0  0.14239999999999994  0.3005  0.7787  1.0000
  H   H39       1.0  0.16970000000000005  0.20799999999999993  0.7629000000000002  1.0000
  H   H40       1.0  0.9364  0.3155  0.6409  1.0000
  H   H41       1.0  0.0009999999999999961  0.3661  0.7042  1.0000
  H   H42       1.0  0.4564  0.3672  0.019600000000000003  1.0000
  H   H43       1.0  0.5224  0.4291  0.07390000000000001  1.0000
  H   H44       1.0  0.4836  0.5729  0.0661  1.0000
  H   H45       1.0  0.39200000000000007  0.605  0.0071  1.0000
  H   H46       1.0  0.7985000000000001  0.5816  0.531  1.0000
  H   H47       1.0  0.6823  0.6212  0.5894  1.0000
  H   H48       1.0  0.6586999999999998  0.7609  0.6066  1.0000
  H   H49       1.0  0.7489  0.859  0.5655000000000001  1.0000
  H   H50       1.0  0.9254000000000001  0.7105  0.44270000000000004  1.0000
  H   H51       1.0  0.030899999999999976  0.6319  0.5647  1.0000
  H   H52       1.0  0.07940000000000001  0.661  0.5055000000000001  1.0000
  H   H53       1.0  0.0383  0.728  0.5491  1.0000
  H   H54       1.0  0.845  0.5836  0.4126  1.0000
  H   H55       1.0  0.9627999999999999  0.5752  0.4225  1.0000
  H   H56       1.0  0.9124999999999999  0.5427  0.47980000000000006  1.0000
  H   H57       1.0  0.3722  0.8891999999999998  0.8159  1.0000
  H   H58       1.0  0.2826  0.9432  0.8877000000000002  1.0000
  H   H59       1.0  0.13180000000000006  0.0117  0.8415  1.0000
  H   H60       1.0  0.07400000000000005  0.026699999999999995  0.7250000000000002  1.0000
  H   H61       1.0  0.33660000000000007  0.9302999999999998  0.6453000000000002  1.0000
  H   H62       1.0  0.4744  0.8449  0.6781  1.0000
  H   H63       1.0  0.47990000000000005  0.9134  0.7352000000000002  1.0000
  H   H64       1.0  0.4454  0.8215  0.7465  1.0000
  H   H65       1.0  0.2779  0.7703  0.6792  1.0000
  H   H66       1.0  0.2102  0.8292  0.6233  1.0000
  H   H67       1.0  0.31170000000000003  0.7921  0.6122000000000001  1.0000
  H   H68       1.0  0.6596  0.1411  0.6825000000000002  1.0000
  H   H69       1.0  0.6417  0.2567  0.6125  1.0000
  H   H70       1.0  0.738  0.2694  0.5356000000000001  1.0000
  H   H71       1.0  0.8517  0.1679  0.5289  1.0000
  H   H72       1.0  0.8234  0.9693  0.6759  1.0000
  H   H73       1.0  0.7029000000000001  0.9142  0.7207000000000001  1.0000
  H   H74       1.0  0.6544  0.9484  0.6464000000000001  1.0000
  H   H75       1.0  0.6433  0.9996  0.7108  1.0000
  H   H76       1.0  0.9037  0.0511  0.7643  1.0000
  H   H77       1.0  0.8478  0.978  0.7922000000000002  1.0000
  H   H78       1.0  0.8015  0.0689  0.7845  1.0000
  H   H79       1.0  0.11790000000000005  0.7249999999999998  0.7866000000000001  1.0000
  H   H80       1.0  0.1449  0.8178  0.771  1.0000
  H   H81       1.0  0.9122  0.7086  0.6499  1.0000
  H   H82       1.0  0.9777  0.6598  0.714  1.0000
  H   H83       1.0  0.8576  0.8005  0.7213  1.0000
  H   H84       1.0  0.8303  0.708  0.7371  1.0000
  H   H85       1.0  0.06360000000000011  0.8155  0.8591000000000002  1.0000
  H   H86       1.0  0.999  0.8661  0.7958000000000002  1.0000
  H   H87       1.0  0.5436  0.8672  0.4804  1.0000
  H   H88       1.0  0.4776  0.9291  0.42610000000000003  1.0000
  H   H89       1.0  0.5164  0.07289999999999998  0.43390000000000006  1.0000
  H   H90       1.0  0.608  0.105  0.49290000000000006  1.0000
  H   H91       1.0  0.7985000000000001  0.9184  0.031000000000000003  1.0000
  H   H92       1.0  0.6823  0.8788  0.0894  1.0000
  H   H93       1.0  0.6586999999999998  0.7391  0.10660000000000001  1.0000
  H   H94       1.0  0.7489  0.641  0.0655  1.0000
  H   H95       1.0  0.9254000000000001  0.7895  0.9427000000000001  1.0000
  H   H96       1.0  0.030900000000000007  0.8680999999999998  0.06470000000000001  1.0000
  H   H97       1.0  0.0794  0.839  0.005500000000000001  1.0000
  H   H98       1.0  0.0383  0.772  0.04910000000000001  1.0000
  H   H99       1.0  0.845  0.9163999999999999  0.9126  1.0000
  H   H100      1.0  0.9627999999999999  0.9248  0.9225000000000001  1.0000
  H   H101      1.0  0.9124999999999999  0.9573  0.9798000000000001  1.0000
  H   H102      1.0  0.3722  0.6108  0.3159  1.0000
  H   H103      1.0  0.2826  0.5568  0.3877000000000001  1.0000
  H   H104      1.0  0.1318  0.4883  0.3415000000000001  1.0000
  H   H105      1.0  0.07400000000000001  0.4733  0.22500000000000006  1.0000
  H   H106      1.0  0.3366  0.5697  0.14530000000000004  1.0000
  H   H107      1.0  0.4744  0.6551  0.17810000000000004  1.0000
  H   H108      1.0  0.47990000000000005  0.5866  0.23520000000000002  1.0000
  H   H109      1.0  0.4454  0.6785  0.24650000000000002  1.0000
  H   H110      1.0  0.2779  0.7297  0.1792  1.0000
  H   H111      1.0  0.2102  0.6708  0.12330000000000003  1.0000
  H   H112      1.0  0.3117  0.7079  0.1122  1.0000
  H   H113      1.0  0.6596  0.3589  0.1825  1.0000
  H   H114      1.0  0.6417  0.2433  0.11250000000000003  1.0000
  H   H115      1.0  0.738  0.2306  0.0356  1.0000
  H   H116      1.0  0.8517  0.3321  0.0289  1.0000
  H   H117      1.0  0.8234  0.5307  0.1759  1.0000
  H   H118      1.0  0.7029000000000001  0.5857999999999998  0.22070000000000004  1.0000
  H   H119      1.0  0.6544  0.5516  0.1464  1.0000
  H   H120      1.0  0.6433  0.5004  0.21080000000000002  1.0000
  H   H121      1.0  0.9037  0.4489  0.2643  1.0000
  H   H122      1.0  0.8478  0.522  0.2922  1.0000
  H   H123      1.0  0.8015  0.4311  0.2845  1.0000
  H   H124      1.0  0.1179  0.775  0.2866  1.0000
  H   H125      1.0  0.1449  0.6822  0.271  1.0000
  H   H126      1.0  0.9122  0.7914  0.1499  1.0000
  H   H127      1.0  0.9777  0.8402  0.21400000000000002  1.0000
  H   H128      1.0  0.8576  0.6995  0.22130000000000002  1.0000
  H   H129      1.0  0.8303  0.792  0.23710000000000003  1.0000
  H   H130      1.0  0.0636  0.6845  0.3591  1.0000
  H   H131      1.0  0.999  0.6339  0.2958  1.0000
  H   H132      1.0  0.5436000000000002  0.6328  0.9804000000000003  1.0000
  H   H133      1.0  0.4776000000000001  0.5709  0.9261000000000001  1.0000
  H   H134      1.0  0.5164  0.4271  0.9339000000000001  1.0000
  H   H135      1.0  0.6080000000000001  0.395  0.9929000000000002  1.0000
  H   H136      1.0  0.20150000000000004  0.4184  0.46900000000000003  1.0000
  H   H137      1.0  0.31770000000000004  0.3788  0.4106000000000001  1.0000
  H   H138      1.0  0.3413  0.23909999999999995  0.3934000000000001  1.0000
  H   H139      1.0  0.2511  0.141  0.4345  1.0000
  H   H140      1.0  0.07459999999999997  0.2895  0.5573  1.0000
  H   H141      1.0  0.9691  0.3681  0.43530000000000013  1.0000
  H   H142      1.0  0.9206  0.339  0.49450000000000005  1.0000
  H   H143      1.0  0.9616999999999999  0.272  0.4509  1.0000
  H   H144      1.0  0.155  0.4164  0.5874  1.0000
  H   H145      1.0  0.03720000000000004  0.4248  0.5775000000000001  1.0000
  H   H146      1.0  0.0875  0.4573  0.5202  1.0000
  H   H147      1.0  0.6278  0.1108  0.18410000000000004  1.0000
  H   H148      1.0  0.7174  0.0568  0.1123  1.0000
  H   H149      1.0  0.8682  0.9883  0.15850000000000006  1.0000
  H   H150      1.0  0.9260000000000002  0.9733  0.2750000000000001  1.0000
  H   H151      1.0  0.6634  0.0697  0.35470000000000007  1.0000
  H   H152      1.0  0.5256  0.1551  0.3219  1.0000
  H   H153      1.0  0.5201  0.0866  0.26480000000000004  1.0000
  H   H154      1.0  0.5546  0.1785  0.2535  1.0000
  H   H155      1.0  0.7221000000000001  0.2297  0.32080000000000003  1.0000
  H   H156      1.0  0.7898  0.1708  0.3767  1.0000
  H   H157      1.0  0.6883  0.2079  0.3878  1.0000
  H   H158      1.0  0.3404  0.8589  0.31750000000000006  1.0000
  H   H159      1.0  0.3583  0.7433  0.3875  1.0000
  H   H160      1.0  0.26200000000000007  0.7306  0.46440000000000003  1.0000
  H   H161      1.0  0.14830000000000002  0.8321  0.4711000000000001  1.0000
  H   H162      1.0  0.17660000000000006  0.0307  0.32410000000000005  1.0000
  H   H163      1.0  0.2971  0.0858  0.2793  1.0000
  H   H164      1.0  0.3456000000000001  0.0516  0.3536  1.0000
  H   H165      1.0  0.3567  0.0004  0.2892  1.0000
  H   H166      1.0  0.0963  0.9489  0.2357  1.0000
  H   H167      1.0  0.1522  0.022  0.2078  1.0000
  H   H168      1.0  0.1985  0.9311  0.21550000000000002  1.0000
  H   H169      1.0  0.8821  0.275  0.21340000000000003  1.0000
  H   H170      1.0  0.8551  0.1822  0.22900000000000004  1.0000
  H   H171      1.0  0.08780000000000002  0.2914  0.3501  1.0000
  H   H172      1.0  0.022299999999999997  0.3402  0.286  1.0000
  H   H173      1.0  0.1424  0.1995  0.2787  1.0000
  H   H174      1.0  0.1697  0.292  0.2629  1.0000
  H   H175      1.0  0.9364  0.1845  0.1409  1.0000
  H   H176      1.0  0.001000000000000012  0.1339  0.20420000000000002  1.0000
  H   H177      1.0  0.4564  0.1328  0.5196  1.0000
  H   H178      1.0  0.5223999999999999  0.0709  0.5739000000000001  1.0000
  H   H179      1.0  0.4836  0.9271  0.5661  1.0000
  H   H180      1.0  0.39200000000000007  0.895  0.5071  1.0000
  C   C1        1.0  0.1706000000000001  0.2809  0.9784100000000001  1.0000
  C   C2        1.0  0.15519999999999995  0.1951  0.98745  1.0000
  C   C3        1.0  0.21110000000000004  0.1386  0.9622  1.0000
  C   C4        1.0  0.2804999999999999  0.1616  0.9273  1.0000
  C   C5        1.0  0.29440000000000005  0.244  0.9174000000000002  1.0000
  C   C6        1.0  0.24060000000000012  0.3024  0.9421900000000001  1.0000
  C   C7        1.0  0.0749  0.1692  0.021100000000000004  1.0000
  C   C8        1.0  0.9724000000000003  0.1729  0.9709  1.0000
  C   C9        1.0  0.09  0.0853  0.0545  1.0000
  C   C10       1.0  0.8089  0.4705  0.8004000000000001  1.0000
  C   C11       1.0  0.7198  0.4262  0.7722  1.0000
  C   C12       1.0  0.6882  0.4177  0.7029  1.0000
  C   C13       1.0  0.7414000000000001  0.4494  0.6598000000000003  1.0000
  C   C14       1.0  0.8303  0.4902  0.6873000000000002  1.0000
  C   C15       1.0  0.8642  0.4998  0.7568000000000001  1.0000
  C   C16       1.0  0.6642000000000001  0.3885  0.8190000000000002  1.0000
  C   C17       1.0  0.5566  0.3649999999999999  0.787  1.0000
  C   C18       1.0  0.7212  0.3132  0.8543  1.0000
  C   C19       1.0  0.1727  0.5915  0.8976400000000001  1.0000
  C   C20       1.0  0.2321  0.5842  0.8512  1.0000
  C   C21       1.0  0.3003  0.646  0.8486  1.0000
  C   C22       1.0  0.3114  0.7151  0.8905  1.0000
  C   C23       1.0  0.2548  0.7227  0.9357  1.0000
  C   C24       1.0  0.18710000000000002  0.6621  0.9392000000000001  1.0000
  C   C25       1.0  0.21900000000000008  0.5085999999999998  0.8059000000000002  1.0000
  C   C26       1.0  0.3125  0.4639  0.8071000000000002  1.0000
  C   C27       1.0  0.16150000000000006  0.5284  0.7351000000000001  1.0000
  C   C28       1.0  0.9106999999999998  0.2789  0.73104  1.0000
  C   C29       1.0  0.04850000000000005  0.2148  0.80276  1.0000
  C   C30       1.0  0.11390000000000006  0.2468  0.7606500000000002  1.0000
  C   C31       1.0  0.9759000000000001  0.3106  0.6883100000000002  1.0000
  C   C32       1.0  0.4847  0.4234999999999999  0.0261  1.0000
  C   C33       1.0  0.4466  0.564  0.0185  1.0000
  C   C34       1.0  0.8294  0.7808999999999998  0.52159  1.0000
  C   C35       1.0  0.8447999999999998  0.6951  0.51255  1.0000
  C   C36       1.0  0.7889  0.6386  0.5378  1.0000
  C   C37       1.0  0.7195  0.6616  0.5727000000000001  1.0000
  C   C38       1.0  0.7056  0.744  0.5826  1.0000
  C   C39       1.0  0.7594  0.8024  0.55781  1.0000
  C   C40       1.0  0.9251  0.6692  0.4789  1.0000
  C   C41       1.0  0.0276  0.6729  0.5291  1.0000
  C   C42       1.0  0.91  0.5853  0.4455000000000001  1.0000
  C   C43       1.0  0.19110000000000002  0.9705  0.6996  1.0000
  C   C44       1.0  0.2802  0.9262  0.7278  1.0000
  C   C45       1.0  0.31180000000000013  0.9176999999999997  0.7971000000000003  1.0000
  C   C46       1.0  0.25860000000000005  0.9494  0.8402000000000001  1.0000
  C   C47       1.0  0.1697000000000001  0.9902000000000001  0.8127000000000001  1.0000
  C   C48       1.0  0.13580000000000003  0.9997999999999999  0.7432  1.0000
  C   C49       1.0  0.33580000000000004  0.8885  0.681  1.0000
  C   C50       1.0  0.4434000000000001  0.865  0.7130000000000002  1.0000
  C   C51       1.0  0.2788  0.8132  0.6457  1.0000
  C   C52       1.0  0.8273  0.0915  0.60236  1.0000
  C   C53       1.0  0.7679  0.0842  0.6488  1.0000
  C   C54       1.0  0.6997  0.146  0.6514  1.0000
  C   C55       1.0  0.6886  0.2151  0.6095  1.0000
  C   C56       1.0  0.7452  0.2227  0.5643  1.0000
  C   C57       1.0  0.8129  0.1621  0.5608000000000002  1.0000
  C   C58       1.0  0.781  0.0086  0.6941  1.0000
  C   C59       1.0  0.6875  0.9639  0.6929  1.0000
  C   C60       1.0  0.8385  0.0284  0.7649  1.0000
  C   C61       1.0  0.08930000000000012  0.7789  0.7689600000000002  1.0000
  C   C62       1.0  0.9515  0.7148  0.6972400000000001  1.0000
  C   C63       1.0  0.8861  0.7468  0.73935  1.0000
  C   C64       1.0  0.024100000000000094  0.8106  0.8116900000000001  1.0000
  C   C65       1.0  0.5153  0.9235  0.47390000000000004  1.0000
  C   C66       1.0  0.5534  0.064  0.4815  1.0000
  C   C67       1.0  0.8294  0.7191  0.02159  1.0000
  C   C68       1.0  0.8448  0.8049  0.01255  1.0000
  C   C69       1.0  0.7889  0.8614  0.0378  1.0000
  C   C70       1.0  0.7195  0.8384  0.0727  1.0000
  C   C71       1.0  0.7056  0.756  0.0826  1.0000
  C   C72       1.0  0.7594  0.6975999999999998  0.05781  1.0000
  C   C73       1.0  0.9251  0.8308  0.9789000000000001  1.0000
  C   C74       1.0  0.0276  0.8271  0.0291  1.0000
  C   C75       1.0  0.9100000000000001  0.9147  0.9455000000000002  1.0000
  C   C76       1.0  0.19110000000000002  0.5295  0.1996  1.0000
  C   C77       1.0  0.2802000000000001  0.5738  0.2278  1.0000
  C   C78       1.0  0.3118000000000001  0.5823  0.29710000000000003  1.0000
  C   C79       1.0  0.2586  0.5506  0.3402  1.0000
  C   C80       1.0  0.16970000000000002  0.5098  0.31270000000000003  1.0000
  C   C81       1.0  0.1358  0.5002  0.2432  1.0000
  C   C82       1.0  0.33580000000000004  0.6115  0.181  1.0000
  C   C83       1.0  0.4434  0.635  0.21300000000000005  1.0000
  C   C84       1.0  0.2788  0.6868  0.1457  1.0000
  C   C85       1.0  0.8273  0.40849999999999986  0.10236000000000003  1.0000
  C   C86       1.0  0.7679  0.4158  0.1488  1.0000
  C   C87       1.0  0.6997  0.354  0.1514  1.0000
  C   C88       1.0  0.6886  0.2849  0.10950000000000003  1.0000
  C   C89       1.0  0.7452  0.2773  0.0643  1.0000
  C   C90       1.0  0.8129  0.3379  0.0608  1.0000
  C   C91       1.0  0.781  0.4914  0.19410000000000002  1.0000
  C   C92       1.0  0.6875  0.5361  0.19290000000000002  1.0000
  C   C93       1.0  0.8385  0.4716  0.2649  1.0000
  C   C94       1.0  0.08929999999999999  0.7211  0.26896  1.0000
  C   C95       1.0  0.9515  0.7852  0.19724  1.0000
  C   C96       1.0  0.8861  0.7532  0.23935000000000003  1.0000
  C   C97       1.0  0.024099999999999996  0.6894  0.31169  1.0000
  C   C98       1.0  0.5153  0.5765  0.9739  1.0000
  C   C99       1.0  0.5534000000000001  0.436  0.9815000000000003  1.0000
  C   C100      1.0  0.17060000000000003  0.2191  0.47841000000000006  1.0000
  C   C101      1.0  0.15520000000000006  0.3049  0.4874500000000001  1.0000
  C   C102      1.0  0.21109999999999998  0.3614  0.46220000000000006  1.0000
  C   C103      1.0  0.2804999999999999  0.3384  0.4273  1.0000
  C   C104      1.0  0.2944  0.256  0.41740000000000005  1.0000
  C   C105      1.0  0.24059999999999998  0.1976  0.44219  1.0000
  C   C106      1.0  0.0749  0.3308  0.5211  1.0000
  C   C107      1.0  0.9724000000000002  0.3271  0.47090000000000004  1.0000
  C   C108      1.0  0.09000000000000002  0.4146999999999999  0.5545  1.0000
  C   C109      1.0  0.8089  0.02949999999999999  0.3004  1.0000
  C   C110      1.0  0.7198  0.0738  0.2722  1.0000
  C   C111      1.0  0.6882  0.0823  0.20290000000000002  1.0000
  C   C112      1.0  0.7414  0.050599999999999985  0.15980000000000003  1.0000
  C   C113      1.0  0.8303  0.0098  0.1873  1.0000
  C   C114      1.0  0.8642  0.0002  0.2568  1.0000
  C   C115      1.0  0.6642  0.1115  0.31900000000000006  1.0000
  C   C116      1.0  0.5566  0.135  0.287  1.0000
  C   C117      1.0  0.7212  0.1868  0.3543  1.0000
  C   C118      1.0  0.1727  0.9085  0.39764  1.0000
  C   C119      1.0  0.2321  0.9158  0.3512  1.0000
  C   C120      1.0  0.3003  0.854  0.3486  1.0000
  C   C121      1.0  0.3114  0.7849  0.3905  1.0000
  C   C122      1.0  0.2547999999999999  0.7773  0.4357  1.0000
  C   C123      1.0  0.18710000000000002  0.8379  0.43920000000000003  1.0000
  C   C124      1.0  0.21900000000000003  0.9913999999999998  0.3059000000000001  1.0000
  C   C125      1.0  0.3125  0.0361  0.3071  1.0000
  C   C126      1.0  0.1615  0.9716  0.2351  1.0000
  C   C127      1.0  0.9107  0.2211  0.23104  1.0000
  C   C128      1.0  0.048500000000000015  0.2852  0.30276  1.0000
  C   C129      1.0  0.1139  0.2532  0.26065  1.0000
  C   C130      1.0  0.9759  0.1894  0.18831  1.0000
  C   C131      1.0  0.4847  0.0765  0.5261  1.0000
  C   C132      1.0  0.4466  0.936  0.5185  1.0000
  O   O1        1.0  0.1203  0.33781  0.00187  1.0000
  O   O2        1.0  0.84043  0.48307  0.86622  1.0000
  O   O3        1.0  0.10750000000000001  0.53499  0.90228  1.0000
  O   O4        1.0  0.9677900000000002  0.26977  0.7999000000000002  1.0000
  O   O5        1.0  0.05819  0.25656  0.6917  1.0000
  O   O6        1.0  0.40540000000000004  0.48283  0.011070000000000002  1.0000
  O   O7        1.0  0.9865000000000002  0.4805  0.9989000000000002  1.0000
  O   O8        1.0  0.8797  0.83781  0.4981300000000001  1.0000
  O   O9        1.0  0.15957  0.9830699999999998  0.63378  1.0000
  O   O10       1.0  0.8925  0.03499  0.59772  1.0000
  O   O11       1.0  0.032210000000000016  0.76977  0.7001  1.0000
  O   O12       1.0  0.94181  0.75656  0.8083  1.0000
  O   O13       1.0  0.5946  0.98283  0.48893000000000003  1.0000
  O   O14       1.0  0.013499999999999995  0.9805  0.5011  1.0000
  O   O15       1.0  0.8797  0.6621899999999997  0.9981300000000001  1.0000
  O   O16       1.0  0.15957  0.51693  0.13378  1.0000
  O   O17       1.0  0.8925  0.46501  0.09772  1.0000
  O   O18       1.0  0.032210000000000016  0.73023  0.20010000000000003  1.0000
  O   O19       1.0  0.94181  0.74344  0.30830000000000013  1.0000
  O   O20       1.0  0.5946  0.51717  0.9889300000000001  1.0000
  O   O21       1.0  0.0135  0.5195  0.0011000000000000003  1.0000
  O   O22       1.0  0.12030000000000005  0.16219  0.50187  1.0000
  O   O23       1.0  0.84043  0.01693  0.36622  1.0000
  O   O24       1.0  0.10750000000000004  0.96501  0.40228  1.0000
  O   O25       1.0  0.96779  0.23023  0.2999000000000001  1.0000
  O   O26       1.0  0.05819  0.24343999999999993  0.1917  1.0000
  O   O27       1.0  0.40540000000000004  0.01717  0.51107  1.0000
  O   O28       1.0  0.9865  0.0195  0.49890000000000007  1.0000
