data_image0
_chemical_formula_structural       Ca4H12C28N4O16
_chemical_formula_sum              "Ca4 H12 C28 N4 O16"
_cell_length_a       6.4275
_cell_length_b       10.9764
_cell_length_c       16.387
_cell_angle_alpha    90.0
_cell_angle_beta     90.0
_cell_angle_gamma    99.182

_symmetry_space_group_name_H-M    'P 1'
_symmetry_Int_Tables_number       1

loop_
  _symmetry_equiv_pos_as_xyz
  'x,y,z'

loop_
  _atom_site_type_symbol
  _atom_site_label
  _atom_site_symmetry_multiplicity
  _atom_site_fract_x
  _atom_site_fract_y
  _atom_site_fract_z
  _atom_site_occupancy
  Ca  Ca1       1.0  0.7822100000000001  0.5806  0.95785  1.0000
  Ca  Ca2       1.0  0.71779  0.9194  0.4578500000000001  1.0000
  Ca  Ca3       1.0  0.21779000000000007  0.41940000000000005  0.04215  1.0000
  Ca  Ca4       1.0  0.28221  0.0806  0.54215  1.0000
  H   H1        1.0  0.22230000000000005  0.7556000000000002  0.7621  1.0000
  H   H2        1.0  0.8041  0.8634  0.6754  1.0000
  H   H3        1.0  0.9275000000000002  0.768  0.7852  1.0000
  H   H4        1.0  0.2777  0.7444  0.2621  1.0000
  H   H5        1.0  0.6959  0.6366  0.1754  1.0000
  H   H6        1.0  0.5725  0.732  0.2852  1.0000
  H   H7        1.0  0.7777000000000002  0.2444  0.2379  1.0000
  H   H8        1.0  0.19590000000000002  0.1366  0.3246  1.0000
  H   H9        1.0  0.0725  0.232  0.2148  1.0000
  H   H10       1.0  0.7223  0.2556  0.7379  1.0000
  H   H11       1.0  0.3041  0.3634  0.8246  1.0000
  H   H12       1.0  0.4275000000000001  0.268  0.7148000000000002  1.0000
  C   C1        1.0  0.4515  0.7  0.8290400000000002  1.0000
  C   C2        1.0  0.398  0.8848  0.63807  1.0000
  C   C3        1.0  0.3674  0.7579  0.76517  1.0000
  C   C4        1.0  0.7108000000000001  0.8227000000000001  0.71362  1.0000
  C   C5        1.0  0.496  0.8193000000000001  0.70571  1.0000
  C   C6        1.0  0.31010000000000004  0.6356000000000002  0.8957100000000002  1.0000
  C   C7        1.0  0.7826000000000002  0.764  0.77979  1.0000
  C   C8        1.0  0.04850000000000002  0.8  0.3290400000000001  1.0000
  C   C9        1.0  0.10200000000000004  0.6152  0.13807  1.0000
  C   C10       1.0  0.13260000000000005  0.7421000000000002  0.26517000000000013  1.0000
  C   C11       1.0  0.7892  0.6773  0.21362000000000006  1.0000
  C   C12       1.0  0.0039999999999999845  0.6807  0.20571000000000006  1.0000
  C   C13       1.0  0.1899  0.8644000000000001  0.39571  1.0000
  C   C14       1.0  0.7174000000000001  0.7360000000000001  0.27979  1.0000
  C   C15       1.0  0.5485000000000001  0.3  0.17096  1.0000
  C   C16       1.0  0.602  0.1152  0.36193  1.0000
  C   C17       1.0  0.6326  0.2421  0.23483000000000007  1.0000
  C   C18       1.0  0.2892  0.17730000000000004  0.28638  1.0000
  C   C19       1.0  0.504  0.18070000000000003  0.29429  1.0000
  C   C20       1.0  0.6899  0.3644  0.10429000000000002  1.0000
  C   C21       1.0  0.2174  0.236  0.22021  1.0000
  C   C22       1.0  0.9515  0.2  0.67096  1.0000
  C   C23       1.0  0.8980000000000001  0.3848  0.86193  1.0000
  C   C24       1.0  0.8674000000000001  0.2579000000000001  0.7348300000000002  1.0000
  C   C25       1.0  0.2108  0.3227  0.78638  1.0000
  C   C26       1.0  0.996  0.3193  0.7942900000000003  1.0000
  C   C27       1.0  0.8101000000000003  0.1356  0.60429  1.0000
  C   C28       1.0  0.2826  0.264  0.72021  1.0000
  N   N1        1.0  0.6596  0.7013  0.8371000000000002  1.0000
  N   N2        1.0  0.8404  0.7987  0.3371  1.0000
  N   N3        1.0  0.3404  0.2987000000000001  0.16290000000000004  1.0000
  N   N4        1.0  0.1596  0.2013  0.6629  1.0000
  O   O1        1.0  0.3947  0.5716700000000001  0.9463400000000002  1.0000
  O   O2        1.0  0.49050000000000005  0.89932  0.57063  1.0000
  O   O3        1.0  0.23080000000000012  0.9240800000000002  0.65317  1.0000
  O   O4        1.0  0.12390000000000001  0.65404  0.89496  1.0000
  O   O5        1.0  0.1053  0.92833  0.44634  1.0000
  O   O6        1.0  0.009500000000000028  0.6006800000000001  0.07063  1.0000
  O   O7        1.0  0.2692  0.57592  0.15317  1.0000
  O   O8        1.0  0.37610000000000005  0.8459600000000002  0.39496  1.0000
  O   O9        1.0  0.6053  0.42833  0.05366000000000001  1.0000
  O   O10       1.0  0.5095  0.10068  0.42937  1.0000
  O   O11       1.0  0.7692  0.07592  0.34683  1.0000
  O   O12       1.0  0.8761  0.34596  0.10504  1.0000
  O   O13       1.0  0.8947000000000002  0.07167  0.55366  1.0000
  O   O14       1.0  0.9905  0.39932  0.92937  1.0000
  O   O15       1.0  0.7308  0.42408000000000007  0.84683  1.0000
  O   O16       1.0  0.6239000000000002  0.15404  0.60504  1.0000
