data_image0
_chemical_formula_structural       Cu4H80C72N48
_chemical_formula_sum              "Cu4 H80 C72 N48"
_cell_length_a       16.861075
_cell_length_b       12.888209999999999
_cell_length_c       13.784681999999998
_cell_angle_alpha    89.99998753
_cell_angle_beta     90.00120954
_cell_angle_gamma    90.00003111999999

_space_group_name_H-M_alt    "P 1"
_space_group_IT_number       1

loop_
  _space_group_symop_operation_xyz
  'x, y, z'

loop_
  _atom_site_type_symbol
  _atom_site_label
  _atom_site_symmetry_multiplicity
  _atom_site_fract_x
  _atom_site_fract_y
  _atom_site_fract_z
  _atom_site_occupancy
  Cu  Cu1       1.0  0.07497095  0.76020827  0.8580217400000002  1.0000
  Cu  Cu2       1.0  0.42021685  0.24274581  0.35773432  1.0000
  Cu  Cu3       1.0  0.92577589  0.26551736000000004  0.16767950000000006  1.0000
  Cu  Cu4       1.0  0.57004949  0.7420090800000002  0.6413234500000002  1.0000
  H   H1        1.0  0.11967313000000002  0.57542169  0.70236161  1.0000
  H   H2        1.0  0.98557443  0.4040356100000001  0.9108893600000002  1.0000
  H   H3        1.0  0.95489714  0.34639638  0.6882009100000003  1.0000
  H   H4        1.0  0.01734088  0.41835352  0.6086974300000001  1.0000
  H   H5        1.0  0.11815872  0.32186168  0.50338814  1.0000
  H   H6        1.0  0.16734664  0.42854707  0.64220039  1.0000
  H   H7        1.0  0.20542837  0.36916085000000004  0.7491914100000002  1.0000
  H   H8        1.0  0.37247639  0.4288509000000001  0.19917671000000006  1.0000
  H   H9        1.0  0.50713926  0.59966709  0.40705535000000004  1.0000
  H   H10       1.0  0.53984053  0.6488964400000001  0.17883529000000006  1.0000
  H   H11       1.0  0.47255391  0.5819808700000001  0.10147094  1.0000
  H   H12       1.0  0.37468392  0.68533196  0.99883622  1.0000
  H   H13       1.0  0.32553884  0.58071222  0.13767671  1.0000
  H   H14       1.0  0.28945674  0.6402293500000003  0.24568738000000007  1.0000
  H   H15       1.0  0.86478956  0.07618081000000002  0.2979930600000001  1.0000
  H   H16       1.0  0.00541036  0.9092837900000001  0.09269598  1.0000
  H   H17       1.0  0.033777100000000004  0.8556442300000002  0.32011145  1.0000
  H   H18       1.0  0.96677679  0.9239851900000001  0.39710387000000014  1.0000
  H   H19       1.0  0.8688522  0.8247079100000002  0.50019389  1.0000
  H   H20       1.0  0.82076627  0.9308527600000002  0.35960744000000006  1.0000
  H   H21       1.0  0.78344582  0.8703572500000002  0.25248324  1.0000
  H   H22       1.0  0.62747142  0.9276988  0.78369969  1.0000
  H   H23       1.0  0.46337367  0.09515876000000001  0.60821786  1.0000
  H   H24       1.0  0.46028208  0.16148721  0.82840587  1.0000
  H   H25       1.0  0.52739546  0.08590933  0.8988819100000002  1.0000
  H   H26       1.0  0.64196228  0.17781081000000004  0.98968877  1.0000
  H   H27       1.0  0.67046137  0.06789658  0.84727156  1.0000
  H   H28       1.0  0.70168856  0.12157586000000002  0.7338944200000003  1.0000
  H   H29       1.0  0.87868933  0.45151436  0.30181493  1.0000
  H   H30       1.0  0.9622908699999999  0.62606737  0.059200050000000004  1.0000
  H   H31       1.0  0.02859618  0.6602153300000002  0.30951115  1.0000
  H   H32       1.0  0.9609489800000001  0.58919919  0.3835976200000001  1.0000
  H   H33       1.0  0.86547179  0.6862096100000002  0.49509367  1.0000
  H   H34       1.0  0.81081854  0.5981972200000001  0.34478637  1.0000
  H   H35       1.0  0.78021343  0.67226455  0.24247766000000007  1.0000
  H   H36       1.0  0.61477691  0.55595348  0.7921605900000002  1.0000
  H   H37       1.0  0.52853129  0.3751943  0.5549927700000002  1.0000
  H   H38       1.0  0.47460386  0.35352508  0.8164548100000002  1.0000
  H   H39       1.0  0.55127047  0.4185714600000001  0.8817434900000002  1.0000
  H   H40       1.0  0.64875573  0.3156371000000001  0.98293024  1.0000
  H   H41       1.0  0.69536048  0.39884958  0.8239109500000003  1.0000
  H   H42       1.0  0.71633236  0.31987923000000007  0.7211632200000002  1.0000
  H   H43       1.0  0.10267454  0.9446877500000002  0.7029364800000001  1.0000
  H   H44       1.0  0.04306058  0.12730131000000003  0.95048979  1.0000
  H   H45       1.0  0.9629763600000001  0.15367456  0.69764291  1.0000
  H   H46       1.0  0.03046022  0.08422028  0.6217377700000002  1.0000
  H   H47       1.0  0.12238189999999999  0.18351954  0.50743847  1.0000
  H   H48       1.0  0.17948995  0.09536081000000002  0.6561536  1.0000
  H   H49       1.0  0.21291164  0.1690201  0.75719438  1.0000
  H   H50       1.0  0.40300322  0.05988254  0.19799037000000005  1.0000
  H   H51       1.0  0.46345565  0.8755900800000003  0.4443346200000001  1.0000
  H   H52       1.0  0.53886842  0.84113749  0.19046587000000004  1.0000
  H   H53       1.0  0.47403163  0.9165819600000001  0.11626099000000001  1.0000
  H   H54       1.0  0.37508295  0.8239940400000001  0.00393304  1.0000
  H   H55       1.0  0.3233689  0.9138860500000001  0.15409529000000005  1.0000
  H   H56       1.0  0.29007633  0.84176086  0.2563053  1.0000
  H   H57       1.0  0.00511116  0.37171004  0.4228590600000001  1.0000
  H   H58       1.0  0.89407038  0.11334493000000001  0.55685481  1.0000
  H   H59       1.0  0.2369184  0.26084384  0.4328294500000001  1.0000
  H   H60       1.0  0.33166142  0.26422013  0.718528  1.0000
  H   H61       1.0  0.11782534  0.26909021  0.8607468100000002  1.0000
  H   H62       1.0  0.01372537  0.25885624  0.8386615200000003  1.0000
  H   H63       1.0  0.4851089  0.6349605500000002  0.91138876  1.0000
  H   H64       1.0  0.61254675  0.8703590200000002  0.05909858  1.0000
  H   H65       1.0  0.2563602  0.73075351  0.9339044500000001  1.0000
  H   H66       1.0  0.16847479  0.77047418  0.22001201  1.0000
  H   H67       1.0  0.38248553  0.7368222000000001  0.3563960600000001  1.0000
  H   H68       1.0  0.48645639  0.74027564  0.33328586  1.0000
  H   H69       1.0  0.9817265500000001  0.8773701700000001  0.58042496  1.0000
  H   H70       1.0  0.09539065  0.62028424  0.44900009000000013  1.0000
  H   H71       1.0  0.74958982  0.8027994100000001  0.5638351400000001  1.0000
  H   H72       1.0  0.66034493  0.72791853  0.28412593  1.0000
  H   H73       1.0  0.87640105  0.77090596  0.14138766  1.0000
  H   H74       1.0  0.98012973  0.76436998  0.16748943000000005  1.0000
  H   H75       1.0  0.53846679  0.14760833  0.0950684  1.0000
  H   H76       1.0  0.40370468  0.37367437  0.9438578200000002  1.0000
  H   H77       1.0  0.79045539  0.35816115000000004  0.9744089300000002  1.0000
  H   H78       1.0  0.81344588  0.09054327  0.79703247  1.0000
  H   H79       1.0  0.60800057  0.22756521000000005  0.6327587600000002  1.0000
  H   H80       1.0  0.50712003  0.24281833000000003  0.6680854200000003  1.0000
  C   C1        1.0  0.08392477  0.5533662  0.76458536  1.0000
  C   C2        1.0  0.01454259  0.46653914000000013  0.87139916  1.0000
  C   C3        1.0  0.07750455  0.35803436  0.7362041100000002  1.0000
  C   C4        1.0  0.01458059  0.34928535000000005  0.65576706  1.0000
  C   C5        1.0  0.16090114  0.36159301000000005  0.6910253300000002  1.0000
  C   C6        1.0  0.40859349  0.45049694  0.26115243000000005  1.0000
  C   C7        1.0  0.47849097  0.53729785  0.36741104  1.0000
  C   C8        1.0  0.41791533  0.64578874  0.23117496000000007  1.0000
  C   C9        1.0  0.47928199  0.65051722  0.14869745000000006  1.0000
  C   C10       1.0  0.33404268  0.64663123  0.18744330000000006  1.0000
  C   C11       1.0  0.90188403  0.05531613000000001  0.23667482000000006  1.0000
  C   C12       1.0  0.9751260800000001  0.9706691200000002  0.1319205  1.0000
  C   C13       1.0  0.91194544  0.8615046300000002  0.26704612  1.0000
  C   C14       1.0  0.9730713399999998  0.85526444  0.3498509800000001  1.0000
  C   C15       1.0  0.82802887  0.8639279200000001  0.3107789800000001  1.0000
  C   C16       1.0  0.58184107  0.9480454200000001  0.73173316  1.0000
  C   C17       1.0  0.49643117999999997  0.03291273  0.64258043  1.0000
  C   C18       1.0  0.57687256  0.14243662000000004  0.76319679  1.0000
  C   C19       1.0  0.52265433  0.15492324000000002  0.8518011900000001  1.0000
  C   C20       1.0  0.66321221  0.13399922000000003  0.7974651600000001  1.0000
  C   C21       1.0  0.90228991  0.47450856000000013  0.23200864000000004  1.0000
  C   C22       1.0  0.94464454  0.56322784  0.10680287000000002  1.0000
  C   C23       1.0  0.90701974  0.66717458  0.2600466900000001  1.0000
  C   C24       1.0  0.9688668299999998  0.66164366  0.34207585  1.0000
  C   C25       1.0  0.82294372  0.6690715  0.30285526  1.0000
  C   C26       1.0  0.59136654  0.53048331  0.7227521900000001  1.0000
  C   C27       1.0  0.54717579  0.43906176000000013  0.6007194200000002  1.0000
  C   C28       1.0  0.59044174  0.33623728  0.7523848100000002  1.0000
  C   C29       1.0  0.53639819  0.34702822  0.8419318900000001  1.0000
  C   C30       1.0  0.67735062  0.32811692000000003  0.78489479  1.0000
  C   C31       1.0  0.08629507  0.9706902900000002  0.77507366  1.0000
  C   C32       1.0  0.0572828  0.06323191  0.9028031500000002  1.0000
  C   C33       1.0  0.08508377  0.16360002  0.74414377  1.0000
  C   C34       1.0  0.02192745  0.15629700000000005  0.6634669300000002  1.0000
  C   C35       1.0  0.16827535  0.16597761  0.6989122  1.0000
  C   C36       1.0  0.41919522  0.03356812  0.27011548  1.0000
  C   C37       1.0  0.45035877  0.94032784  0.39680102  1.0000
  C   C38       1.0  0.41723967  0.84049816  0.23925198  1.0000
  C   C39       1.0  0.47930221999999995  0.8435766  0.15741639  1.0000
  C   C40       1.0  0.33328271  0.8426637200000001  0.19637055000000006  1.0000
  C   C41       1.0  0.9648472200000001  0.30782356  0.4377091500000001  1.0000
  C   C42       1.0  0.90816063  0.17538413  0.50650731  1.0000
  C   C43       1.0  0.27740438  0.26034164  0.4937507000000001  1.0000
  C   C44       1.0  0.32665339  0.26208444  0.6399563  1.0000
  C   C45       1.0  0.02921542  0.25045695  0.59605173  1.0000
  C   C46       1.0  0.11313368  0.25385583  0.5514943  1.0000
  C   C47       1.0  0.17552349  0.26140903  0.63239049  1.0000
  C   C48       1.0  0.07214821  0.2630593  0.8039214200000002  1.0000
  C   C49       1.0  0.5307748  0.69050199  0.93112808  1.0000
  C   C50       1.0  0.59599516  0.81141893  0.00678651  1.0000
  C   C51       1.0  0.21698726  0.74007482  0.9953137100000002  1.0000
  C   C52       1.0  0.17131417  0.76123243  0.14180603000000006  1.0000
  C   C53       1.0  0.46762703  0.75062823  0.08963307000000002  1.0000
  C   C54       1.0  0.38302431  0.75276966  0.04705281  1.0000
  C   C55       1.0  0.32188595  0.7481288600000001  0.12986007000000002  1.0000
  C   C56       1.0  0.4276425  0.7404752100000003  0.2986819500000001  1.0000
  C   C57       1.0  0.02359624  0.81514234  0.5661025000000001  1.0000
  C   C58       1.0  0.08135311  0.68285668  0.4987510800000001  1.0000
  C   C59       1.0  0.71043693  0.7814792700000002  0.5048118  1.0000
  C   C60       1.0  0.66404118  0.7433753800000003  0.3613997100000001  1.0000
  C   C61       1.0  0.95957578  0.7555266600000002  0.4089246600000001  1.0000
  C   C62       1.0  0.87519245  0.75696939  0.4518605700000001  1.0000
  C   C63       1.0  0.81398018  0.7637952800000001  0.36949096  1.0000
  C   C64       1.0  0.92051744  0.7662298300000002  0.20019085000000006  1.0000
  C   C65       1.0  0.49116213  0.20009131000000005  0.07404555  1.0000
  C   C66       1.0  0.42203238  0.31625769  0.9967549100000002  1.0000
  C   C67       1.0  0.81502955  0.29299575  0.93479097  1.0000
  C   C68       1.0  0.82657893  0.15612334000000005  0.8434242600000003  1.0000
  C   C69       1.0  0.54610066  0.25280958  0.9086643300000002  1.0000
  C   C70       1.0  0.63328097  0.24527832000000002  0.9417207400000002  1.0000
  C   C71       1.0  0.68704621  0.23314523000000006  0.8518544600000001  1.0000
  C   C72       1.0  0.56826068  0.23732503  0.69558863  1.0000
  N   N1        1.0  0.05233306  0.62000532  0.82714926  1.0000
  N   N2        1.0  0.00836943  0.56532084  0.8945209900000002  1.0000
  N   N3        1.0  0.06246929  0.45441173  0.7911832900000001  1.0000
  N   N4        1.0  0.43979799  0.38396605000000006  0.32415097  1.0000
  N   N5        1.0  0.48397912000000004  0.43867825000000005  0.39114444  1.0000
  N   N6        1.0  0.43084864  0.54946911  0.28697615  1.0000
  N   N7        1.0  0.93410518  0.12284892  0.1745033  1.0000
  N   N8        1.0  0.9802496299999999  0.06937776000000001  0.10854037000000002  1.0000
  N   N9        1.0  0.92577998  0.9571526600000001  0.21079269000000006  1.0000
  N   N10       1.0  0.54260396  0.88048565  0.6769148800000002  1.0000
  N   N11       1.0  0.4886344000000001  0.9338283500000002  0.62067298  1.0000
  N   N12       1.0  0.5554041  0.04657428000000001  0.7108606000000001  1.0000
  N   N13       1.0  0.92245594  0.40847802000000005  0.16112487  1.0000
  N   N14       1.0  0.94894206  0.46479386  0.08221619000000001  1.0000
  N   N15       1.0  0.91503431  0.5741301800000002  0.19936446000000002  1.0000
  N   N16       1.0  0.56837289  0.59496491  0.6530711  1.0000
  N   N17       1.0  0.54089615  0.53731935  0.57564499  1.0000
  N   N18       1.0  0.5791873  0.43012294  0.6921919400000002  1.0000
  N   N19       1.0  0.07187336  0.90694784  0.8483548500000002  1.0000
  N   N20       1.0  0.05408444  0.96535783  0.9296050000000001  1.0000
  N   N21       1.0  0.07793739  0.07101808  0.80648498  1.0000
  N   N22       1.0  0.43438585  0.09699824  0.34364453  1.0000
  N   N23       1.0  0.45400621  0.03814299  0.42390891000000014  1.0000
  N   N24       1.0  0.4282315  0.9329685  0.30089545000000006  1.0000
  N   N25       1.0  0.90393685  0.28043707000000007  0.38277554000000014  1.0000
  N   N26       1.0  0.86800609  0.19640392  0.4263279100000001  1.0000
  N   N27       1.0  0.9707056799999999  0.2433697  0.5172633200000001  1.0000
  N   N28       1.0  0.35587365  0.2567055  0.48690924000000013  1.0000
  N   N29       1.0  0.38715379  0.2578166800000001  0.5787922  1.0000
  N   N30       1.0  0.25555804  0.26352896  0.5900519900000001  1.0000
  N   N31       1.0  0.59701382  0.70769636  0.8821324600000002  1.0000
  N   N32       1.0  0.63827297  0.78465932  0.9297442800000002  1.0000
  N   N33       1.0  0.52629749  0.7550964100000002  0.01071619  1.0000
  N   N34       1.0  0.13851582  0.74524696  0.9906178700000002  1.0000
  N   N35       1.0  0.10942310000000001  0.75838416  0.08280594  1.0000
  N   N36       1.0  0.24110144000000003  0.7511526900000001  0.09010899000000003  1.0000
  N   N37       1.0  0.08563655  0.79078439  0.620257  1.0000
  N   N38       1.0  0.12224322999999998  0.7066515500000002  0.57780498  1.0000
  N   N39       1.0  0.01761023  0.74891258  0.4881845400000001  1.0000
  N   N40       1.0  0.63233827  0.76952728  0.5118114500000001  1.0000
  N   N41       1.0  0.60296746  0.74611605  0.4216440600000001  1.0000
  N   N42       1.0  0.73380986  0.7634679800000002  0.4104436400000001  1.0000
  N   N43       1.0  0.4248124  0.21576108000000002  0.12354005  1.0000
  N   N44       1.0  0.38125659  0.28955267000000007  0.07499697  1.0000
  N   N45       1.0  0.49355913  0.26374  0.9932956100000002  1.0000
  N   N46       1.0  0.89101642  0.26776351  0.9321346400000001  1.0000
  N   N47       1.0  0.8981969  0.18107668000000005  0.87437818  1.0000
  N   N48       1.0  0.77081651  0.22371025  0.8808076400000002  1.0000
