data_image0
_chemical_formula_structural       Cd4H28C52N4O16
_chemical_formula_sum              "Cd4 H28 C52 N4 O16"
_cell_length_a       9.238
_cell_length_b       9.743
_cell_length_c       18.225
_cell_angle_alpha    90.0
_cell_angle_beta     90.0
_cell_angle_gamma    104.94

_symmetry_space_group_name_H-M    'P 1'
_symmetry_Int_Tables_number       1

loop_
  _symmetry_equiv_pos_as_xyz
  'x,y,z'

loop_
  _atom_site_type_symbol
  _atom_site_label
  _atom_site_symmetry_multiplicity
  _atom_site_fract_x
  _atom_site_fract_y
  _atom_site_fract_z
  _atom_site_occupancy
  Cd  Cd1       1.0  0.13315  0.43812  0.93392  1.0000
  Cd  Cd2       1.0  0.8668499999999999  0.06187999999999999  0.4339200000000001  1.0000
  Cd  Cd3       1.0  0.8668499999999999  0.56188  0.06608  1.0000
  Cd  Cd4       1.0  0.13315  0.93812  0.56608  1.0000
  H   H1        1.0  0.6328  0.8595  0.6667  1.0000
  H   H2        1.0  0.9775  0.2022  0.6898  1.0000
  H   H3        1.0  0.749  0.0226  0.8671  1.0000
  H   H4        1.0  0.2163  0.607  0.7828  1.0000
  H   H5        1.0  0.3959  0.7814999999999999  0.7259000000000001  1.0000
  H   H6        1.0  0.6657  0.7765  0.8975  1.0000
  H   H7        1.0  0.4755  0.606  0.9511  1.0000
  H   H8        1.0  0.3672  0.6405  0.16670000000000001  1.0000
  H   H9        1.0  0.022499999999999992  0.2978  0.1898  1.0000
  H   H10       1.0  0.251  0.4774  0.3671  1.0000
  H   H11       1.0  0.7836999999999998  0.893  0.2828  1.0000
  H   H12       1.0  0.6041000000000001  0.7185  0.2259  1.0000
  H   H13       1.0  0.3343  0.7234999999999999  0.3975  1.0000
  H   H14       1.0  0.5245  0.8939999999999999  0.4511  1.0000
  H   H15       1.0  0.3672  0.1405  0.3333  1.0000
  H   H16       1.0  0.022500000000000037  0.7978  0.3102  1.0000
  H   H17       1.0  0.251  0.9774  0.1329  1.0000
  H   H18       1.0  0.7837  0.393  0.21720000000000006  1.0000
  H   H19       1.0  0.6041000000000002  0.21849999999999997  0.2741  1.0000
  H   H20       1.0  0.3343  0.22349999999999998  0.1025  1.0000
  H   H21       1.0  0.5245  0.394  0.0489  1.0000
  H   H22       1.0  0.6328  0.3595  0.8333000000000002  1.0000
  H   H23       1.0  0.9775  0.7022  0.8102000000000001  1.0000
  H   H24       1.0  0.749  0.5226  0.6329000000000001  1.0000
  H   H25       1.0  0.21630000000000002  0.10699999999999998  0.7172000000000002  1.0000
  H   H26       1.0  0.3959  0.2815  0.7741  1.0000
  H   H27       1.0  0.6656999999999998  0.27649999999999997  0.6025  1.0000
  H   H28       1.0  0.4755  0.106  0.5489  1.0000
  C   C1        1.0  0.672  0.9194999999999999  0.7727  1.0000
  C   C2        1.0  0.6953  0.9259999999999999  0.6970000000000001  1.0000
  C   C3        1.0  0.8103  0.030299999999999997  0.6666  1.0000
  C   C4        1.0  0.9  0.1327  0.7105  1.0000
  C   C5        1.0  0.8754  0.1327  0.7856  1.0000
  C   C6        1.0  0.7634  0.0248  0.8166  1.0000
  C   C7        1.0  0.3071  0.6432  0.8066  1.0000
  C   C8        1.0  0.415  0.7480999999999999  0.7718  1.0000
  C   C9        1.0  0.5529  0.8034  0.8063  1.0000
  C   C10       1.0  0.5742  0.7457  0.8735  1.0000
  C   C11       1.0  0.4594  0.6418  0.9053  1.0000
  C   C12       1.0  0.8372  0.0315  0.5844  1.0000
  C   C13       1.0  0.9719  0.2487  0.8342  1.0000
  C   C14       1.0  0.328  0.5805  0.2727  1.0000
  C   C15       1.0  0.3047  0.574  0.197  1.0000
  C   C16       1.0  0.18969999999999998  0.46969999999999995  0.16660000000000003  1.0000
  C   C17       1.0  0.1  0.3673  0.21050000000000005  1.0000
  C   C18       1.0  0.12460000000000002  0.3673  0.2856  1.0000
  C   C19       1.0  0.2366  0.47519999999999996  0.3166  1.0000
  C   C20       1.0  0.6929000000000001  0.8568  0.3066  1.0000
  C   C21       1.0  0.585  0.7519  0.2718  1.0000
  C   C22       1.0  0.44710000000000005  0.6965999999999999  0.30630000000000007  1.0000
  C   C23       1.0  0.4258  0.7543  0.3735  1.0000
  C   C24       1.0  0.5405999999999999  0.8581999999999999  0.40530000000000005  1.0000
  C   C25       1.0  0.16280000000000003  0.4685000000000001  0.0844  1.0000
  C   C26       1.0  0.0281  0.2513  0.3342000000000001  1.0000
  C   C27       1.0  0.328  0.08049999999999999  0.2273  1.0000
  C   C28       1.0  0.3047  0.074  0.303  1.0000
  C   C29       1.0  0.18969999999999998  0.9697  0.33340000000000003  1.0000
  C   C30       1.0  0.1  0.8673  0.2895  1.0000
  C   C31       1.0  0.12460000000000002  0.8673  0.2144  1.0000
  C   C32       1.0  0.2366  0.9751999999999998  0.1834  1.0000
  C   C33       1.0  0.6929  0.3568  0.1934  1.0000
  C   C34       1.0  0.585  0.2519  0.2282  1.0000
  C   C35       1.0  0.44710000000000005  0.1966  0.1937  1.0000
  C   C36       1.0  0.4258  0.2543  0.12650000000000003  1.0000
  C   C37       1.0  0.5406  0.3582  0.0947  1.0000
  C   C38       1.0  0.1628  0.9684999999999999  0.41560000000000014  1.0000
  C   C39       1.0  0.028099999999999983  0.7513  0.1658  1.0000
  C   C40       1.0  0.672  0.4195  0.7273  1.0000
  C   C41       1.0  0.6952999999999999  0.42599999999999993  0.803  1.0000
  C   C42       1.0  0.8103  0.5303  0.8334  1.0000
  C   C43       1.0  0.9  0.6326999999999999  0.7895000000000002  1.0000
  C   C44       1.0  0.8754  0.6326999999999999  0.7144  1.0000
  C   C45       1.0  0.7634  0.5248  0.6834  1.0000
  C   C46       1.0  0.3071  0.1432  0.6934  1.0000
  C   C47       1.0  0.415  0.2481  0.7282  1.0000
  C   C48       1.0  0.5529  0.3034  0.6937  1.0000
  C   C49       1.0  0.5742  0.2457  0.6265  1.0000
  C   C50       1.0  0.4594  0.14179999999999998  0.5947  1.0000
  C   C51       1.0  0.8371999999999999  0.5314999999999999  0.9156000000000001  1.0000
  C   C52       1.0  0.9719  0.7487  0.6658  1.0000
  N   N1        1.0  0.3266  0.5912  0.8727  1.0000
  N   N2        1.0  0.6734000000000001  0.9088  0.3727  1.0000
  N   N3        1.0  0.6734000000000001  0.4088  0.1273  1.0000
  N   N4        1.0  0.3266  0.09119999999999999  0.6273  1.0000
  O   O1        1.0  0.9681  0.0915  0.56146  1.0000
  O   O2        1.0  0.7316  0.9759999999999999  0.543  1.0000
  O   O3        1.0  0.07730000000000001  0.3384  0.8058  1.0000
  O   O4        1.0  0.9381999999999999  0.2489  0.9007  1.0000
  O   O5        1.0  0.0319  0.4085  0.06146000000000001  1.0000
  O   O6        1.0  0.2684  0.524  0.043  1.0000
  O   O7        1.0  0.9227  0.1616  0.3058  1.0000
  O   O8        1.0  0.0618  0.2511  0.4007  1.0000
  O   O9        1.0  0.03190000000000003  0.9085  0.43854  1.0000
  O   O10       1.0  0.2684  0.023999999999999997  0.45699999999999996  1.0000
  O   O11       1.0  0.9227  0.6615999999999999  0.1942  1.0000
  O   O12       1.0  0.0618  0.7511  0.0993  1.0000
  O   O13       1.0  0.9681  0.5915  0.93854  1.0000
  O   O14       1.0  0.7316000000000001  0.4759999999999999  0.957  1.0000
  O   O15       1.0  0.07730000000000004  0.8384  0.6942  1.0000
  O   O16       1.0  0.9381999999999999  0.7489  0.5993  1.0000
