data_image0
_chemical_formula_structural       Eu4H8C20O24
_chemical_formula_sum              "Eu4 H8 C20 O24"
_cell_length_a       9.1176
_cell_length_b       9.1176
_cell_length_c       14.5424
_cell_angle_alpha    79.7865
_cell_angle_beta     79.7864
_cell_angle_gamma    115.745

_symmetry_space_group_name_H-M    'P 1'
_symmetry_Int_Tables_number       1

loop_
  _symmetry_equiv_pos_as_xyz
  'x,y,z'

loop_
  _atom_site_type_symbol
  _atom_site_label
  _atom_site_symmetry_multiplicity
  _atom_site_fract_x
  _atom_site_fract_y
  _atom_site_fract_z
  _atom_site_occupancy
  Eu  Eu1       1.0  0.99051  0.24051000000000003  0.018979999999999993  1.0000
  Eu  Eu2       1.0  0.7594899999999997  0.00949000000000001  0.48102  1.0000
  Eu  Eu3       1.0  0.009490000000000083  0.7594900000000001  0.9810199999999999  1.0000
  Eu  Eu4       1.0  0.24050999999999995  0.9905099999999999  0.51898  1.0000
  H   H1        1.0  0.6141999999999999  0.18980000000000005  0.9333999999999998  1.0000
  H   H2        1.0  0.45240000000000014  0.37680000000000013  0.9333999999999998  1.0000
  H   H3        1.0  0.8101999999999998  0.3858  0.5666  1.0000
  H   H4        1.0  0.6232  0.5476  0.5666  1.0000
  H   H5        1.0  0.3858  0.8102  0.06659999999999999  1.0000
  H   H6        1.0  0.5476  0.6232  0.06659999999999999  1.0000
  H   H7        1.0  0.18979999999999997  0.6142  0.4334  1.0000
  H   H8        1.0  0.37679999999999997  0.4524  0.4334  1.0000
  C   C1        1.0  0.7540300000000001  0.43563000000000013  0.9415399999999998  1.0000
  C   C2        1.0  0.6034000000000002  0.2858  0.9365999999999999  1.0000
  C   C3        1.0  0.30443000000000003  0.12283000000000009  0.9415399999999998  1.0000
  C   C4        1.0  0.46  0.2776  0.9365999999999999  1.0000
  C   C5        1.0  0.56437  0.24596999999999994  0.55846  1.0000
  C   C6        1.0  0.7142000000000001  0.3966  0.5634  1.0000
  C   C7        1.0  0.8771700000000001  0.69557  0.55846  1.0000
  C   C8        1.0  0.7224000000000002  0.54  0.5634  1.0000
  C   C9        1.0  0.24597  0.56437  0.058459999999999984  1.0000
  C   C10       1.0  0.3966  0.7142  0.0634  1.0000
  C   C11       1.0  0.6955699999999999  0.87717  0.058459999999999984  1.0000
  C   C12       1.0  0.54  0.7224  0.0634  1.0000
  C   C13       1.0  0.43562999999999996  0.7540299999999999  0.44154  1.0000
  C   C14       1.0  0.2858  0.6034  0.4366  1.0000
  C   C15       1.0  0.12282999999999997  0.3044299999999999  0.44154  1.0000
  C   C16       1.0  0.27759999999999996  0.46  0.4366  1.0000
  C   C17       1.0  0.9246  0.07540000000000001  0.25  1.0000
  C   C18       1.0  0.8254  0.17459999999999998  0.25  1.0000
  C   C19       1.0  0.07540000000000001  0.9246  0.7499999999999999  1.0000
  C   C20       1.0  0.17460000000000012  0.8254  0.7499999999999999  1.0000
  O   O1        1.0  0.8659499999999999  0.40874999999999995  0.9671  1.0000
  O   O2        1.0  0.7676700000000001  0.5816700000000001  0.9242599999999997  1.0000
  O   O3        1.0  0.9911999999999999  0.06879999999999999  0.1692  1.0000
  O   O4        1.0  0.16695  0.12415  0.9671  1.0000
  O   O5        1.0  0.30807000000000007  0.9940700000000001  0.9242599999999997  1.0000
  O   O6        1.0  0.8396  0.262  0.1692  1.0000
  O   O7        1.0  0.59125  0.13405000000000003  0.5329  1.0000
  O   O8        1.0  0.41833000000000004  0.23233  0.5757399999999999  1.0000
  O   O9        1.0  0.9311999999999999  0.008800000000000004  0.3308  1.0000
  O   O10       1.0  0.87585  0.8330499999999998  0.5329  1.0000
  O   O11       1.0  0.0059300000000000125  0.69193  0.5757399999999999  1.0000
  O   O12       1.0  0.738  0.1604  0.3308  1.0000
  O   O13       1.0  0.13405000000000006  0.59125  0.0329  1.0000
  O   O14       1.0  0.23233  0.41833  0.07573999999999997  1.0000
  O   O15       1.0  0.008800000000000233  0.9312000000000002  0.8307999999999998  1.0000
  O   O16       1.0  0.83305  0.87585  0.0329  1.0000
  O   O17       1.0  0.69193  0.005930000000000017  0.07573999999999997  1.0000
  O   O18       1.0  0.16040000000000018  0.7380000000000002  0.8307999999999998  1.0000
  O   O19       1.0  0.40875  0.86595  0.4671  1.0000
  O   O20       1.0  0.58167  0.76767  0.42425999999999997  1.0000
  O   O21       1.0  0.06880000000000014  0.9912000000000003  0.6692  1.0000
  O   O22       1.0  0.12415  0.16695  0.4671  1.0000
  O   O23       1.0  0.9940699999999998  0.30806999999999995  0.42425999999999997  1.0000
  O   O24       1.0  0.262  0.8396  0.6692  1.0000
