data_image0
_chemical_formula_structural       Mg6H24C48O24
_chemical_formula_sum              "Mg6 H24 C48 O24"
_cell_length_a       9.821
_cell_length_b       15.076
_cell_length_c       16.555
_cell_angle_alpha    111.21
_cell_angle_beta     90.0
_cell_angle_gamma    90.0

_symmetry_space_group_name_H-M    'P 1'
_symmetry_Int_Tables_number       1

loop_
  _symmetry_equiv_pos_as_xyz
  'x,y,z'

loop_
  _atom_site_type_symbol
  _atom_site_label
  _atom_site_symmetry_multiplicity
  _atom_site_fract_x
  _atom_site_fract_y
  _atom_site_fract_z
  _atom_site_occupancy
  Mg  Mg1       1.0  0.08092  0.34513  0.11278  1.0000
  Mg  Mg2       1.0  0.58092  0.15487  0.38722  1.0000
  Mg  Mg3       1.0  0.9190800000000002  0.65487  0.88722  1.0000
  Mg  Mg4       1.0  0.41908  0.84513  0.61278  1.0000
  Mg  Mg5       1.0  0.0  0.5  0.0  1.0000
  Mg  Mg6       1.0  0.5  0.0  0.5  1.0000
  H   H1        1.0  0.7349  0.3263999999999999  0.8501999999999997  1.0000
  H   H2        1.0  0.6212000000000001  0.217  0.7316  1.0000
  H   H3        1.0  0.688  0.012299999999999905  0.8296999999999998  1.0000
  H   H4        1.0  0.8084000000000001  0.1212999999999999  0.9452999999999998  1.0000
  H   H5        1.0  0.5048  0.5106  0.1443  1.0000
  H   H6        1.0  0.3065  0.4390999999999998  0.9137999999999998  1.0000
  H   H7        1.0  0.2349  0.1736  0.6498  1.0000
  H   H8        1.0  0.12120000000000002  0.283  0.7684  1.0000
  H   H9        1.0  0.188  0.4877  0.6703  1.0000
  H   H10       1.0  0.3084  0.3786999999999999  0.5547  1.0000
  H   H11       1.0  0.0048000000000000004  0.9894  0.3557  1.0000
  H   H12       1.0  0.8065  0.0609  0.5862  1.0000
  H   H13       1.0  0.26510000000000006  0.6736  0.1498  1.0000
  H   H14       1.0  0.3788000000000001  0.783  0.2684  1.0000
  H   H15       1.0  0.312  0.9877  0.1703  1.0000
  H   H16       1.0  0.1916  0.8787  0.0547  1.0000
  H   H17       1.0  0.4952000000000001  0.4894  0.8557  1.0000
  H   H18       1.0  0.6935  0.5609  0.08619999999999997  1.0000
  H   H19       1.0  0.7651000000000001  0.8264  0.3502  1.0000
  H   H20       1.0  0.8788000000000001  0.717  0.2316  1.0000
  H   H21       1.0  0.8120000000000003  0.5123  0.3297  1.0000
  H   H22       1.0  0.6916  0.6213  0.4453  1.0000
  H   H23       1.0  0.9952  0.01060000000000002  0.6443  1.0000
  H   H24       1.0  0.19350000000000006  0.9391000000000002  0.4138  1.0000
  C   C1        1.0  0.8661  0.3059  0.9807  1.0000
  C   C2        1.0  0.7833  0.23379999999999995  0.9082  1.0000
  C   C3        1.0  0.7268000000000001  0.26199999999999996  0.8457999999999999  1.0000
  C   C4        1.0  0.6572000000000001  0.19689999999999988  0.7753999999999998  1.0000
  C   C5        1.0  0.6407  0.10380000000000005  0.7692  1.0000
  C   C6        1.0  0.6976000000000002  0.07629999999999995  0.833  1.0000
  C   C7        1.0  0.7693000000000002  0.14140000000000005  0.9023  1.0000
  C   C8        1.0  0.567  0.03340000000000006  0.6909  1.0000
  C   C9        1.0  0.26400000000000007  0.4393  0.0738  1.0000
  C   C10       1.0  0.38600000000000007  0.4723  0.0365  1.0000
  C   C11       1.0  0.5025  0.5068  0.0858  1.0000
  C   C12       1.0  0.3842  0.46409999999999996  0.9487999999999998  1.0000
  C   C13       1.0  0.3661  0.1941  0.5193  1.0000
  C   C14       1.0  0.2833  0.26619999999999994  0.5917999999999998  1.0000
  C   C15       1.0  0.22680000000000003  0.238  0.6542  1.0000
  C   C16       1.0  0.1572  0.3031  0.7246  1.0000
  C   C17       1.0  0.1407  0.3962  0.7308  1.0000
  C   C18       1.0  0.1976  0.4237  0.667  1.0000
  C   C19       1.0  0.2693  0.3586  0.5977  1.0000
  C   C20       1.0  0.067  0.4666  0.8091  1.0000
  C   C21       1.0  0.764  0.060700000000000025  0.4262  1.0000
  C   C22       1.0  0.8860000000000001  0.027700000000000006  0.4635  1.0000
  C   C23       1.0  0.002500000000000001  0.9932  0.4142  1.0000
  C   C24       1.0  0.8842  0.0359  0.5512  1.0000
  C   C25       1.0  0.1339  0.6941  0.0193  1.0000
  C   C26       1.0  0.2167  0.7662  0.0918  1.0000
  C   C27       1.0  0.2732  0.738  0.1542  1.0000
  C   C28       1.0  0.3428000000000001  0.8031  0.2246  1.0000
  C   C29       1.0  0.3593  0.8961999999999999  0.23079999999999995  1.0000
  C   C30       1.0  0.3024  0.9237  0.167  1.0000
  C   C31       1.0  0.2307  0.8586  0.0977  1.0000
  C   C32       1.0  0.433  0.9666  0.3090999999999999  1.0000
  C   C33       1.0  0.7360000000000002  0.5607  0.9262  1.0000
  C   C34       1.0  0.6140000000000001  0.5277  0.9635  1.0000
  C   C35       1.0  0.4975  0.4932  0.9142  1.0000
  C   C36       1.0  0.6158  0.5359  0.0512  1.0000
  C   C37       1.0  0.6339  0.8059  0.4806999999999999  1.0000
  C   C38       1.0  0.7167000000000002  0.7338  0.4082  1.0000
  C   C39       1.0  0.7732  0.7619999999999999  0.3458  1.0000
  C   C40       1.0  0.8428  0.6969  0.2754  1.0000
  C   C41       1.0  0.8593000000000001  0.6038  0.2692  1.0000
  C   C42       1.0  0.8024  0.5763  0.333  1.0000
  C   C43       1.0  0.7307  0.6414  0.4023  1.0000
  C   C44       1.0  0.933  0.5334  0.1909  1.0000
  C   C45       1.0  0.236  0.9393  0.5738  1.0000
  C   C46       1.0  0.114  0.9723  0.5365  1.0000
  C   C47       1.0  0.9975000000000002  0.006799999999999975  0.5858  1.0000
  C   C48       1.0  0.1158  0.9641  0.4488  1.0000
  O   O1        1.0  0.9268  0.2749  0.03316  1.0000
  O   O2        1.0  0.87  0.3883299999999999  0.9819799999999997  1.0000
  O   O3        1.0  0.5487  0.06071000000000002  0.6282  1.0000
  O   O4        1.0  0.5327000000000001  0.95466  0.69461  1.0000
  O   O5        1.0  0.2755  0.4238  0.14383  1.0000
  O   O6        1.0  0.1539  0.41998  0.03166  1.0000
  O   O7        1.0  0.4268000000000001  0.22509999999999994  0.46683999999999987  1.0000
  O   O8        1.0  0.37  0.11167000000000003  0.51802  1.0000
  O   O9        1.0  0.04870000000000001  0.43929  0.8718  1.0000
  O   O10       1.0  0.03270000000000001  0.54534  0.80539  1.0000
  O   O11       1.0  0.7755  0.07619999999999995  0.35617  1.0000
  O   O12       1.0  0.6539  0.08002000000000002  0.46834  1.0000
  O   O13       1.0  0.0732  0.7251  0.96684  1.0000
  O   O14       1.0  0.13  0.6116699999999999  0.01802  1.0000
  O   O15       1.0  0.4513  0.93929  0.3718  1.0000
  O   O16       1.0  0.46730000000000005  0.04533999999999999  0.30539  1.0000
  O   O17       1.0  0.7245  0.5762  0.85617  1.0000
  O   O18       1.0  0.8461  0.58002  0.96834  1.0000
  O   O19       1.0  0.5732000000000002  0.7749  0.53316  1.0000
  O   O20       1.0  0.63  0.88833  0.48198  1.0000
  O   O21       1.0  0.9513000000000001  0.56071  0.1282  1.0000
  O   O22       1.0  0.9673  0.45465999999999995  0.19460999999999995  1.0000
  O   O23       1.0  0.2245  0.9237999999999998  0.6438299999999998  1.0000
  O   O24       1.0  0.3461  0.91998  0.53166  1.0000
