data_image0
_chemical_formula_structural       Mg6H48C84O24
_chemical_formula_sum              "Mg6 H48 C84 O24"
_cell_length_a       12.1948
_cell_length_b       13.7835
_cell_length_c       18.384
_cell_angle_alpha    90.0
_cell_angle_beta     90.0
_cell_angle_gamma    113.95999999999998

_symmetry_space_group_name_H-M    'P 1'
_symmetry_Int_Tables_number       1

loop_
  _symmetry_equiv_pos_as_xyz
  'x,y,z'

loop_
  _atom_site_type_symbol
  _atom_site_label
  _atom_site_symmetry_multiplicity
  _atom_site_fract_x
  _atom_site_fract_y
  _atom_site_fract_z
  _atom_site_occupancy
  Mg  Mg1       1.0  0.68007  0.91583  0.52072  1.0000
  Mg  Mg2       1.0  0.8199300000000002  0.08417  0.02072  1.0000
  Mg  Mg3       1.0  0.31993  0.08417  0.47928  1.0000
  Mg  Mg4       1.0  0.18007000000000006  0.91583  0.97928  1.0000
  Mg  Mg5       1.0  0.0  0.0  0.5  1.0000
  Mg  Mg6       1.0  0.5  0.0  0.0  1.0000
  H   H1        1.0  0.6588  0.7098  0.6985  1.0000
  H   H2        1.0  0.6381  0.5652  0.7719  1.0000
  H   H3        1.0  0.9485  0.5688  0.6905  1.0000
  H   H4        1.0  0.9733  0.7185  0.6213  1.0000
  H   H5        1.0  0.588  0.3761  0.7578  1.0000
  H   H6        1.0  0.5538  0.2205  0.822  1.0000
  H   H7        1.0  0.906  0.333  0.8743  1.0000
  H   H8        1.0  0.9419  0.4873  0.8081  1.0000
  H   H9        1.0  0.0006000000000000249  0.22670000000000004  0.5542  1.0000
  H   H10       1.0  0.08889999999999997  0.4111  0.5632  1.0000
  H   H11       1.0  0.8412000000000002  0.43  0.4242  1.0000
  H   H12       1.0  0.7484  0.2454  0.4188  1.0000
  H   H13       1.0  0.8412000000000002  0.2902  0.1985  1.0000
  H   H14       1.0  0.8619  0.4348  0.2719  1.0000
  H   H15       1.0  0.5515  0.4312  0.1905  1.0000
  H   H16       1.0  0.5267  0.2815  0.12130000000000002  1.0000
  H   H17       1.0  0.912  0.6239  0.2578  1.0000
  H   H18       1.0  0.9462  0.7795  0.322  1.0000
  H   H19       1.0  0.594  0.667  0.3743  1.0000
  H   H20       1.0  0.5581  0.5127  0.3081  1.0000
  H   H21       1.0  0.49940000000000007  0.7733  0.0542  1.0000
  H   H22       1.0  0.4111  0.5889  0.0632  1.0000
  H   H23       1.0  0.6588  0.57  0.9242000000000001  1.0000
  H   H24       1.0  0.7516  0.7546  0.9187999999999998  1.0000
  H   H25       1.0  0.3412  0.2902  0.3015  1.0000
  H   H26       1.0  0.3619  0.4348  0.2281  1.0000
  H   H27       1.0  0.051500000000000004  0.4312  0.3095  1.0000
  H   H28       1.0  0.026699999999999995  0.2815  0.3787  1.0000
  H   H29       1.0  0.41200000000000003  0.6239  0.24220000000000003  1.0000
  H   H30       1.0  0.4462  0.7795  0.178  1.0000
  H   H31       1.0  0.094  0.667  0.1257  1.0000
  H   H32       1.0  0.0581  0.5127  0.1919  1.0000
  H   H33       1.0  0.9994  0.7733  0.44580000000000003  1.0000
  H   H34       1.0  0.9111  0.5889  0.4368000000000001  1.0000
  H   H35       1.0  0.1588  0.57  0.5758  1.0000
  H   H36       1.0  0.2516  0.7546  0.5812  1.0000
  H   H37       1.0  0.15880000000000005  0.7098  0.8015  1.0000
  H   H38       1.0  0.1381  0.5652  0.7281  1.0000
  H   H39       1.0  0.4485  0.5688  0.8095  1.0000
  H   H40       1.0  0.47330000000000005  0.7185  0.8787  1.0000
  H   H41       1.0  0.08800000000000002  0.3761  0.7422  1.0000
  H   H42       1.0  0.05380000000000001  0.2205  0.678  1.0000
  H   H43       1.0  0.40600000000000014  0.333  0.6257  1.0000
  H   H44       1.0  0.44190000000000007  0.4873  0.6919  1.0000
  H   H45       1.0  0.5006000000000002  0.22670000000000004  0.9457999999999999  1.0000
  H   H46       1.0  0.5889  0.4111  0.9368  1.0000
  H   H47       1.0  0.3412  0.43  0.0758  1.0000
  H   H48       1.0  0.2484  0.2454  0.0812  1.0000
  C   C1        1.0  0.82699  0.81854  0.60149  1.0000
  C   C2        1.0  0.81701  0.72754  0.65119  1.0000
  C   C3        1.0  0.7179700000000001  0.68153  0.69681  1.0000
  C   C4        1.0  0.7049700000000001  0.59437  0.74005  1.0000
  C   C5        1.0  0.7889500000000002  0.5493  0.73714  1.0000
  C   C6        1.0  0.8893000000000001  0.59712  0.69241  1.0000
  C   C7        1.0  0.90366  0.68604  0.65052  1.0000
  C   C8        1.0  0.76851  0.44997  0.77771  1.0000
  C   C9        1.0  0.65292  0.36814  0.78171  1.0000
  C   C10       1.0  0.63235  0.27534  0.82035  1.0000
  C   C11       1.0  0.72563  0.26213  0.85648  1.0000
  C   C12       1.0  0.84112  0.3418  0.85101  1.0000
  C   C13       1.0  0.86242  0.43426  0.81177  1.0000
  C   C14       1.0  0.7019600000000001  0.16665000000000002  0.90495  1.0000
  C   C15       1.0  0.80335  0.09949000000000001  0.48659  1.0000
  C   C16       1.0  0.86487  0.21764  0.4866599999999999  1.0000
  C   C17       1.0  0.96668  0.26779  0.52872  1.0000
  C   C18       1.0  0.019509999999999996  0.37797  0.53384  1.0000
  C   C19       1.0  0.9724800000000001  0.44105  0.49652  1.0000
  C   C20       1.0  0.8724900000000001  0.3891  0.45217000000000007  1.0000
  C   C21       1.0  0.81788  0.27893  0.44802  1.0000
  C   C22       1.0  0.67301  0.18146000000000004  0.10149  1.0000
  C   C23       1.0  0.6829900000000001  0.27246  0.15119  1.0000
  C   C24       1.0  0.78203  0.31847  0.19681  1.0000
  C   C25       1.0  0.79503  0.40563  0.24005  1.0000
  C   C26       1.0  0.71105  0.4507000000000001  0.23714000000000002  1.0000
  C   C27       1.0  0.6107  0.40288  0.19241  1.0000
  C   C28       1.0  0.5963400000000002  0.31396  0.15052  1.0000
  C   C29       1.0  0.73149  0.55003  0.27771  1.0000
  C   C30       1.0  0.84708  0.63186  0.28171  1.0000
  C   C31       1.0  0.86765  0.7246600000000001  0.32035  1.0000
  C   C32       1.0  0.7743700000000001  0.73787  0.35648  1.0000
  C   C33       1.0  0.6588800000000001  0.6582  0.35101  1.0000
  C   C34       1.0  0.6375800000000003  0.56574  0.31177  1.0000
  C   C35       1.0  0.79804  0.83335  0.40495  1.0000
  C   C36       1.0  0.6966500000000001  0.90051  0.98659  1.0000
  C   C37       1.0  0.6351300000000001  0.7823600000000002  0.98666  1.0000
  C   C38       1.0  0.53332  0.73221  0.02872  1.0000
  C   C39       1.0  0.48049000000000003  0.62203  0.03384  1.0000
  C   C40       1.0  0.52752  0.55895  0.9965199999999999  1.0000
  C   C41       1.0  0.6275100000000001  0.6109  0.9521699999999998  1.0000
  C   C42       1.0  0.68212  0.72107  0.9480199999999999  1.0000
  C   C43       1.0  0.17301000000000005  0.18146000000000004  0.39851  1.0000
  C   C44       1.0  0.18299  0.27246  0.34881  1.0000
  C   C45       1.0  0.28203  0.31847  0.30319  1.0000
  C   C46       1.0  0.29503  0.40563  0.25995  1.0000
  C   C47       1.0  0.21105000000000002  0.4507000000000001  0.26286  1.0000
  C   C48       1.0  0.11070000000000003  0.40288  0.30759  1.0000
  C   C49       1.0  0.09634  0.31396  0.34948  1.0000
  C   C50       1.0  0.23149000000000006  0.55003  0.22229  1.0000
  C   C51       1.0  0.34708  0.63186  0.21829  1.0000
  C   C52       1.0  0.36765000000000003  0.7246600000000001  0.17965  1.0000
  C   C53       1.0  0.27437  0.73787  0.14352  1.0000
  C   C54       1.0  0.15888000000000005  0.6582  0.14899  1.0000
  C   C55       1.0  0.13758000000000006  0.56574  0.18823  1.0000
  C   C56       1.0  0.29804  0.83335  0.09505  1.0000
  C   C57       1.0  0.19665  0.90051  0.51341  1.0000
  C   C58       1.0  0.13513000000000006  0.7823600000000002  0.51334  1.0000
  C   C59       1.0  0.03332000000000001  0.73221  0.4712799999999999  1.0000
  C   C60       1.0  0.9804900000000002  0.62203  0.46616  1.0000
  C   C61       1.0  0.027520000000000024  0.55895  0.50348  1.0000
  C   C62       1.0  0.12751  0.6109  0.54783  1.0000
  C   C63       1.0  0.1821200000000001  0.72107  0.55198  1.0000
  C   C64       1.0  0.3269900000000001  0.81854  0.8985100000000001  1.0000
  C   C65       1.0  0.31701  0.72754  0.84881  1.0000
  C   C66       1.0  0.21797  0.68153  0.80319  1.0000
  C   C67       1.0  0.20497000000000004  0.59437  0.75995  1.0000
  C   C68       1.0  0.28895  0.5493  0.76286  1.0000
  C   C69       1.0  0.3893  0.59712  0.80759  1.0000
  C   C70       1.0  0.40366  0.68604  0.84948  1.0000
  C   C71       1.0  0.26851  0.44997  0.72229  1.0000
  C   C72       1.0  0.15292  0.36814  0.71829  1.0000
  C   C73       1.0  0.13235  0.27534  0.67965  1.0000
  C   C74       1.0  0.22563000000000002  0.26213  0.64352  1.0000
  C   C75       1.0  0.3411200000000001  0.3418  0.64899  1.0000
  C   C76       1.0  0.3624200000000001  0.43426  0.68823  1.0000
  C   C77       1.0  0.20196000000000003  0.16665000000000002  0.59505  1.0000
  C   C78       1.0  0.30335  0.09949000000000001  0.01341  1.0000
  C   C79       1.0  0.3648700000000001  0.21764  0.01334  1.0000
  C   C80       1.0  0.46668  0.26779  0.9712800000000001  1.0000
  C   C81       1.0  0.51951  0.37797  0.96616  1.0000
  C   C82       1.0  0.47248  0.44105  0.00348  1.0000
  C   C83       1.0  0.37249  0.3891  0.04783  1.0000
  C   C84       1.0  0.31788  0.27893  0.05198  1.0000
  O   O1        1.0  0.92845  0.87694  0.57684  1.0000
  O   O2        1.0  0.7296  0.82622  0.58845  1.0000
  O   O3        1.0  0.59418  0.10621  0.91731  1.0000
  O   O4        1.0  0.79311  0.15751  0.93  1.0000
  O   O5        1.0  0.69754  0.05575  0.46414  1.0000
  O   O6        1.0  0.8562900000000001  0.045  0.51447  1.0000
  O   O7        1.0  0.57155  0.12306  0.07684  1.0000
  O   O8        1.0  0.7704  0.17378  0.08845  1.0000
  O   O9        1.0  0.9058200000000001  0.89379  0.41731  1.0000
  O   O10       1.0  0.70689  0.8424900000000001  0.43  1.0000
  O   O11       1.0  0.8024600000000001  0.94425  0.9641400000000001  1.0000
  O   O12       1.0  0.6437100000000001  0.955  0.01447  1.0000
  O   O13       1.0  0.07155  0.12306  0.42316  1.0000
  O   O14       1.0  0.2704  0.17378  0.41155  1.0000
  O   O15       1.0  0.40582  0.89379  0.08269  1.0000
  O   O16       1.0  0.20689000000000002  0.8424900000000001  0.07  1.0000
  O   O17       1.0  0.30245999999999995  0.94425  0.53586  1.0000
  O   O18       1.0  0.1437100000000001  0.955  0.48553  1.0000
  O   O19       1.0  0.42845  0.87694  0.92316  1.0000
  O   O20       1.0  0.22960000000000003  0.82622  0.9115499999999999  1.0000
  O   O21       1.0  0.09418  0.10621  0.58269  1.0000
  O   O22       1.0  0.29311  0.15751  0.57  1.0000
  O   O23       1.0  0.19754000000000002  0.05575  0.03586  1.0000
  O   O24       1.0  0.35629  0.045  0.9855299999999999  1.0000
