data_image0
_chemical_formula_structural       Co5H38C48N6O14
_chemical_formula_sum              "Co5 H38 C48 N6 O14"
_cell_length_a       10.97376979
_cell_length_b       11.901852319999998
_cell_length_c       13.24566633
_cell_angle_alpha    68.64208210000001
_cell_angle_beta     78.98649354
_cell_angle_gamma    69.47091768

_space_group_name_H-M_alt    "P 1"
_space_group_IT_number       1

loop_
  _space_group_symop_operation_xyz
  'x, y, z'

loop_
  _atom_site_type_symbol
  _atom_site_label
  _atom_site_symmetry_multiplicity
  _atom_site_fract_x
  _atom_site_fract_y
  _atom_site_fract_z
  _atom_site_occupancy
  Co  Co1       1.0  0.03170484999999995  0.40697411999999994  0.81619752  1.0000
  Co  Co2       1.0  0.13785369  0.6752296100000001  0.8105269399999998  1.0000
  Co  Co3       1.0  0.96829256  0.5930201099999999  0.18380775  1.0000
  Co  Co4       1.0  0.8621461799999999  0.32476723  0.18947271999999998  1.0000
  Co  Co5       1.0  0.9999987499999998  0.50000313  0.99999911  1.0000
  H   H1        1.0  0.21106275999999996  0.42778468  0.89331717  1.0000
  H   H2        1.0  0.8756567600000001  0.6899413799999999  0.5089258  1.0000
  H   H3        1.0  0.94736286  0.91020367  0.52531628  1.0000
  H   H4        1.0  0.7865306600000002  0.8112519899999999  0.34780966  1.0000
  H   H5        1.0  0.73045222  0.9560182199999998  0.16066299999999997  1.0000
  H   H6        1.0  0.770179  0.16772808  0.09327378999999998  1.0000
  H   H7        1.0  0.9242594799999999  0.09520869  0.37924924  1.0000
  H   H8        1.0  0.5904730600000002  0.4300331899999998  0.93102806  1.0000
  H   H9        1.0  0.74776933  0.5719581999999999  0.7392042399999998  1.0000
  H   H10       1.0  0.65543522  0.59641584  0.55998393  1.0000
  H   H11       1.0  0.45085195  0.6608005299999999  0.46650812  1.0000
  H   H12       1.0  0.23563769999999998  0.68237826  0.5780159  1.0000
  H   H13       1.0  0.4123577799999999  0.5784316900000002  0.8596028299999999  1.0000
  H   H14       1.0  0.14010387  0.08623118000000002  0.20087808  1.0000
  H   H15       1.0  0.12860009  0.00025176999999999985  0.01052035  1.0000
  H   H16       1.0  0.24304581000000014  0.8728819499999998  0.29888647  1.0000
  H   H17       1.0  0.20999835000000006  0.6705735199999999  0.43295945  1.0000
  H   H18       1.0  0.08320224999999999  0.56314311  0.38285354  1.0000
  H   H19       1.0  0.04200670000000008  0.8253416999999997  0.07437198  1.0000
  H   H20       1.0  0.7889365700000001  0.57222113  0.10668388999999999  1.0000
  H   H21       1.0  0.12434088000000001  0.3100625699999999  0.49107379  1.0000
  H   H22       1.0  0.052638239999999996  0.08980181000000001  0.47468003  1.0000
  H   H23       1.0  0.21347071000000004  0.1887510400000001  0.6521905699999999  1.0000
  H   H24       1.0  0.26954692999999996  0.043983830000000036  0.83933547  1.0000
  H   H25       1.0  0.2298211500000002  0.83227369  0.9067245099999998  1.0000
  H   H26       1.0  0.07574149000000008  0.9047915399999998  0.6207518  1.0000
  H   H27       1.0  0.40952757999999995  0.5699649799999998  0.06897399  1.0000
  H   H28       1.0  0.25223321000000004  0.42804258999999995  0.26079231  1.0000
  H   H29       1.0  0.34456308  0.40358475  0.44001789  1.0000
  H   H30       1.0  0.54914828  0.33919926000000006  0.53349233  1.0000
  H   H31       1.0  0.7643617899999999  0.31762201  0.42198200999999996  1.0000
  H   H32       1.0  0.58764046  0.42156899  0.14039678  1.0000
  H   H33       1.0  0.85989543  0.9137682799999998  0.79911988  1.0000
  H   H34       1.0  0.8713978000000001  0.9997478600000002  0.98947889  1.0000
  H   H35       1.0  0.7569532499999999  0.12711554000000005  0.7011164999999999  1.0000
  H   H36       1.0  0.7899978399999998  0.32942178  0.56704109  1.0000
  H   H37       1.0  0.9167947699999999  0.43685429999999986  0.61714101  1.0000
  H   H38       1.0  0.95799306  0.17465894000000004  0.9256263599999999  1.0000
  C   C1        1.0  0.9811826300000001  0.6675737099999999  0.64243855  1.0000
  C   C2        1.0  0.9132079700000002  0.74252305  0.54145688  1.0000
  C   C3        1.0  0.90646942  0.86497084  0.48746856  1.0000
  C   C4        1.0  0.85990386  0.9416162  0.38075890999999995  1.0000
  C   C5        1.0  0.80318983  0.90339648  0.31708956  1.0000
  C   C6        1.0  0.7714517899999999  0.9842981599999998  0.21288286  1.0000
  C   C7        1.0  0.79523007  0.10115851  0.17386615  1.0000
  C   C8        1.0  0.8798705900000001  0.06092453  0.33421489  1.0000
  C   C9        1.0  0.77599242  0.44033471999999996  0.95316894  1.0000
  C   C10       1.0  0.66902452  0.4694403800000001  0.8876054999999998  1.0000
  C   C11       1.0  0.66392544  0.5400120199999999  0.78102781  1.0000
  C   C12       1.0  0.5518757300000001  0.57690644  0.719241  1.0000
  C   C13       1.0  0.56070129  0.6045043199999999  0.6058094  1.0000
  C   C14       1.0  0.4471571599999999  0.64057212  0.55400724  1.0000
  C   C15       1.0  0.3274843899999999  0.65165995  0.61476727  1.0000
  C   C16       1.0  0.42673472999999995  0.59120485  0.7730373799999999  1.0000
  C   C17       1.0  0.10732909999999997  0.21979664  0.03801416  1.0000
  C   C18       1.0  0.13842263999999993  0.09075924  0.11737184999999997  1.0000
  C   C19       1.0  0.1414107000000001  0.9885489199999998  0.0940608  1.0000
  C   C20       1.0  0.14228905000000006  0.8667390799999999  0.17555014  1.0000
  C   C21       1.0  0.19165543000000007  0.8213649499999999  0.27849558  1.0000
  C   C22       1.0  0.17287574999999994  0.71009069  0.35274681  1.0000
  C   C23       1.0  0.10331815999999998  0.64839538  0.32589984  1.0000
  C   C24       1.0  0.08008549999999999  0.79455316  0.15339408  1.0000
  C   C25       1.0  0.018819099999999995  0.33242512  0.35756357999999994  1.0000
  C   C26       1.0  0.08679140999999997  0.2574767  0.45854497  1.0000
  C   C27       1.0  0.09353099999999999  0.13502795  0.51253462  1.0000
  C   C28       1.0  0.14009645  0.058384109999999996  0.619243  1.0000
  C   C29       1.0  0.19681136000000002  0.09660671000000005  0.6829099699999999  1.0000
  C   C30       1.0  0.22854784999999997  0.015704450000000002  0.78711576  1.0000
  C   C31       1.0  0.20476919000000013  0.8988435299999998  0.8261323199999999  1.0000
  C   C32       1.0  0.12012901000000001  0.9390761999999999  0.6657852199999998  1.0000
  C   C33       1.0  0.22400625000000002  0.55966529  0.04683335999999999  1.0000
  C   C34       1.0  0.33097764  0.53056016  0.1123959  1.0000
  C   C35       1.0  0.33607634  0.4599877899999999  0.21897264  1.0000
  C   C36       1.0  0.44812591  0.42309178  0.28076114  1.0000
  C   C37       1.0  0.43929864  0.39549469000000004  0.39419280999999995  1.0000
  C   C38       1.0  0.5528441800000001  0.3594286199999999  0.4459934199999999  1.0000
  C   C39       1.0  0.6725150600000002  0.34834175  0.3852313999999999  1.0000
  C   C40       1.0  0.57326515  0.40879617  0.22696271  1.0000
  C   C41       1.0  0.8926732500000001  0.7802020199999999  0.9619856599999997  1.0000
  C   C42       1.0  0.8615804200000002  0.9092387300000001  0.8826259499999999  1.0000
  C   C43       1.0  0.8585898399999999  0.01144898000000007  0.9059383599999998  1.0000
  C   C44       1.0  0.8577114399999999  0.13325884  0.82444993  1.0000
  C   C45       1.0  0.8083440099999999  0.17863453000000007  0.7215044299999999  1.0000
  C   C46       1.0  0.8271226899999999  0.28990779  0.64725221  1.0000
  C   C47       1.0  0.8966795800000001  0.35160257999999994  0.67409829  1.0000
  C   C48       1.0  0.9199127300000002  0.20544605999999996  0.84660549  1.0000
  N   N1        1.0  0.8491323600000001  0.13999319  0.23383963  1.0000
  N   N2        1.0  0.31681727  0.62846506  0.72338242  1.0000
  N   N3        1.0  0.05681688000000002  0.6894589899999998  0.22682104999999997  1.0000
  N   N4        1.0  0.15086749000000008  0.8600086499999998  0.76615981  1.0000
  N   N5        1.0  0.6831842000000001  0.37153664999999997  0.2766165  1.0000
  N   N6        1.0  0.94317957  0.31053968  0.77317708  1.0000
  O   O1        1.0  0.029198620000000078  0.7230438499999999  0.68383839  1.0000
  O   O2        1.0  0.9899490199999998  0.54917338  0.6773093699999998  1.0000
  O   O3        1.0  0.76832982  0.37070433999999997  0.05228813  1.0000
  O   O4        1.0  0.8700700299999999  0.48877146000000005  0.90931732  1.0000
  O   O5        1.0  0.12852239  0.23740661  0.93586379  1.0000
  O   O6        1.0  0.05261514000000001  0.30865386  0.08065246  1.0000
  O   O7        1.0  0.12803163000000004  0.48957999999999996  0.8683105  1.0000
  O   O8        1.0  0.9707998400000001  0.27696144000000006  0.31615879  1.0000
  O   O9        1.0  0.01005947  0.4508266799999999  0.32269388  1.0000
  O   O10       1.0  0.23166566000000005  0.6292986699999998  0.9477170899999998  1.0000
  O   O11       1.0  0.12993275999999995  0.5112239200000002  0.09068428  1.0000
  O   O12       1.0  0.87148249  0.76259561  0.0641354  1.0000
  O   O13       1.0  0.94738456  0.69134046  0.91935323  1.0000
  O   O14       1.0  0.8719697400000002  0.51041583  0.13168258  1.0000
