data_image0
_chemical_formula_structural       Zn24H144C264O78
_chemical_formula_sum              "Zn24 H144 C264 O78"
_cell_length_a       41.92804
_cell_length_b       41.90753
_cell_length_c       17.621310000000005
_cell_angle_alpha    90.02321
_cell_angle_beta     89.87968000000001
_cell_angle_gamma    119.84505

_symmetry_space_group_name_H-M    'P 1'
_symmetry_Int_Tables_number       1

loop_
  _symmetry_equiv_pos_as_xyz
  'x,y,z'

loop_
  _atom_site_type_symbol
  _atom_site_label
  _atom_site_symmetry_multiplicity
  _atom_site_fract_x
  _atom_site_fract_y
  _atom_site_fract_z
  _atom_site_occupancy
  Zn  Zn1       1.0  0.41119999999999995  0.48002  0.75334  1.0000
  Zn  Zn2       1.0  0.5935199999999999  0.5215999999999998  0.25097  1.0000
  Zn  Zn3       1.0  0.52157  0.92976  0.74933  1.0000
  Zn  Zn4       1.0  0.47682  0.06889  0.24887000000000004  1.0000
  Zn  Zn5       1.0  0.07038000000000003  0.59038  0.74701  1.0000
  Zn  Zn6       1.0  0.92958  0.4064999999999999  0.24934  1.0000
  Zn  Zn7       1.0  0.37440000000000007  0.4032  0.66124  1.0000
  Zn  Zn8       1.0  0.63034  0.59853  0.33888  1.0000
  Zn  Zn9       1.0  0.5985  0.9696  0.65831  1.0000
  Zn  Zn10      1.0  0.3999599999999999  0.028839999999999998  0.34298  1.0000
  Zn  Zn11      1.0  0.030610000000000005  0.62738  0.65711  1.0000
  Zn  Zn12      1.0  0.96965  0.36979  0.33797  1.0000
  Zn  Zn13      1.0  0.6304399999999999  0.59865  0.15794  1.0000
  Zn  Zn14      1.0  0.37425  0.40307999999999994  0.84263  1.0000
  Zn  Zn15      1.0  0.40009  0.02898  0.16088  1.0000
  Zn  Zn16      1.0  0.59835  0.97111  0.8395  1.0000
  Zn  Zn17      1.0  0.9710199999999998  0.37096  0.15613  1.0000
  Zn  Zn18      1.0  0.030420000000000003  0.62744  0.83871  1.0000
  Zn  Zn19      1.0  0.3243  0.42848  0.75293  1.0000
  Zn  Zn20      1.0  0.68027  0.57281  0.24646999999999997  1.0000
  Zn  Zn21      1.0  0.5727699999999998  0.8944  0.75438  1.0000
  Zn  Zn22      1.0  0.42575  0.10451  0.25101  1.0000
  Zn  Zn23      1.0  0.10561  0.67834  0.74992  1.0000
  Zn  Zn24      1.0  0.89457  0.32007  0.24202000000000004  1.0000
  H   H1        1.0  0.45459  0.43601  0.4943600000000001  1.0000
  H   H2        1.0  0.56404  0.01201  0.47717  1.0000
  H   H3        1.0  0.43534  0.98494  0.51627  1.0000
  H   H4        1.0  0.9826399999999998  0.54704  0.48593  1.0000
  H   H5        1.0  0.01777000000000002  0.45025  0.50962  1.0000
  H   H6        1.0  0.5491299999999999  0.56608  0.99308  1.0000
  H   H7        1.0  0.45580999999999994  0.433  0.00936  1.0000
  H   H8        1.0  0.43253  0.9817799999999999  0.98736  1.0000
  H   H9        1.0  0.56643  0.02442  0.9976999999999999  1.0000
  H   H10       1.0  0.012839999999999943  0.44802999999999993  0.98307  1.0000
  H   H11       1.0  0.98754  0.55119  0.01629  1.0000
  H   H12       1.0  0.49922  0.54067  0.60564  1.0000
  H   H13       1.0  0.50605  0.46342999999999995  0.39888  1.0000
  H   H14       1.0  0.4645999999999999  0.9617399999999999  0.60898  1.0000
  H   H15       1.0  0.5348  0.03525999999999999  0.38464  1.0000
  H   H16       1.0  0.041599999999999984  0.50255  0.60256  1.0000
  H   H17       1.0  0.9588699999999999  0.49474  0.39289  1.0000
  H   H18       1.0  0.50736  0.46169  0.10404  1.0000
  H   H19       1.0  0.49749  0.53757  0.89842  1.0000
  H   H20       1.0  0.53784  0.04783  0.09202  1.0000
  H   H21       1.0  0.4610799999999999  0.95838  0.89307  1.0000
  H   H22       1.0  0.96319  0.49931  0.11058  1.0000
  H   H23       1.0  0.036770000000000004  0.49965  0.88832  1.0000
  H   H24       1.0  0.25228  0.41427  0.57855  1.0000
  H   H25       1.0  0.75093  0.58622  0.42357  1.0000
  H   H26       1.0  0.5794599999999999  0.83452  0.57375  1.0000
  H   H27       1.0  0.41637  0.16403  0.43305  1.0000
  H   H28       1.0  0.16457999999999995  0.7450599999999998  0.56522  1.0000
  H   H29       1.0  0.8349299999999998  0.2501  0.42002  1.0000
  H   H30       1.0  0.7449799999999999  0.57998  0.06155  1.0000
  H   H31       1.0  0.25294  0.41495  0.92853  1.0000
  H   H32       1.0  0.41584  0.16227  0.07376  1.0000
  H   H33       1.0  0.5889399999999999  0.8399399999999998  0.92779  1.0000
  H   H34       1.0  0.8384499999999999  0.25247  0.06684  1.0000
  H   H35       1.0  0.16176999999999994  0.7476099999999999  0.9271199999999999  1.0000
  H   H36       1.0  0.21825999999999998  0.40936999999999996  0.45983000000000007  1.0000
  H   H37       1.0  0.7839499999999998  0.59178  0.54413  1.0000
  H   H38       1.0  0.58344  0.80589  0.45315  1.0000
  H   H39       1.0  0.40928  0.19119  0.55284  1.0000
  H   H40       1.0  0.19137  0.77918  0.44512  1.0000
  H   H41       1.0  0.80692  0.217  0.54066  1.0000
  H   H42       1.0  0.77967  0.58748  0.94192  1.0000
  H   H43       1.0  0.21856999999999996  0.40959  0.04734  1.0000
  H   H44       1.0  0.41131  0.19097  0.95402  1.0000
  H   H45       1.0  0.5941799999999998  0.81056  0.04575  1.0000
  H   H46       1.0  0.80882  0.21902  0.94824  1.0000
  H   H47       1.0  0.1893  0.7807399999999999  0.04749  1.0000
  H   H48       1.0  0.2735  0.35871  0.34897  1.0000
  H   H49       1.0  0.73571  0.65207  0.64282  1.0000
  H   H50       1.0  0.64924  0.91367  0.35566  1.0000
  H   H51       1.0  0.34945999999999994  0.08279  0.65111  1.0000
  H   H52       1.0  0.08259999999999992  0.73386  0.35151  1.0000
  H   H53       1.0  0.9146599999999999  0.2656  0.64107  1.0000
  H   H54       1.0  0.73622  0.65305  0.84908  1.0000
  H   H55       1.0  0.27491  0.3602  0.15829  1.0000
  H   H56       1.0  0.34796  0.08338  0.8545  1.0000
  H   H57       1.0  0.6415400000000001  0.91541  0.15945  1.0000
  H   H58       1.0  0.9144599999999998  0.27219  0.83671  1.0000
  H   H59       1.0  0.08098999999999999  0.73557  0.14448  1.0000
  H   H60       1.0  0.30908  0.36616  0.46631  1.0000
  H   H61       1.0  0.70066  0.64374  0.52396  1.0000
  H   H62       1.0  0.64296  0.9418600000000001  0.47481  1.0000
  H   H63       1.0  0.35892999999999997  0.05639  0.53262  1.0000
  H   H64       1.0  0.05636999999999995  0.6976799999999999  0.46989000000000003  1.0000
  H   H65       1.0  0.9419399999999998  0.30023  0.52157  1.0000
  H   H66       1.0  0.69962  0.64309  0.9670199999999999  1.0000
  H   H67       1.0  0.3109  0.36825  0.0406  1.0000
  H   H68       1.0  0.3551  0.055290000000000006  0.97281  1.0000
  H   H69       1.0  0.6330699999999999  0.9434799999999999  0.04297  1.0000
  H   H70       1.0  0.94297  0.30766  0.95396  1.0000
  H   H71       1.0  0.05402999999999994  0.7003399999999999  0.02585  1.0000
  H   H72       1.0  0.27059999999999995  0.3905  0.25406  1.0000
  H   H73       1.0  0.7358  0.61946  0.7445  1.0000
  H   H74       1.0  0.61355  0.8814  0.25486  1.0000
  H   H75       1.0  0.38121  0.11581999999999999  0.75314  1.0000
  H   H76       1.0  0.11467999999999993  0.7341599999999999  0.24696999999999997  1.0000
  H   H77       1.0  0.8812299999999998  0.26688  0.73983  1.0000
  H   H78       1.0  0.17464  0.37356  0.37512  1.0000
  H   H79       1.0  0.8281299999999999  0.62664  0.62369  1.0000
  H   H80       1.0  0.6199799999999998  0.79582  0.37376  1.0000
  H   H81       1.0  0.3705899999999999  0.19869999999999996  0.6313  1.0000
  H   H82       1.0  0.20009999999999997  0.82474  0.36943  1.0000
  H   H83       1.0  0.79913  0.17166  0.62274  1.0000
  H   H84       1.0  0.8283299999999999  0.62926  0.86797  1.0000
  H   H85       1.0  0.17648  0.37593  0.13056  1.0000
  H   H86       1.0  0.37657999999999997  0.20202  0.87521  1.0000
  H   H87       1.0  0.62705  0.80102  0.12965  1.0000
  H   H88       1.0  0.7974199999999999  0.1764  0.86656  1.0000
  H   H89       1.0  0.19668999999999984  0.8281599999999998  0.12546  1.0000
  H   H90       1.0  0.12579  0.36408  0.13001  1.0000
  H   H91       1.0  0.86307  0.6084  0.8613  1.0000
  H   H92       1.0  0.6151899999999999  0.7488599999999999  0.12963  1.0000
  H   H93       1.0  0.35171  0.23411  0.86737  1.0000
  H   H94       1.0  0.25245  0.86358  0.1315  1.0000
  H   H95       1.0  0.7661699999999999  0.11936  0.86093  1.0000
  H   H96       1.0  0.88371  0.64871  0.63108  1.0000
  H   H97       1.0  0.13146999999999995  0.38014999999999993  0.37276  1.0000
  H   H98       1.0  0.39435  0.25549  0.63873  1.0000
  H   H99       1.0  0.63468  0.75838  0.37126  1.0000
  H   H100      1.0  0.74296  0.13815  0.63205  1.0000
  H   H101      1.0  0.23316999999999988  0.87988  0.36528  1.0000
  H   H102      1.0  0.06727  0.36426  0.128  1.0000
  H   H103      1.0  0.92258  0.60957  0.86206  1.0000
  H   H104      1.0  0.61836  0.69172  0.12916  1.0000
  H   H105      1.0  0.35358  0.29406  0.8682  1.0000
  H   H106      1.0  0.3103999999999999  0.9232499999999999  0.13323  1.0000
  H   H107      1.0  0.70715  0.06055  0.8637  1.0000
  H   H108      1.0  0.9413099999999998  0.64614  0.63043  1.0000
  H   H109      1.0  0.07187999999999999  0.37815  0.36949  1.0000
  H   H110      1.0  0.39216  0.31336  0.63804  1.0000
  H   H111      1.0  0.6352299999999999  0.6999599999999999  0.36987  1.0000
  H   H112      1.0  0.6859299999999999  0.07755  0.63355  1.0000
  H   H113      1.0  0.29275000000000007  0.93777  0.3675  1.0000
  H   H114      1.0  0.70629  0.48957999999999996  0.24668000000000004  1.0000
  H   H115      1.0  0.4893899999999999  0.78524  0.77878  1.0000
  H   H116      1.0  0.50961  0.21342  0.22178  1.0000
  H   H117      1.0  0.2116  0.69812  0.80947  1.0000
  H   H118      1.0  0.7874199999999998  0.2974  0.19999  1.0000
  H   H119      1.0  0.30186  0.51254  0.69913  1.0000
  H   H120      1.0  0.7148599999999999  0.43573  0.24300999999999998  1.0000
  H   H121      1.0  0.43515  0.72279  0.77843  1.0000
  H   H122      1.0  0.56369  0.27562  0.22088  1.0000
  H   H123      1.0  0.27446  0.70643  0.81367  1.0000
  H   H124      1.0  0.7245799999999999  0.28891999999999995  0.19737  1.0000
  H   H125      1.0  0.29274999999999995  0.5667799999999998  0.69426  1.0000
  H   H126      1.0  0.3987299999999999  0.63274  0.79916  1.0000
  H   H127      1.0  0.597  0.3646  0.25105  1.0000
  H   H128      1.0  0.63309  0.22915  0.27019  1.0000
  H   H129      1.0  0.36723  0.7682  0.70959  1.0000
  H   H130      1.0  0.76546  0.3951  0.3026  1.0000
  H   H131      1.0  0.23517000000000002  0.60353  0.69538  1.0000
  H   H132      1.0  0.4088099999999999  0.5791299999999999  0.79561  1.0000
  H   H133      1.0  0.5893699999999998  0.4190399999999999  0.2546  1.0000
  H   H134      1.0  0.5787099999999998  0.16713  0.2665  1.0000
  H   H135      1.0  0.42138  0.83072  0.7166  1.0000
  H   H136      1.0  0.8286599999999998  0.4045  0.29819  1.0000
  H   H137      1.0  0.17182  0.59404  0.69876  1.0000
  H   H138      1.0  0.28005  0.60342  0.76064  1.0000
  H   H139      1.0  0.7211699999999999  0.39392  0.24424  1.0000
  H   H140      1.0  0.39614  0.67532  0.73311  1.0000
  H   H141      1.0  0.32387  0.7202  0.75029  1.0000
  H   H142      1.0  0.67567  0.2773  0.25133  1.0000
  H   H143      1.0  0.6040399999999999  0.32295  0.24958  1.0000
  H   H144      1.0  0.55085  0.56793  0.5106  1.0000
  C   C1        1.0  0.44350999999999996  0.47021999999999997  0.61271  1.0000
  C   C2        1.0  0.56204  0.53356  0.39254  1.0000
  C   C3        1.0  0.5327499999999998  0.9711600000000001  0.60422  1.0000
  C   C4        1.0  0.46592  0.02506  0.3895  1.0000
  C   C5        1.0  0.027360000000000023  0.55858  0.60587  1.0000
  C   C6        1.0  0.9729499999999999  0.4385499999999999  0.39001  1.0000
  C   C7        1.0  0.56171  0.53231  0.10981  1.0000
  C   C8        1.0  0.44282  0.46729  0.89328  1.0000
  C   C9        1.0  0.46653999999999995  0.02963  0.10238  1.0000
  C   C10       1.0  0.53217  0.97551  0.88456  1.0000
  C   C11       1.0  0.97254  0.4396  0.10825  1.0000
  C   C12       1.0  0.027979999999999977  0.55923  0.89044  1.0000
  C   C13       1.0  0.47398  0.48669  0.55561  1.0000
  C   C14       1.0  0.53143  0.51726  0.44943  1.0000
  C   C15       1.0  0.51587  0.98525  0.5482  1.0000
  C   C16       1.0  0.48333  0.01128  0.44491  1.0000
  C   C17       1.0  0.013460000000000026  0.52778  0.54967  1.0000
  C   C18       1.0  0.98705  0.46953  0.4458  1.0000
  C   C19       1.0  0.53108  0.51542  0.05366  1.0000
  C   C20       1.0  0.47368  0.48379  0.94888  1.0000
  C   C21       1.0  0.48355999999999993  0.01614  0.04517  1.0000
  C   C22       1.0  0.5153899999999999  0.9899899999999999  0.9400700000000001  1.0000
  C   C23       1.0  0.9866099999999999  0.4706099999999999  0.05226  1.0000
  C   C24       1.0  0.01357000000000002  0.52843  0.9468899999999999  1.0000
  C   C25       1.0  0.4757899999999999  0.46481  0.4972500000000001  1.0000
  C   C26       1.0  0.52961  0.53915  0.50772  1.0000
  C   C27       1.0  0.5359  0.006119999999999999  0.4850900000000001  1.0000
  C   C28       1.0  0.46339  0.99057  0.50822  1.0000
  C   C29       1.0  0.99016  0.52575  0.49048  1.0000
  C   C30       1.0  0.01035000000000002  0.47158  0.50496  1.0000
  C   C31       1.0  0.5285499999999999  0.5370699999999999  0.99586  1.0000
  C   C32       1.0  0.47629  0.4620600000000001  0.00646  1.0000
  C   C33       1.0  0.46175999999999995  0.99094  0.9890000000000001  1.0000
  C   C34       1.0  0.53721  0.015329999999999998  0.9959799999999999  1.0000
  C   C35       1.0  0.0074399999999999996  0.47069  0.98964  1.0000
  C   C36       1.0  0.9927799999999999  0.52842  0.00954  1.0000
  C   C37       1.0  0.50103  0.52401  0.56039  1.0000
  C   C38       1.0  0.50429  0.47999  0.44444  1.0000
  C   C39       1.0  0.47957  0.97767  0.55949  1.0000
  C   C40       1.0  0.51971  0.01905  0.43377  1.0000
  C   C41       1.0  0.023510000000000007  0.50055  0.5565  1.0000
  C   C42       1.0  0.97703  0.49679  0.43889  1.0000
  C   C43       1.0  0.50484  0.47788  0.05875999999999999  1.0000
  C   C44       1.0  0.49997  0.52133  0.9436799999999999  1.0000
  C   C45       1.0  0.52139  0.028309999999999995  0.04821  1.0000
  C   C46       1.0  0.47757999999999995  0.97795  0.93679  1.0000
  C   C47       1.0  0.9793  0.49965  0.06183  1.0000
  C   C48       1.0  0.020760000000000008  0.49933  0.9372100000000001  1.0000
  C   C49       1.0  0.30549  0.39625  0.59922  1.0000
  C   C50       1.0  0.7006700000000001  0.60775  0.3973  1.0000
  C   C51       1.0  0.60534  0.90646  0.60196  1.0000
  C   C52       1.0  0.39486  0.0922  0.40603  1.0000
  C   C53       1.0  0.09282  0.69611  0.59417  1.0000
  C   C54       1.0  0.9063999999999999  0.29982  0.39403  1.0000
  C   C55       1.0  0.6975999999999999  0.60428  0.09141  1.0000
  C   C56       1.0  0.30687  0.39841  0.9081600000000001  1.0000
  C   C57       1.0  0.39129  0.09025999999999999  0.10054  1.0000
  C   C58       1.0  0.60472  0.91017  0.90836  1.0000
  C   C59       1.0  0.90962  0.30373  0.08795  1.0000
  C   C60       1.0  0.09041  0.6989  0.89902  1.0000
  C   C61       1.0  0.28305  0.3908  0.52974  1.0000
  C   C62       1.0  0.72346  0.61434  0.46656  1.0000
  C   C63       1.0  0.6107199999999999  0.88988  0.53168  1.0000
  C   C64       1.0  0.38821999999999995  0.10844  0.4755  1.0000
  C   C65       1.0  0.10880999999999999  0.71897  0.52471  1.0000
  C   C66       1.0  0.89008  0.27748  0.4638  1.0000
  C   C67       1.0  0.72  0.61084  0.02137  1.0000
  C   C68       1.0  0.2842199999999999  0.3922899999999999  0.97755  1.0000
  C   C69       1.0  0.38591  0.10701  0.03062  1.0000
  C   C70       1.0  0.61054  0.8934999999999998  0.978  1.0000
  C   C71       1.0  0.8925199999999999  0.28219  0.01774  1.0000
  C   C72       1.0  0.10616999999999999  0.72161  0.96888  1.0000
  C   C73       1.0  0.25673000000000007  0.40222  0.5278  1.0000
  C   C74       1.0  0.7477899999999998  0.60054  0.47196999999999995  1.0000
  C   C75       1.0  0.5946599999999997  0.8515399999999999  0.52554  1.0000
  C   C76       1.0  0.40168  0.14646  0.48101  1.0000
  C   C77       1.0  0.14689  0.74271  0.51801  1.0000
  C   C78       1.0  0.85204  0.25324  0.46889000000000003  1.0000
  C   C79       1.0  0.74328  0.59586  0.01454  1.0000
  C   C80       1.0  0.2575  0.40311  0.97939  1.0000
  C   C81       1.0  0.40104  0.14529  0.02534  1.0000
  C   C82       1.0  0.60036  0.85611  0.97903  1.0000
  C   C83       1.0  0.85473  0.25662  0.0159  1.0000
  C   C84       1.0  0.14431  0.74517  0.9750199999999999  1.0000
  C   C85       1.0  0.23746  0.39904  0.46124000000000004  1.0000
  C   C86       1.0  0.76651  0.60408  0.53945  1.0000
  C   C87       1.0  0.5972599999999998  0.8356899999999999  0.45808000000000004  1.0000
  C   C88       1.0  0.39732  0.16150999999999996  0.54809  1.0000
  C   C89       1.0  0.16171000000000002  0.76202  0.45083  1.0000
  C   C90       1.0  0.83659  0.23456  0.53631  1.0000
  C   C91       1.0  0.76296  0.60054  0.9477900000000001  1.0000
  C   C92       1.0  0.2381  0.39967  0.04598  1.0000
  C   C93       1.0  0.39813  0.16117  0.9582299999999999  1.0000
  C   C94       1.0  0.60379  0.83993  0.04521  1.0000
  C   C95       1.0  0.83838  0.23766  0.9493500000000001  1.0000
  C   C96       1.0  0.15957  0.76402  0.04236  1.0000
  C   C97       1.0  0.24345999999999998  0.38388  0.39505  1.0000
  C   C98       1.0  0.7620600000000001  0.62203  0.60279  1.0000
  C   C99       1.0  0.6163499999999998  0.85771  0.39521  1.0000
  C   C100      1.0  0.37899  0.1391  0.61116  1.0000
  C   C101      1.0  0.13899  0.75868  0.38906  1.0000
  C   C102      1.0  0.8586999999999998  0.23923999999999998  0.60007  1.0000
  C   C103      1.0  0.7604199999999998  0.62076  0.88655  1.0000
  C   C104      1.0  0.24444  0.3848  0.1121  1.0000
  C   C105      1.0  0.3795299999999999  0.13931  0.89494  1.0000
  C   C106      1.0  0.61819  0.86067  0.11202  1.0000
  C   C107      1.0  0.8593399999999999  0.24304  0.88315  1.0000
  C   C108      1.0  0.13720999999999997  0.76056  0.10514  1.0000
  C   C109      1.0  0.26918  0.37156  0.39854  1.0000
  C   C110      1.0  0.7386299999999999  0.63698  0.59561  1.0000
  C   C111      1.0  0.6333099999999999  0.8961999999999999  0.40279  1.0000
  C   C112      1.0  0.36464  0.10086  0.60408  1.0000
  C   C113      1.0  0.10072999999999999  0.73575  0.39747  1.0000
  C   C114      1.0  0.89698  0.26263  0.59335  1.0000
  C   C115      1.0  0.7376899999999998  0.63644  0.89487  1.0000
  C   C116      1.0  0.27047  0.37289  0.10865  1.0000
  C   C117      1.0  0.36351  0.10086  0.90178  1.0000
  C   C118      1.0  0.6293499999999999  0.89844  0.10946  1.0000
  C   C119      1.0  0.8974  0.26823  0.88629  1.0000
  C   C120      1.0  0.09887999999999998  0.73778  0.09753  1.0000
  C   C121      1.0  0.28893  0.37527  0.4644  1.0000
  C   C122      1.0  0.71929  0.63284  0.52889  1.0000
  C   C123      1.0  0.6302999999999997  0.9121599999999999  0.46969999999999995  1.0000
  C   C124      1.0  0.36946  0.08581  0.53762  1.0000
  C   C125      1.0  0.08585999999999998  0.71584  0.46388999999999997  1.0000
  C   C126      1.0  0.9124699999999998  0.28175  0.52645  1.0000
  C   C127      1.0  0.7174499999999999  0.63129  0.96097  1.0000
  C   C128      1.0  0.2904  0.37691  0.0427  1.0000
  C   C129      1.0  0.3669899999999999  0.08492  0.9682000000000001  1.0000
  C   C130      1.0  0.6251399999999999  0.9145299999999998  0.04399  1.0000
  C   C131      1.0  0.9137099999999999  0.28788  0.95215  1.0000
  C   C132      1.0  0.08359  0.71828  0.03085  1.0000
  C   C133      1.0  0.22432999999999995  0.38151999999999997  0.32289  1.0000
  C   C134      1.0  0.78065  0.62436  0.6756  1.0000
  C   C135      1.0  0.61835  0.84124  0.32233  1.0000
  C   C136      1.0  0.37627  0.15549  0.68368  1.0000
  C   C137      1.0  0.1548299999999999  0.77807  0.31661  1.0000
  C   C138      1.0  0.8421299999999999  0.22112  0.67308  1.0000
  C   C139      1.0  0.7800599999999999  0.6241599999999999  0.81442  1.0000
  C   C140      1.0  0.22499999999999998  0.3821  0.18408  1.0000
  C   C141      1.0  0.3773  0.15606  0.8226  1.0000
  C   C142      1.0  0.62019  0.84318  0.18361  1.0000
  C   C143      1.0  0.8421699999999999  0.22324000000000002  0.81188  1.0000
  C   C144      1.0  0.15377999999999997  0.77925  0.17783  1.0000
  C   C145      1.0  0.24227  0.38465  0.25368  1.0000
  C   C146      1.0  0.7633699999999999  0.6231299999999999  0.74478  1.0000
  C   C147      1.0  0.6176599999999998  0.8577599999999999  0.25362  1.0000
  C   C148      1.0  0.3777899999999999  0.13988999999999996  0.75311  1.0000
  C   C149      1.0  0.13848  0.76172  0.24715999999999996  1.0000
  C   C150      1.0  0.85763  0.23923999999999998  0.74157  1.0000
  C   C151      1.0  0.18872999999999998  0.37678  0.32145  1.0000
  C   C152      1.0  0.81503  0.6263  0.67719  1.0000
  C   C153      1.0  0.6203  0.80881  0.32021  1.0000
  C   C154      1.0  0.37365  0.18761  0.6848  1.0000
  C   C155      1.0  0.18717999999999999  0.8124  0.31569  1.0000
  C   C156      1.0  0.8103799999999999  0.18634  0.67561  1.0000
  C   C157      1.0  0.8148199999999999  0.62692  0.81401  1.0000
  C   C158      1.0  0.18958  0.37769  0.18469  1.0000
  C   C159      1.0  0.37598  0.18887  0.82162  1.0000
  C   C160      1.0  0.6234699999999999  0.81139  0.18363  1.0000
  C   C161      1.0  0.80998  0.1887  0.81243  1.0000
  C   C162      1.0  0.1857499999999999  0.81397  0.17902  1.0000
  C   C163      1.0  0.171  0.3755  0.25276  1.0000
  C   C164      1.0  0.8326099999999999  0.62752  0.74583  1.0000
  C   C165      1.0  0.6228499999999999  0.7932399999999998  0.25132  1.0000
  C   C166      1.0  0.37409  0.2051  0.75322  1.0000
  C   C167      1.0  0.2031999999999999  0.83087  0.24747999999999998  1.0000
  C   C168      1.0  0.79357  0.16984  0.74489  1.0000
  C   C169      1.0  0.13422  0.37273  0.25156  1.0000
  C   C170      1.0  0.8684599999999999  0.62848  0.74616  1.0000
  C   C171      1.0  0.62472  0.75872  0.25048  1.0000
  C   C172      1.0  0.37311999999999995  0.23999999999999996  0.75309  1.0000
  C   C173      1.0  0.23789999999999997  0.86679  0.24818000000000004  1.0000
  C   C174      1.0  0.75928  0.13362999999999997  0.74634  1.0000
  C   C175      1.0  0.11484999999999998  0.36779  0.18314  1.0000
  C   C176      1.0  0.8803599999999999  0.61763  0.81094  1.0000
  C   C177      1.0  0.62022  0.73895  0.18274  1.0000
  C   C178      1.0  0.36159  0.25162  0.81742  1.0000
  C   C179      1.0  0.26042  0.87996  0.1831  1.0000
  C   C180      1.0  0.74844  0.11095  0.8113  1.0000
  C   C181      1.0  0.8913999999999999  0.63923  0.68155  1.0000
  C   C182      1.0  0.11775000000000002  0.37626  0.31853  1.0000
  C   C183      1.0  0.38442999999999994  0.26309  0.68877  1.0000
  C   C184      1.0  0.6304399999999999  0.74397  0.3177  1.0000
  C   C185      1.0  0.736  0.12101999999999999  0.68251  1.0000
  C   C186      1.0  0.25003  0.88858  0.3143  1.0000
  C   C187      1.0  0.08154999999999998  0.36752  0.18134  1.0000
  C   C188      1.0  0.91361  0.61778  0.81157  1.0000
  C   C189      1.0  0.6216599999999999  0.70647  0.18195  1.0000
  C   C190      1.0  0.36202  0.28504  0.81802  1.0000
  C   C191      1.0  0.29329  0.9133  0.1838  1.0000
  C   C192      1.0  0.7155199999999999  0.07759  0.81295  1.0000
  C   C193      1.0  0.9241399999999999  0.63833  0.68101  1.0000
  C   C194      1.0  0.08414999999999996  0.37539999999999996  0.31729  1.0000
  C   C195      1.0  0.38376  0.29595  0.68821  1.0000
  C   C196      1.0  0.63115  0.71114  0.31749  1.0000
  C   C197      1.0  0.7036499999999999  0.08723  0.6831  1.0000
  C   C198      1.0  0.28336999999999996  0.9214599999999998  0.31592  1.0000
  C   C199      1.0  0.06576000000000001  0.37139  0.24846  1.0000
  C   C200      1.0  0.93574  0.62781  0.74629  1.0000
  C   C201      1.0  0.62696  0.69201  0.24952000000000002  1.0000
  C   C202      1.0  0.37281  0.30744  0.75315  1.0000
  C   C203      1.0  0.30535999999999996  0.9342499999999999  0.25058  1.0000
  C   C204      1.0  0.69286  0.06526  0.74857  1.0000
  C   C205      1.0  0.37273999999999996  0.34296999999999994  0.75329  1.0000
  C   C206      1.0  0.62819  0.65705  0.24956000000000003  1.0000
  C   C207      1.0  0.65756  0.029619999999999997  0.74948  1.0000
  C   C208      1.0  0.3411799999999999  0.96933  0.25207  1.0000
  C   C209      1.0  0.9709899999999999  0.62721  0.74641  1.0000
  C   C210      1.0  0.030119999999999984  0.3711999999999999  0.24685  1.0000
  C   C211      1.0  0.36084  0.50988  0.7495  1.0000
  C   C212      1.0  0.6426399999999998  0.49073999999999995  0.253  1.0000
  C   C213      1.0  0.49156  0.84956  0.75251  1.0000
  C   C214      1.0  0.50769  0.14877  0.24603  1.0000
  C   C215      1.0  0.15004  0.64054  0.75361  1.0000
  C   C216      1.0  0.8498299999999999  0.35668  0.24697999999999998  1.0000
  C   C217      1.0  0.35581999999999997  0.54261  0.74769  1.0000
  C   C218      1.0  0.64731  0.45782  0.25135  1.0000
  C   C219      1.0  0.4587899999999999  0.81199  0.74857  1.0000
  C   C220      1.0  0.54064  0.18627  0.24475000000000002  1.0000
  C   C221      1.0  0.18781000000000003  0.64551  0.75426  1.0000
  C   C222      1.0  0.81204  0.35158  0.24863000000000002  1.0000
  C   C223      1.0  0.68259  0.46198999999999996  0.24781  1.0000
  C   C224      1.0  0.4624  0.78114  0.76443  1.0000
  C   C225      1.0  0.53686  0.21726  0.23202  1.0000
  C   C226      1.0  0.21713000000000002  0.67745  0.78551  1.0000
  C   C227      1.0  0.78228  0.31874  0.22159  1.0000
  C   C228      1.0  0.3229  0.53917  0.72008  1.0000
  C   C229      1.0  0.68708  0.43131  0.24584  1.0000
  C   C230      1.0  0.4318  0.74606  0.76308  1.0000
  C   C231      1.0  0.56757  0.2523  0.2323  1.0000
  C   C232      1.0  0.25239  0.68212  0.7867  1.0000
  C   C233      1.0  0.74701  0.31398  0.22126  1.0000
  C   C234      1.0  0.3178099999999999  0.56951  0.71857  1.0000
  C   C235      1.0  0.34491  0.60385  0.74686  1.0000
  C   C236      1.0  0.6566899999999999  0.39528  0.24756000000000003  1.0000
  C   C237      1.0  0.39665999999999996  0.74029  0.74412  1.0000
  C   C238      1.0  0.60309  0.25788  0.24652  1.0000
  C   C239      1.0  0.25976  0.65566  0.75454  1.0000
  C   C240      1.0  0.7401  0.34139  0.24966999999999998  1.0000
  C   C241      1.0  0.3777299999999999  0.6068299999999999  0.77507  1.0000
  C   C242      1.0  0.6214199999999999  0.39167  0.25026  1.0000
  C   C243      1.0  0.6063699999999999  0.22638  0.25865  1.0000
  C   C244      1.0  0.39363999999999993  0.77148  0.72638  1.0000
  C   C245      1.0  0.77009  0.37391  0.27816  1.0000
  C   C246      1.0  0.23013  0.62391  0.72255  1.0000
  C   C247      1.0  0.38342  0.57682  0.77432  1.0000
  C   C248      1.0  0.6167199999999999  0.4222499999999999  0.25224  1.0000
  C   C249      1.0  0.57583  0.19121  0.25725  1.0000
  C   C250      1.0  0.4240499999999999  0.80678  0.7294  1.0000
  C   C251      1.0  0.8056099999999999  0.37921  0.27677  1.0000
  C   C252      1.0  0.19459999999999988  0.6186099999999999  0.7233  1.0000
  C   C253      1.0  0.33892  0.63579  0.74714  1.0000
  C   C254      1.0  0.6618  0.36263  0.24742  1.0000
  C   C255      1.0  0.36426  0.70265  0.74478  1.0000
  C   C256      1.0  0.63568  0.29545  0.24808  1.0000
  C   C257      1.0  0.29752  0.66117  0.75256  1.0000
  C   C258      1.0  0.7024899999999997  0.33623  0.24901  1.0000
  C   C259      1.0  0.30338  0.63097  0.75318  1.0000
  C   C260      1.0  0.69712  0.36667  0.24707000000000004  1.0000
  C   C261      1.0  0.36884999999999996  0.67167  0.74166  1.0000
  C   C262      1.0  0.6315699999999999  0.32673  0.24823999999999996  1.0000
  C   C263      1.0  0.32826  0.69675  0.74944  1.0000
  C   C264      1.0  0.67152  0.30086  0.24939  1.0000
  O   O1        1.0  0.37116999999999994  0.42869  0.75205  1.0000
  O   O2        1.0  0.6336  0.57292  0.24834  1.0000
  O   O3        1.0  0.57302  0.9413899999999998  0.74985  1.0000
  O   O4        1.0  0.42536  0.05746  0.2519  1.0000
  O   O5        1.0  0.059339999999999976  0.6308  0.74806  1.0000
  O   O6        1.0  0.94144  0.36677  0.24631  1.0000
  O   O7        1.0  0.44304999999999994  0.49196  0.66314  1.0000
  O   O8        1.0  0.56169  0.51201  0.34083  1.0000
  O   O9        1.0  0.51216  0.95195  0.65901  1.0000
  O   O10       1.0  0.48593  0.0439  0.33358  1.0000
  O   O11       1.0  0.047929999999999987  0.55813  0.65877  1.0000
  O   O12       1.0  0.95282  0.43941  0.33667  1.0000
  O   O13       1.0  0.56136  0.5113  0.16275  1.0000
  O   O14       1.0  0.44164  0.48922  0.84441  1.0000
  O   O15       1.0  0.48797999999999997  0.05211  0.1525  1.0000
  O   O16       1.0  0.5102499999999999  0.9516899999999999  0.8369  1.0000
  O   O17       1.0  0.95018  0.43848  0.15908  1.0000
  O   O18       1.0  0.04816999999999998  0.55838  0.83691  1.0000
  O   O19       1.0  0.29583999999999994  0.40624  0.65956  1.0000
  O   O20       1.0  0.70956  0.59631  0.33783  1.0000
  O   O21       1.0  0.59031  0.8848300000000001  0.65855  1.0000
  O   O22       1.0  0.40783  0.11323  0.34788  1.0000
  O   O23       1.0  0.11381000000000001  0.70416  0.65227  1.0000
  O   O24       1.0  0.8848899999999998  0.29274  0.33718  1.0000
  O   O25       1.0  0.7054099999999999  0.59037  0.14822  1.0000
  O   O26       1.0  0.29718  0.40858  0.84808  1.0000
  O   O27       1.0  0.4029199999999999  0.11076999999999998  0.15943  1.0000
  O   O28       1.0  0.5967299999999999  0.8910200000000001  0.84751  1.0000
  O   O29       1.0  0.8900499999999999  0.29289  0.14839  1.0000
  O   O30       1.0  0.11110000000000002  0.70841  0.84011  1.0000
  O   O31       1.0  0.33283999999999997  0.39074999999999993  0.59252  1.0000
  O   O32       1.0  0.67367  0.61373  0.4036  1.0000
  O   O33       1.0  0.6157799999999999  0.94083  0.59991  1.0000
  O   O34       1.0  0.38736999999999994  0.05869  0.4107  1.0000
  O   O35       1.0  0.05945999999999999  0.67003  0.58956  1.0000
  O   O36       1.0  0.94043  0.3245  0.39677  1.0000
  O   O37       1.0  0.67229  0.61289  0.0889  1.0000
  O   O38       1.0  0.33443999999999996  0.39342  0.91469  1.0000
  O   O39       1.0  0.3842  0.05686  0.09598  1.0000
  O   O40       1.0  0.6079  0.94206  0.91502  1.0000
  O   O41       1.0  0.9422199999999997  0.33126  0.08205  1.0000
  O   O42       1.0  0.05773  0.67145  0.90387  1.0000
  O   O43       1.0  0.3760899999999999  0.35847  0.68885  1.0000
  O   O44       1.0  0.62883  0.6435699999999999  0.31436  1.0000
  O   O45       1.0  0.6415499999999998  0.01741  0.68555  1.0000
  O   O46       1.0  0.35356999999999983  0.9839099999999998  0.31717  1.0000
  O   O47       1.0  0.9856899999999998  0.62894  0.68163  1.0000
  O   O48       1.0  0.016689999999999962  0.37296999999999997  0.31096  1.0000
  O   O49       1.0  0.62858  0.64335  0.18481  1.0000
  O   O50       1.0  0.36937  0.35508  0.81784  1.0000
  O   O51       1.0  0.35672999999999994  0.98193  0.18792  1.0000
  O   O52       1.0  0.64608  0.014250000000000002  0.81431  1.0000
  O   O53       1.0  0.015890000000000005  0.36937  0.18153  1.0000
  O   O54       1.0  0.9836  0.62493  0.81105  1.0000
  O   O55       1.0  0.42059  0.43581  0.60662  1.0000
  O   O56       1.0  0.58595  0.56764  0.40018  1.0000
  O   O57       1.0  0.56621  0.97945  0.59279  1.0000
  O   O58       1.0  0.43263999999999997  0.01681  0.40265  1.0000
  O   O59       1.0  0.017480000000000002  0.58271  0.59657  1.0000
  O   O60       1.0  0.98215  0.41392999999999996  0.40001  1.0000
  O   O61       1.0  0.5855699999999999  0.56624  0.10009  1.0000
  O   O62       1.0  0.4201399999999999  0.4328  0.89947  1.0000
  O   O63       1.0  0.43197  0.01756  0.09662  1.0000
  O   O64       1.0  0.5668299999999997  0.9879599999999998  0.88926  1.0000
  O   O65       1.0  0.98417  0.41677  0.10026  1.0000
  O   O66       1.0  0.01885999999999997  0.58389  0.90042  1.0000
  O   O67       1.0  0.33162  0.47855999999999993  0.74427  1.0000
  O   O68       1.0  0.67202  0.52207  0.25187  1.0000
  O   O69       1.0  0.52259  0.85158  0.76433  1.0000
  O   O70       1.0  0.4764399999999999  0.14667  0.23747  1.0000
  O   O71       1.0  0.14725999999999997  0.66908  0.76632  1.0000
  O   O72       1.0  0.85251  0.3285  0.22961  1.0000
  O   O73       1.0  0.39374  0.51573  0.75622  1.0000
  O   O74       1.0  0.60961  0.48495999999999995  0.25525  1.0000
  O   O75       1.0  0.4861  0.87684  0.74411  1.0000
  O   O76       1.0  0.51331  0.12162999999999999  0.25582  1.0000
  O   O77       1.0  0.12335999999999994  0.608  0.7406  1.0000
  O   O78       1.0  0.87667  0.38876  0.26272  1.0000
