data_image0
_chemical_formula_structural       Na12H36C72O24
_chemical_formula_sum              "Na12 H36 C72 O24"
_cell_length_a       8.688
_cell_length_b       18.2186
_cell_length_c       18.2186
_cell_angle_alpha    119.99999999999999
_cell_angle_beta     90.0
_cell_angle_gamma    90.0

_space_group_name_H-M_alt    "P 1"
_space_group_IT_number       1

loop_
  _space_group_symop_operation_xyz
  'x, y, z'

loop_
  _atom_site_type_symbol
  _atom_site_label
  _atom_site_symmetry_multiplicity
  _atom_site_fract_x
  _atom_site_fract_y
  _atom_site_fract_z
  _atom_site_occupancy
  Na  Na1       1.0  0.8236800000000002  0.3616500000000002  0.7252100000000002  1.0000
  Na  Na2       1.0  0.8216100000000002  0.25908  0.51105  1.0000
  Na  Na3       1.0  0.15701  0.36356  0.63835  1.0000
  Na  Na4       1.0  0.15494  0.2519700000000001  0.74092  1.0000
  Na  Na5       1.0  0.49035000000000006  0.2747900000000001  0.6364400000000002  1.0000
  Na  Na6       1.0  0.48828000000000005  0.4889500000000001  0.7480300000000002  1.0000
  Na  Na7       1.0  0.32368000000000013  0.63835  0.27479  1.0000
  Na  Na8       1.0  0.3216100000000001  0.74092  0.48895  1.0000
  Na  Na9       1.0  0.65701  0.63644  0.36165  1.0000
  Na  Na10      1.0  0.65494  0.74803  0.25908  1.0000
  Na  Na11      1.0  0.9903500000000001  0.7252100000000001  0.3635600000000001  1.0000
  Na  Na12      1.0  0.9882800000000002  0.51105  0.25197  1.0000
  H   H1        1.0  0.8835  0.05640000000000003  0.4923  1.0000
  H   H2        1.0  0.5528  0.8753000000000001  0.6215000000000003  1.0000
  H   H3        1.0  0.6564  0.1631000000000001  0.7547000000000003  1.0000
  H   H4        1.0  0.47370000000000007  0.9644  0.7569  1.0000
  H   H5        1.0  0.5252000000000001  0.1077000000000001  0.8228000000000002  1.0000
  H   H6        1.0  0.8347  0.9134999999999999  0.4252  1.0000
  H   H7        1.0  0.21683  0.4358999999999999  0.9436  1.0000
  H   H8        1.0  0.88613  0.7462  0.1247  1.0000
  H   H9        1.0  0.9897300000000001  0.5916000000000002  0.8369000000000002  1.0000
  H   H10       1.0  0.80703  0.7925  0.0356  1.0000
  H   H11       1.0  0.85853  0.7151  0.8923  1.0000
  H   H12       1.0  0.16803  0.5117  0.08650000000000002  1.0000
  H   H13       1.0  0.5501700000000002  0.5077  0.5641  1.0000
  H   H14       1.0  0.21947  0.3785  0.25380000000000014  1.0000
  H   H15       1.0  0.32307  0.24530000000000002  0.4084  1.0000
  H   H16       1.0  0.14037  0.2431  0.20750000000000005  1.0000
  H   H17       1.0  0.19187000000000007  0.1772  0.2849  1.0000
  H   H18       1.0  0.5013700000000002  0.5748  0.4883000000000001  1.0000
  H   H19       1.0  0.3835  0.9436  0.5077000000000003  1.0000
  H   H20       1.0  0.0528  0.1247  0.3785  1.0000
  H   H21       1.0  0.1564  0.8369000000000001  0.24530000000000005  1.0000
  H   H22       1.0  0.9737  0.03559999999999997  0.2431  1.0000
  H   H23       1.0  0.0252  0.8923  0.17720000000000005  1.0000
  H   H24       1.0  0.3347  0.0865000000000001  0.5748000000000002  1.0000
  H   H25       1.0  0.71683  0.5641000000000002  0.0564  1.0000
  H   H26       1.0  0.38613  0.25379999999999997  0.8753  1.0000
  H   H27       1.0  0.48973000000000005  0.4084  0.1631  1.0000
  H   H28       1.0  0.30703  0.20750000000000005  0.9644000000000003  1.0000
  H   H29       1.0  0.35853  0.2849  0.1077  1.0000
  H   H30       1.0  0.66803  0.48829999999999996  0.9135  1.0000
  H   H31       1.0  0.050170000000000006  0.49229999999999996  0.4359  1.0000
  H   H32       1.0  0.7194700000000003  0.6215000000000003  0.7462000000000002  1.0000
  H   H33       1.0  0.82307  0.7547000000000003  0.5916000000000002  1.0000
  H   H34       1.0  0.64037  0.7569  0.7925  1.0000
  H   H35       1.0  0.69187  0.8227999999999999  0.7151  1.0000
  H   H36       1.0  0.00137  0.4252  0.5117  1.0000
  C   C1        1.0  0.806  0.18149000000000012  0.6409000000000002  1.0000
  C   C2        1.0  0.7748  0.08731000000000003  0.60051  1.0000
  C   C3        1.0  0.6585000000000002  0.9641700000000002  0.6011400000000002  1.0000
  C   C4        1.0  0.6923000000000001  0.05301000000000012  0.6434200000000002  1.0000
  C   C5        1.0  0.8268000000000001  0.03435  0.5201  1.0000
  C   C6        1.0  0.5751  0.93285  0.64708  1.0000
  C   C7        1.0  0.6376  0.10511000000000019  0.7271800000000003  1.0000
  C   C8        1.0  0.5278  0.9861  0.7279  1.0000
  C   C9        1.0  0.559  0.07230000000000016  0.7676000000000002  1.0000
  C   C10       1.0  0.796  0.9478699999999999  0.47946  1.0000
  C   C11       1.0  0.7111  0.91117  0.51585  1.0000
  C   C12       1.0  0.6716000000000001  0.8183799999999999  0.46166  1.0000
  C   C13       1.0  0.13933  0.45941000000000015  0.8185100000000002  1.0000
  C   C14       1.0  0.10813  0.5132000000000001  0.9126900000000002  1.0000
  C   C15       1.0  0.9918300000000001  0.63697  0.035830000000000015  1.0000
  C   C16       1.0  0.025630000000000007  0.59041  0.94699  1.0000
  C   C17       1.0  0.16013000000000005  0.4857500000000002  0.9656500000000002  1.0000
  C   C18       1.0  0.90843  0.71423  0.06715  1.0000
  C   C19       1.0  0.9709300000000001  0.6220700000000001  0.8948900000000002  1.0000
  C   C20       1.0  0.86113  0.7418000000000002  0.013900000000000003  1.0000
  C   C21       1.0  0.89233  0.6952999999999999  0.9277  1.0000
  C   C22       1.0  0.12933  0.53159  0.05213000000000002  1.0000
  C   C23       1.0  0.04443  0.60468  0.08883  1.0000
  C   C24       1.0  0.00493  0.6432800000000001  0.18162  1.0000
  C   C25       1.0  0.47267  0.3590999999999999  0.54059  1.0000
  C   C26       1.0  0.4414700000000001  0.3994900000000001  0.4868000000000001  1.0000
  C   C27       1.0  0.3251700000000001  0.39886000000000005  0.36303  1.0000
  C   C28       1.0  0.35897  0.35658  0.4095900000000001  1.0000
  C   C29       1.0  0.49347  0.47989999999999994  0.51425  1.0000
  C   C30       1.0  0.24177  0.35292  0.28577  1.0000
  C   C31       1.0  0.3042700000000001  0.27282  0.37793  1.0000
  C   C32       1.0  0.19447  0.2721  0.2582  1.0000
  C   C33       1.0  0.22567  0.2324000000000001  0.30470000000000014  1.0000
  C   C34       1.0  0.4626700000000001  0.52054  0.4684100000000001  1.0000
  C   C35       1.0  0.37777  0.48415  0.39532  1.0000
  C   C36       1.0  0.33827  0.53834  0.35672  1.0000
  C   C37       1.0  0.306  0.8185100000000001  0.3591000000000001  1.0000
  C   C38       1.0  0.2748  0.91269  0.3994900000000001  1.0000
  C   C39       1.0  0.1585  0.03583  0.39886  1.0000
  C   C40       1.0  0.1923  0.94699  0.35658  1.0000
  C   C41       1.0  0.3268000000000001  0.96565  0.4799000000000001  1.0000
  C   C42       1.0  0.0751  0.06715  0.35292  1.0000
  C   C43       1.0  0.1376  0.89489  0.27282  1.0000
  C   C44       1.0  0.0278  0.013899999999999996  0.2721  1.0000
  C   C45       1.0  0.059000000000000004  0.9277  0.2324  1.0000
  C   C46       1.0  0.296  0.05213000000000001  0.52054  1.0000
  C   C47       1.0  0.2111  0.08883000000000005  0.48415000000000014  1.0000
  C   C48       1.0  0.1716  0.18162  0.53834  1.0000
  C   C49       1.0  0.63933  0.54059  0.18149  1.0000
  C   C50       1.0  0.60813  0.4868  0.08731  1.0000
  C   C51       1.0  0.49183000000000004  0.36303  0.96417  1.0000
  C   C52       1.0  0.52563  0.40959  0.05301  1.0000
  C   C53       1.0  0.66013  0.51425  0.03435000000000001  1.0000
  C   C54       1.0  0.40843  0.28577  0.93285  1.0000
  C   C55       1.0  0.47093000000000007  0.37793  0.10511000000000002  1.0000
  C   C56       1.0  0.36113  0.25820000000000015  0.9861000000000002  1.0000
  C   C57       1.0  0.39233  0.3047000000000001  0.07230000000000003  1.0000
  C   C58       1.0  0.62933  0.4684100000000001  0.9478700000000002  1.0000
  C   C59       1.0  0.54443  0.39532000000000017  0.9111700000000003  1.0000
  C   C60       1.0  0.50493  0.3567200000000001  0.8183800000000002  1.0000
  C   C61       1.0  0.97267  0.6409  0.45941  1.0000
  C   C62       1.0  0.94147  0.6005100000000001  0.5132000000000002  1.0000
  C   C63       1.0  0.82517  0.60114  0.63697  1.0000
  C   C64       1.0  0.85897  0.64342  0.59041  1.0000
  C   C65       1.0  0.9934700000000001  0.5201000000000001  0.48575  1.0000
  C   C66       1.0  0.74177  0.6470800000000001  0.71423  1.0000
  C   C67       1.0  0.8042700000000002  0.72718  0.62207  1.0000
  C   C68       1.0  0.69447  0.7279000000000001  0.7418000000000002  1.0000
  C   C69       1.0  0.7256700000000003  0.7676  0.6953  1.0000
  C   C70       1.0  0.9626700000000001  0.47946  0.5315900000000002  1.0000
  C   C71       1.0  0.8777700000000003  0.51585  0.60468  1.0000
  C   C72       1.0  0.83827  0.4616600000000001  0.6432800000000002  1.0000
  O   O1        1.0  0.7334  0.21949999999999997  0.60997  1.0000
  O   O2        1.0  0.8978  0.21587000000000012  0.7008500000000002  1.0000
  O   O3        1.0  0.7475  0.77665  0.3942900000000001  1.0000
  O   O4        1.0  0.5656  0.7867000000000001  0.4825  1.0000
  O   O5        1.0  0.06673  0.39047  0.7805  1.0000
  O   O6        1.0  0.23113  0.48497999999999997  0.78413  1.0000
  O   O7        1.0  0.08083  0.61764  0.22335000000000005  1.0000
  O   O8        1.0  0.89893  0.6958  0.2133  1.0000
  O   O9        1.0  0.40007  0.39003000000000004  0.60953  1.0000
  O   O10       1.0  0.56447  0.29915  0.51502  1.0000
  O   O11       1.0  0.4141700000000001  0.60571  0.3823600000000001  1.0000
  O   O12       1.0  0.23227000000000003  0.5175  0.30420000000000014  1.0000
  O   O13       1.0  0.2334  0.7805000000000002  0.39003  1.0000
  O   O14       1.0  0.39780000000000004  0.78413  0.29915  1.0000
  O   O15       1.0  0.2475  0.22335000000000008  0.6057100000000002  1.0000
  O   O16       1.0  0.06560000000000002  0.2133  0.5175  1.0000
  O   O17       1.0  0.5667300000000002  0.60953  0.2195  1.0000
  O   O18       1.0  0.7311300000000002  0.51502  0.21587  1.0000
  O   O19       1.0  0.58083  0.38236000000000014  0.7766500000000002  1.0000
  O   O20       1.0  0.39893  0.3042  0.7867  1.0000
  O   O21       1.0  0.90007  0.60997  0.3904700000000001  1.0000
  O   O22       1.0  0.06447  0.7008500000000001  0.48498000000000013  1.0000
  O   O23       1.0  0.91417  0.3942900000000001  0.6176400000000002  1.0000
  O   O24       1.0  0.73227  0.48250000000000015  0.6958000000000002  1.0000
