data_image0
_chemical_formula_structural       Cu2Si2H20W24C24N8O60
_chemical_formula_sum              "Cu2 Si2 H20 W24 C24 N8 O60"
_cell_length_a       9.809541
_cell_length_b       13.02071454
_cell_length_c       19.27659337
_cell_angle_alpha    86.67121729999998
_cell_angle_beta     89.994742
_cell_angle_gamma    112.12635756000002

_symmetry_space_group_name_H-M    'P 1'
_symmetry_Int_Tables_number       1

loop_
  _symmetry_equiv_pos_as_xyz
  'x,y,z'

loop_
  _atom_site_type_symbol
  _atom_site_label
  _atom_site_symmetry_multiplicity
  _atom_site_fract_x
  _atom_site_fract_y
  _atom_site_fract_z
  _atom_site_occupancy
  Cu  Cu1       1.0  0.991197  0.00753094  0.00219708  1.0000
  Cu  Cu2       1.0  0.0041567  0.99871507  0.49897737  1.0000
  Si  Si1       1.0  0.41049982  0.99625223  0.2531297  1.0000
  Si  Si2       1.0  0.58393047  0.9985441300000001  0.7497711299999997  1.0000
  H   H1        1.0  0.40350847  0.35324818  0.5936978299999999  1.0000
  H   H2        1.0  0.27826394  0.19810557  0.5375838599999999  1.0000
  H   H3        1.0  0.96429308  0.36766612  0.10218086999999997  1.0000
  H   H4        1.0  0.9214898  0.20718286  0.04391684  1.0000
  H   H5        1.0  0.35057142999999996  0.49992237  0.3933951899999999  1.0000
  H   H6        1.0  0.69115645  0.60198652  0.07997166  1.0000
  H   H7        1.0  0.89445014  0.18695151  0.43362692  1.0000
  H   H8        1.0  0.09342560999999999  0.4052731  0.42869525999999997  1.0000
  H   H9        1.0  0.90794033  0.5870098  0.56364655  1.0000
  H   H10       1.0  0.06905393  0.81090656  0.9619889199999999  1.0000
  H   H11       1.0  0.70262965  0.81890984  0.07335368999999999  1.0000
  H   H12       1.0  0.03600377999999999  0.65241694  0.90732995  1.0000
  H   H13       1.0  0.11215259999999994  0.8038700099999999  0.55956734  1.0000
  H   H14       1.0  0.72798288  0.80057879  0.45988381999999994  1.0000
  H   H15       1.0  0.30162852999999995  0.41428949  0.92703549  1.0000
  H   H16       1.0  0.59773181  0.64625773  0.40171000999999995  1.0000
  H   H17       1.0  0.13354324  0.5050249  0.8959294699999999  1.0000
  H   H18       1.0  0.86699739  0.51610581  0.11373278999999999  1.0000
  H   H19       1.0  0.28119741  0.19535981  0.92922214  1.0000
  H   H20       1.0  0.65075389  0.49898554  0.60188641  1.0000
  W   W1        1.0  0.66143784  0.036897290000000006  0.11588859  1.0000
  W   W2        1.0  0.22987341999999994  0.7889218399999999  0.7589815099999998  1.0000
  W   W3        1.0  0.30342081999999987  0.7862593099999999  0.38528445  1.0000
  W   W4        1.0  0.17288247  0.01778597  0.38837788  1.0000
  W   W5        1.0  0.6676821399999999  0.9671074  0.37784277999999993  1.0000
  W   W6        1.0  0.3233467599999999  0.98349459  0.87925769  1.0000
  W   W7        1.0  0.13364331  0.0002909299999999996  0.11266279  1.0000
  W   W8        1.0  0.74025339  0.8155815100000001  0.7516425299999999  1.0000
  W   W9        1.0  0.7534454099999999  0.20660890000000004  0.25593683  1.0000
  W   W10       1.0  0.48489043  0.20624567  0.13793612999999993  1.0000
  W   W11       1.0  0.8471077199999999  0.99596719  0.6084701799999999  1.0000
  W   W12       1.0  0.44094312  0.21020634  0.7393582199999998  1.0000
  W   W13       1.0  0.8455733  0.002727150000000019  0.8911736099999998  1.0000
  W   W14       1.0  0.5361945700000001  0.7979148300000001  0.24824069999999998  1.0000
  W   W15       1.0  0.69783522  0.20979958  0.8732357599999999  1.0000
  W   W16       1.0  0.28052488  0.20458747  0.23750322999999995  1.0000
  W   W17       1.0  0.55254045  0.20120143  0.356097  1.0000
  W   W18       1.0  0.2931547299999999  0.7982414099999999  0.11940499  1.0000
  W   W19       1.0  0.4733951499999998  0.7885404099999999  0.88656289  1.0000
  W   W20       1.0  0.92366889  0.1819214  0.7483617699999999  1.0000
  W   W21       1.0  0.6876114899999999  0.20954092  0.61233621  1.0000
  W   W22       1.0  0.06386486999999999  0.81604838  0.2539684  1.0000
  W   W23       1.0  0.4909841500000001  0.7894922800000002  0.62633174  1.0000
  W   W24       1.0  0.3434498899999999  0.01599243000000001  0.6196483999999998  1.0000
  C   C1        1.0  0.77615086  0.78447057  0.05119564  1.0000
  C   C2        1.0  0.5863988999999998  0.4981267  0.55574722  1.0000
  C   C3        1.0  0.19821698999999998  0.22367677  0.51105214  1.0000
  C   C4        1.0  0.05465450000000005  0.4274778300000001  0.9984535199999998  1.0000
  C   C5        1.0  0.02356247  0.23252925  0.0143781  1.0000
  C   C6        1.0  0.8077572099999999  0.77380199  0.48535075  1.0000
  C   C7        1.0  0.10113999000000001  0.3298251300000001  0.45162178999999997  1.0000
  C   C8        1.0  0.02050250999999999  0.59023073  0.95005161  1.0000
  C   C9        1.0  0.5549807  0.58221206  0.44383213999999993  1.0000
  C   C10       1.0  0.9219741099999998  0.5118575  0.0655245  1.0000
  C   C11       1.0  0.44645319999999994  0.41688206000000005  0.55146312  1.0000
  C   C12       1.0  0.22096688  0.33866241  0.95120304  1.0000
  C   C13       1.0  0.64018175  0.58030288  0.5017557899999999  1.0000
  C   C14       1.0  0.77034673  0.6776633  0.05514468999999999  1.0000
  C   C15       1.0  0.97827333  0.42945435  0.05935425999999999  1.0000
  C   C16       1.0  0.9424747599999999  0.59145711  0.01049053  1.0000
  C   C17       1.0  0.21047560000000004  0.23076328000000002  0.9528441599999999  1.0000
  C   C18       1.0  0.9662193500000003  0.7843326200000001  0.9911175899999999  1.0000
  C   C19       1.0  0.41501399999999994  0.50064811  0.4395122  1.0000
  C   C20       1.0  0.36160805  0.41807018  0.49336954  1.0000
  C   C21       1.0  0.002426740000000025  0.77106308  0.5393885399999998  1.0000
  C   C22       1.0  0.90233595  0.66383458  0.54194834  1.0000
  C   C23       1.0  0.0035057900000000026  0.22196620999999997  0.4544280299999999  1.0000
  C   C24       1.0  0.07695081999999995  0.50803511  0.943912  1.0000
  N   N1        1.0  0.08573565  0.16546152  0.99185291  1.0000
  N   N2        1.0  0.77961873  0.66690517  0.50731598  1.0000
  N   N3        1.0  0.89115687  0.67876554  0.01690037  1.0000
  N   N4        1.0  0.9409253099999999  0.83900691  0.50457064  1.0000
  N   N5        1.0  0.22375004999999998  0.3297920599999999  0.48779704999999995  1.0000
  N   N6        1.0  0.06678043999999997  0.15673685999999995  0.49094502  1.0000
  N   N7        1.0  0.90025033  0.85011423  0.0118436  1.0000
  N   N8        1.0  0.10227598999999997  0.33865536  0.9905213999999999  1.0000
  O   O1        1.0  0.38934131  0.07168639000000003  0.31133732999999997  1.0000
  O   O2        1.0  0.50579723  0.06859317999999999  0.18682547  1.0000
  O   O3        1.0  0.74352606  0.29667539  0.33636767  1.0000
  O   O4        1.0  0.40273701  0.7189303  0.32319218  1.0000
  O   O5        1.0  0.15496648999999998  0.12114907  0.31975327  1.0000
  O   O6        1.0  0.50631678  0.13002248  0.56785546  1.0000
  O   O7        1.0  0.3298269  0.09536269000000003  0.805366  1.0000
  O   O8        1.0  0.77734824  0.10854708000000005  0.5812012199999997  1.0000
  O   O9        1.0  0.23639542999999988  0.90396689  0.69270664  1.0000
  O   O10       1.0  0.002393599999999935  0.8894741799999999  0.1759604  1.0000
  O   O11       1.0  0.59255122  0.08595916  0.40277284  1.0000
  O   O12       1.0  0.49421681  0.9234291  0.29245904999999994  1.0000
  O   O13       1.0  0.63727563  0.91123833  0.7117552099999999  1.0000
  O   O14       1.0  0.30937804  0.12921315  0.66755727  1.0000
  O   O15       1.0  0.25729022  0.92022862  0.22086459999999997  1.0000
  O   O16       1.0  0.85341536  0.8950022  0.82364627  1.0000
  O   O17       1.0  0.77602183  0.08933062999999997  0.31040062  1.0000
  O   O18       1.0  0.6798192400000003  0.8839851200000001  0.5785658199999999  1.0000
  O   O19       1.0  0.61218315  0.15134413  0.07353291999999999  1.0000
  O   O20       1.0  0.13116584000000003  0.73220268  0.17857645  1.0000
  O   O21       1.0  0.42293644  0.90344621  0.59729962  1.0000
  O   O22       1.0  0.78288882  0.018537330000000008  0.0564426  1.0000
  O   O23       1.0  0.6919846299999999  0.8573381599999998  0.32723085  1.0000
  O   O24       1.0  0.20738034  0.00599694  0.93956931  1.0000
  O   O25       1.0  0.79679227  0.13794472  0.17463452  1.0000
  O   O26       1.0  0.04146680999999996  0.90223696  0.3225681699999999  1.0000
  O   O27       1.0  0.8749485199999997  0.8894174599999999  0.67401877  1.0000
  O   O28       1.0  0.3203262499999999  0.10814406  0.0881849  1.0000
  O   O29       1.0  0.22803762  0.89371846  0.41440296999999987  1.0000
  O   O30       1.0  0.13885458  0.10946229  0.17887953999999998  1.0000
  O   O31       1.0  0.20678057  0.99285118  0.55859881  1.0000
  O   O32       1.0  0.72594245  0.08380867000000002  0.78801342  1.0000
  O   O33       1.0  0.8359881499999999  0.25061774  0.67887016  1.0000
  O   O34       1.0  0.14774548999999998  0.74311876  0.32138948999999994  1.0000
  O   O35       1.0  0.32403089  0.73720898  0.69009967  1.0000
  O   O36       1.0  0.5805256199999997  0.27995703999999993  0.6667176  1.0000
  O   O37       1.0  0.5144705699999998  0.09569550999999998  0.90156798  1.0000
  O   O38       1.0  0.45748961  0.93110243  0.8066321899999999  1.0000
  O   O39       1.0  0.4748041499999999  0.9139819100000001  0.09270103  1.0000
  O   O40       1.0  0.5845473199999999  0.26219604  0.8087987999999998  1.0000
  O   O41       1.0  0.4413036699999999  0.27016263  0.3013115599999999  1.0000
  O   O42       1.0  0.9837547100000001  0.10903488000000001  0.82691684  1.0000
  O   O43       1.0  0.7895877499999999  0.11492342000000001  0.92049838  1.0000
  O   O44       1.0  0.4911228999999999  0.86132923  0.4252469199999999  1.0000
  O   O45       1.0  0.86882897  0.27417677  0.8195146899999998  1.0000
  O   O46       1.0  0.65390176  0.91414447  0.18712256  1.0000
  O   O47       1.0  0.66271641  0.89030224  0.91796906  1.0000
  O   O48       1.0  0.41401686  0.72838815  0.17674138999999994  1.0000
  O   O49       1.0  0.19610412999999993  0.8917909799999999  0.08017696  1.0000
  O   O50       1.0  0.39384966  0.30325311  0.15527628  1.0000
  O   O51       1.0  0.5961449499999999  0.7233832899999999  0.6798881  1.0000
  O   O52       1.0  0.3701375499999999  0.8683737800000002  0.9310376599999998  1.0000
  O   O53       1.0  0.2967430999999999  0.7180505600000001  0.83212159  1.0000
  O   O54       1.0  0.5822078099999999  0.74732742  0.820892  1.0000
  O   O55       1.0  0.32549434999999993  0.11878991999999997  0.42767601  1.0000
  O   O56       1.0  0.6576051  0.27449992  0.19350523999999994  1.0000
  O   O57       1.0  0.17780496999999992  0.8699439299999999  0.83010981  1.0000
  O   O58       1.0  0.9603396499999999  0.10308531  0.67673628  1.0000
  O   O59       1.0  0.79931396  0.98755457  0.44132356  1.0000
  O   O60       1.0  0.5282199  0.06784492000000002  0.6927642299999998  1.0000
