data_image0
_chemical_formula_structural       Cd4H2C18N2O16
_chemical_formula_sum              "Cd4 H2 C18 N2 O16"
_cell_length_a       8.3989
_cell_length_b       8.535
_cell_length_c       11.4883
_cell_angle_alpha    89.32500000000002
_cell_angle_beta     69.014
_cell_angle_gamma    67.269

_space_group_name_H-M_alt    "P 1"
_space_group_IT_number       1

loop_
  _space_group_symop_operation_xyz
  'x, y, z'

loop_
  _atom_site_type_symbol
  _atom_site_label
  _atom_site_symmetry_multiplicity
  _atom_site_fract_x
  _atom_site_fract_y
  _atom_site_fract_z
  _atom_site_occupancy
  Cd  Cd1       1.0  0.2363299999999999  0.80077  0.88986  1.0000
  Cd  Cd2       1.0  0.14802000000000007  0.43841999999999987  0.59229  1.0000
  Cd  Cd3       1.0  0.7636700000000001  0.19923  0.11014  1.0000
  Cd  Cd4       1.0  0.85198  0.56158  0.40771  1.0000
  H   H1        1.0  0.2856  0.1671  0.14  1.0000
  H   H2        1.0  0.7144000000000003  0.8328999999999998  0.86  1.0000
  C   C1        1.0  0.2829000000000001  0.7029999999999997  0.15180000000000002  1.0000
  C   C2        1.0  0.2798000000000001  0.5436999999999997  0.0962  1.0000
  C   C3        1.0  0.2886  0.4008  0.1579  1.0000
  C   C4        1.0  0.3113  0.3844  0.2827  1.0000
  C   C5        1.0  0.2763  0.2652999999999999  0.102  1.0000
  C   C6        1.0  0.25  0.27639999999999987  0.9889  1.0000
  C   C7        1.0  0.23369999999999996  0.12449999999999997  0.9357000000000001  1.0000
  C   C8        1.0  0.24089999999999998  0.4232999999999999  0.9337  1.0000
  C   C9        1.0  0.19979999999999998  0.4548999999999999  0.817  1.0000
  C   C10       1.0  0.7171000000000001  0.2969999999999999  0.8482  1.0000
  C   C11       1.0  0.7202  0.4563  0.9038  1.0000
  C   C12       1.0  0.7114  0.5992  0.8421  1.0000
  C   C13       1.0  0.6887  0.6156  0.7173  1.0000
  C   C14       1.0  0.7237000000000002  0.7346999999999997  0.8980000000000001  1.0000
  C   C15       1.0  0.7500000000000002  0.7235999999999998  0.0111  1.0000
  C   C16       1.0  0.7663  0.8755  0.06430000000000001  1.0000
  C   C17       1.0  0.7590999999999999  0.5767  0.06630000000000001  1.0000
  C   C18       1.0  0.8002000000000002  0.5450999999999998  0.183  1.0000
  N   N1        1.0  0.2602999999999998  0.5521  0.9857  1.0000
  N   N2        1.0  0.7397000000000001  0.4478999999999999  0.014300000000000002  1.0000
  O   O1        1.0  0.2716000000000001  0.8250999999999997  0.0883  1.0000
  O   O2        1.0  0.2916  0.7016  0.2578  1.0000
  O   O3        1.0  0.16150000000000012  0.4247999999999999  0.3812  1.0000
  O   O4        1.0  0.4712999999999999  0.3241  0.2825  1.0000
  O   O5        1.0  0.08059999999999998  0.11279999999999997  0.9819  1.0000
  O   O6        1.0  0.3778000000000001  0.00829999999999998  0.8575  1.0000
  O   O7        1.0  0.16179999999999994  0.346  0.773  1.0000
  O   O8        1.0  0.1988000000000001  0.5882  0.7714  1.0000
  O   O9        1.0  0.7284  0.17489999999999994  0.9117  1.0000
  O   O10       1.0  0.7084  0.2984  0.7422  1.0000
  O   O11       1.0  0.8384999999999999  0.5751999999999998  0.6188  1.0000
  O   O12       1.0  0.5287000000000001  0.6758999999999996  0.7175000000000001  1.0000
  O   O13       1.0  0.9194000000000002  0.8871999999999998  0.0181  1.0000
  O   O14       1.0  0.6222  0.9917  0.1425  1.0000
  O   O15       1.0  0.8382000000000002  0.6539999999999998  0.227  1.0000
  O   O16       1.0  0.8012000000000001  0.41179999999999983  0.2286  1.0000
