data_image0
_chemical_formula_structural       Y2H12C24O12
_chemical_formula_sum              "Y2 H12 C24 O12"
_cell_length_a       9.8488
_cell_length_b       10.613000000000001
_cell_length_c       12.633600000000001
_cell_angle_alpha    69.65800000000002
_cell_angle_beta     73.772
_cell_angle_gamma    62.537

_space_group_name_H-M_alt    "P 1"
_space_group_IT_number       1

loop_
  _space_group_symop_operation_xyz
  'x, y, z'

loop_
  _atom_site_type_symbol
  _atom_site_label
  _atom_site_symmetry_multiplicity
  _atom_site_fract_x
  _atom_site_fract_y
  _atom_site_fract_z
  _atom_site_occupancy
  Y   Y1        1.0  0.04888999999999996  0.78007  0.6912  1.0000
  Y   Y2        1.0  0.95111  0.21993  0.3088000000000001  1.0000
  H   H1        1.0  0.24459999999999993  0.6268000000000001  0.061300000000000014  1.0000
  H   H2        1.0  0.5781999999999998  0.4856  0.8137000000000001  1.0000
  H   H3        1.0  0.3853  0.8897  0.6706  1.0000
  H   H4        1.0  0.36349999999999993  0.134  0.3457  1.0000
  H   H5        1.0  0.6564  0.12810000000000002  0.9276  1.0000
  H   H6        1.0  0.5571999999999997  0.7965000000000001  0.9385  1.0000
  H   H7        1.0  0.7553999999999998  0.3731999999999999  0.9387000000000001  1.0000
  H   H8        1.0  0.4218  0.5144  0.18630000000000005  1.0000
  H   H9        1.0  0.6146999999999999  0.11030000000000002  0.3294  1.0000
  H   H10       1.0  0.6365000000000002  0.8660000000000001  0.6543  1.0000
  H   H11       1.0  0.3435999999999999  0.8719000000000001  0.0724  1.0000
  H   H12       1.0  0.4428  0.2035  0.0615  1.0000
  C   C1        1.0  0.3915999999999999  0.5704  0.9233000000000001  1.0000
  C   C2        1.0  0.348  0.5759  0.0356  1.0000
  C   C3        1.0  0.5455  0.4923999999999999  0.8888  1.0000
  C   C4        1.0  0.2754000000000001  0.6451  0.8409  1.0000
  C   C5        1.0  0.3508  0.013600000000000006  0.5098  1.0000
  C   C6        1.0  0.4314999999999999  0.9337  0.6024000000000002  1.0000
  C   C7        1.0  0.41840000000000005  0.08039999999999996  0.40730000000000005  1.0000
  C   C8        1.0  0.1899  0.02559999999999999  0.5191  1.0000
  C   C9        1.0  0.6308999999999999  0.9544000000000001  0.9186000000000001  1.0000
  C   C10       1.0  0.5937999999999999  0.0762  0.9566  1.0000
  C   C11       1.0  0.5348999999999998  0.8781000000000002  0.9629  1.0000
  C   C12       1.0  0.7744  0.9012  0.836  1.0000
  C   C13       1.0  0.6084  0.4296  0.0767  1.0000
  C   C14       1.0  0.6519999999999999  0.4240999999999999  0.9644000000000001  1.0000
  C   C15       1.0  0.45449999999999996  0.5076  0.1112  1.0000
  C   C16       1.0  0.7246  0.3549  0.1591  1.0000
  C   C17       1.0  0.6492  0.9864000000000002  0.4902  1.0000
  C   C18       1.0  0.5685  0.0663  0.3976  1.0000
  C   C19       1.0  0.5816000000000001  0.9196  0.5927  1.0000
  C   C20       1.0  0.8101  0.9743999999999999  0.4809000000000001  1.0000
  C   C21       1.0  0.3691  0.045600000000000016  0.0814  1.0000
  C   C22       1.0  0.4062  0.9238  0.0434  1.0000
  C   C23       1.0  0.4651  0.1219  0.0371  1.0000
  C   C24       1.0  0.2256  0.0988  0.164  1.0000
  O   O1        1.0  0.13670000000000002  0.7239  0.87249  1.0000
  O   O2        1.0  0.31629999999999997  0.6268000000000001  0.74137  1.0000
  O   O3        1.0  0.13420000000000004  0.9601000000000001  0.61183  1.0000
  O   O4        1.0  0.12189999999999995  0.10159999999999995  0.43328000000000005  1.0000
  O   O5        1.0  0.8183999999999999  0.776  0.8205100000000002  1.0000
  O   O6        1.0  0.8498  0.9795999999999998  0.7836800000000003  1.0000
  O   O7        1.0  0.8632999999999998  0.2761  0.12751  1.0000
  O   O8        1.0  0.6837  0.3732  0.25863  1.0000
  O   O9        1.0  0.8657999999999999  0.0399  0.38817000000000007  1.0000
  O   O10       1.0  0.8781  0.8984  0.56672  1.0000
  O   O11       1.0  0.18159999999999998  0.22400000000000003  0.17949000000000004  1.0000
  O   O12       1.0  0.15019999999999997  0.02040000000000001  0.21632  1.0000
