data_image0
_chemical_formula_structural       Gd2H12C24O12
_chemical_formula_sum              "Gd2 H12 C24 O12"
_cell_length_a       9.8739
_cell_length_b       10.4767
_cell_length_c       11.0735
_cell_angle_alpha    77.23
_cell_angle_beta     76.421
_cell_angle_gamma    66.166

_symmetry_space_group_name_H-M    'P 1'
_symmetry_Int_Tables_number       1

loop_
  _symmetry_equiv_pos_as_xyz
  'x,y,z'

loop_
  _atom_site_type_symbol
  _atom_site_label
  _atom_site_symmetry_multiplicity
  _atom_site_fract_x
  _atom_site_fract_y
  _atom_site_fract_z
  _atom_site_occupancy
  Gd  Gd1       1.0  0.94445  0.2275  0.82279  1.0000
  Gd  Gd2       1.0  0.05555000000000004  0.7725  0.17721000000000003  1.0000
  H   H1        1.0  0.6483  0.8607  0.1503  1.0000
  H   H2        1.0  0.5999  0.1168  0.8216  1.0000
  H   H3        1.0  0.4358000000000001  0.4145  0.7076  1.0000
  H   H4        1.0  0.7378000000000003  0.5027999999999999  0.42510000000000003  1.0000
  H   H5        1.0  0.31000000000000005  0.9215000000000001  0.506  1.0000
  H   H6        1.0  0.45499999999999996  0.1836  0.6062  1.0000
  H   H7        1.0  0.3517  0.13929999999999998  0.8497  1.0000
  H   H8        1.0  0.40009999999999996  0.8832000000000001  0.1784  1.0000
  H   H9        1.0  0.5642  0.5855  0.2924  1.0000
  H   H10       1.0  0.2621999999999999  0.49720000000000003  0.5749  1.0000
  H   H11       1.0  0.6900000000000001  0.07849999999999999  0.494  1.0000
  H   H12       1.0  0.545  0.8163999999999999  0.39380000000000004  1.0000
  C   C1        1.0  0.6484000000000001  0.9863  0.9824  1.0000
  C   C2        1.0  0.5888000000000002  0.9163  0.0901  1.0000
  C   C3        1.0  0.5597  0.06989999999999995  0.8931000000000001  1.0000
  C   C4        1.0  0.8084  0.9755000000000001  0.9661  1.0000
  C   C5        1.0  0.6070999999999998  0.44860000000000005  0.5801  1.0000
  C   C6        1.0  0.4619000000000003  0.44860000000000005  0.6241  1.0000
  C   C7        1.0  0.6422  0.5013  0.4554  1.0000
  C   C8        1.0  0.7209000000000002  0.3897  0.6654  1.0000
  C   C9        1.0  0.35730000000000006  0.0652  0.5667  1.0000
  C   C10       1.0  0.386  0.9535  0.5034  1.0000
  C   C11       1.0  0.47279999999999994  0.11  0.5632  1.0000
  C   C12       1.0  0.20669999999999997  0.1302  0.6442  1.0000
  C   C13       1.0  0.35160000000000013  0.0137  0.0176  1.0000
  C   C14       1.0  0.41120000000000007  0.08370000000000001  0.9099  1.0000
  C   C15       1.0  0.44030000000000014  0.9301  0.10690000000000001  1.0000
  C   C16       1.0  0.19160000000000002  0.024500000000000008  0.0339  1.0000
  C   C17       1.0  0.3929  0.5514  0.4199  1.0000
  C   C18       1.0  0.5381000000000001  0.5514  0.37590000000000007  1.0000
  C   C19       1.0  0.3578  0.49870000000000003  0.5446  1.0000
  C   C20       1.0  0.27909999999999996  0.6103  0.3346  1.0000
  C   C21       1.0  0.6427000000000002  0.9348  0.4333  1.0000
  C   C22       1.0  0.614  0.0465  0.4966  1.0000
  C   C23       1.0  0.5271999999999999  0.8900000000000001  0.4368000000000001  1.0000
  C   C24       1.0  0.7933000000000001  0.8698000000000002  0.3558  1.0000
  O   O1        1.0  0.8564  0.04570000000000002  0.8713  1.0000
  O   O2        1.0  0.8827  0.8971  0.0498  1.0000
  O   O3        1.0  0.8547000000000001  0.37840000000000007  0.624  1.0000
  O   O4        1.0  0.6831  0.34920000000000007  0.7797  1.0000
  O   O5        1.0  0.1723000000000001  0.24689999999999995  0.6804  1.0000
  O   O6        1.0  0.11809999999999997  0.06400000000000002  0.6763  1.0000
  O   O7        1.0  0.14359999999999998  0.9543000000000001  0.1287  1.0000
  O   O8        1.0  0.11729999999999999  0.1029  0.9502  1.0000
  O   O9        1.0  0.14530000000000007  0.6216  0.376  1.0000
  O   O10       1.0  0.3169  0.6508  0.2203  1.0000
  O   O11       1.0  0.8277000000000001  0.7531  0.3196  1.0000
  O   O12       1.0  0.8819000000000007  0.936  0.3237  1.0000
