data_image0
_chemical_formula_structural       Sm2H12C24O12
_chemical_formula_sum              "Sm2 H12 C24 O12"
_cell_length_a       9.9098
_cell_length_b       10.5314
_cell_length_c       11.0619
_cell_angle_alpha    77.711
_cell_angle_beta     76.638
_cell_angle_gamma    66.32

_space_group_name_H-M_alt    "P 1"
_space_group_IT_number       1

loop_
  _space_group_symop_operation_xyz
  'x, y, z'

loop_
  _atom_site_type_symbol
  _atom_site_label
  _atom_site_symmetry_multiplicity
  _atom_site_fract_x
  _atom_site_fract_y
  _atom_site_fract_z
  _atom_site_occupancy
  Sm  Sm1       1.0  0.94398  0.22638999999999998  0.82287  1.0000
  Sm  Sm2       1.0  0.056019999999999986  0.77361  0.17713  1.0000
  H   H1        1.0  0.6513  0.861  0.1471  1.0000
  H   H2        1.0  0.5968999999999999  0.11699999999999999  0.8225  1.0000
  H   H3        1.0  0.4382000000000002  0.41229999999999994  0.7065  1.0000
  H   H4        1.0  0.7381  0.5043  0.4265  1.0000
  H   H5        1.0  0.3136  0.9189999999999999  0.5073  1.0000
  H   H6        1.0  0.4533999999999999  0.1827  0.6078  1.0000
  H   H7        1.0  0.3487  0.139  0.8529000000000001  1.0000
  H   H8        1.0  0.4031  0.8829999999999999  0.1775  1.0000
  H   H9        1.0  0.5618000000000001  0.5877  0.2935  1.0000
  H   H10       1.0  0.26190000000000013  0.49569999999999986  0.5735  1.0000
  H   H11       1.0  0.6863999999999999  0.081  0.4927  1.0000
  H   H12       1.0  0.5466000000000001  0.8173  0.3922  1.0000
  C   C1        1.0  0.6487000000000002  0.9871999999999999  0.9818000000000001  1.0000
  C   C2        1.0  0.5910999999999997  0.9168  0.088  1.0000
  C   C3        1.0  0.5580999999999999  0.0699  0.894  1.0000
  C   C4        1.0  0.8085999999999999  0.9743999999999999  0.9648  1.0000
  C   C5        1.0  0.6058  0.4486  0.5791  1.0000
  C   C6        1.0  0.46300000000000036  0.44719999999999993  0.6234  1.0000
  C   C7        1.0  0.6431  0.5022  0.4559  1.0000
  C   C8        1.0  0.7203  0.38969999999999994  0.6648  1.0000
  C   C9        1.0  0.35839999999999994  0.0635  0.5661  1.0000
  C   C10       1.0  0.3884  0.9525  0.5038  1.0000
  C   C11       1.0  0.4716  0.10979999999999998  0.5639  1.0000
  C   C12       1.0  0.2073999999999999  0.12860000000000002  0.6443  1.0000
  C   C13       1.0  0.3513  0.012800000000000002  0.0182  1.0000
  C   C14       1.0  0.4089  0.08319999999999997  0.912  1.0000
  C   C15       1.0  0.4418999999999999  0.9301000000000001  0.106  1.0000
  C   C16       1.0  0.19139999999999993  0.0256  0.0352  1.0000
  C   C17       1.0  0.39420000000000005  0.5513999999999999  0.4209  1.0000
  C   C18       1.0  0.537  0.5528  0.37659999999999993  1.0000
  C   C19       1.0  0.3569  0.4978  0.5441  1.0000
  C   C20       1.0  0.2797  0.6103  0.3352  1.0000
  C   C21       1.0  0.6416  0.9365  0.43390000000000006  1.0000
  C   C22       1.0  0.6116  0.047499999999999994  0.4961999999999999  1.0000
  C   C23       1.0  0.5283999999999998  0.8902  0.43610000000000004  1.0000
  C   C24       1.0  0.7926  0.8714  0.3557  1.0000
  O   O1        1.0  0.8562999999999998  0.0442  0.8707  1.0000
  O   O2        1.0  0.8805  0.898  0.0484  1.0000
  O   O3        1.0  0.8530999999999999  0.3798  0.6242  1.0000
  O   O4        1.0  0.6812  0.34839999999999993  0.7798000000000002  1.0000
  O   O5        1.0  0.17289999999999997  0.2447999999999999  0.6793000000000001  1.0000
  O   O6        1.0  0.1195  0.06119999999999999  0.675  1.0000
  O   O7        1.0  0.14370000000000005  0.9558  0.1293  1.0000
  O   O8        1.0  0.11949999999999993  0.10199999999999998  0.9516000000000001  1.0000
  O   O9        1.0  0.1469  0.6202  0.3758  1.0000
  O   O10       1.0  0.3187999999999998  0.6516  0.2202  1.0000
  O   O11       1.0  0.8271  0.7552  0.3207  1.0000
  O   O12       1.0  0.8805  0.9388  0.325  1.0000
