data_image0
_chemical_formula_structural       Cu6H18C48O24
_chemical_formula_sum              "Cu6 H18 C48 O24"
_cell_length_a       13.5798
_cell_length_b       13.58535
_cell_length_c       13.59989
_cell_angle_alpha    87.44398
_cell_angle_beta     87.28062999999999
_cell_angle_gamma    87.71392

_space_group_name_H-M_alt    "P 1"
_space_group_IT_number       1

loop_
  _space_group_symop_operation_xyz
  'x, y, z'

loop_
  _atom_site_type_symbol
  _atom_site_label
  _atom_site_symmetry_multiplicity
  _atom_site_fract_x
  _atom_site_fract_y
  _atom_site_fract_z
  _atom_site_occupancy
  Cu  Cu1       1.0  0.02222  0.58369  0.01796  1.0000
  Cu  Cu2       1.0  0.01667  0.01755  0.58176  1.0000
  Cu  Cu3       1.0  0.58432  0.02203  0.018910000000000007  1.0000
  Cu  Cu4       1.0  0.41713  0.9815600000000001  0.97895  1.0000
  Cu  Cu5       1.0  0.97755  0.9782300000000003  0.41408  1.0000
  Cu  Cu6       1.0  0.98164  0.41653000000000007  0.97905  1.0000
  H   H1        1.0  0.99862  0.43257000000000007  0.66359  1.0000
  H   H2        1.0  0.66188  0.0033900000000000007  0.43273  1.0000
  H   H3        1.0  0.43593  0.66591  0.01034  1.0000
  H   H4        1.0  0.56322  0.010470000000000007  0.33363  1.0000
  H   H5        1.0  0.99385  0.33246  0.56384  1.0000
  H   H6        1.0  0.33651  0.56583  0.00772  1.0000
  H   H7        1.0  0.003619999999999993  0.56297  0.33314  1.0000
  H   H8        1.0  0.33017  0.01471  0.56247  1.0000
  H   H9        1.0  0.56756  0.33644  0.00788  1.0000
  H   H10       1.0  0.42983  0.014220000000000003  0.66249  1.0000
  H   H11       1.0  0.9999  0.66275  0.4324100000000001  1.0000
  H   H12       1.0  0.66693  0.43643  0.00961  1.0000
  H   H13       1.0  0.016449999999999982  0.7353400000000001  0.7341100000000003  1.0000
  H   H14       1.0  0.73333  0.009829999999999986  0.7356300000000002  1.0000
  H   H15       1.0  0.73901  0.7398300000000001  0.018560000000000004  1.0000
  H   H16       1.0  0.2616000000000001  0.9908200000000003  0.26047  1.0000
  H   H17       1.0  0.98233  0.2609  0.2613  1.0000
  H   H18       1.0  0.26655  0.26365  0.9809300000000002  1.0000
  C   C1        1.0  0.006179999999999988  0.54954  0.8150700000000002  1.0000
  C   C2        1.0  0.0018599999999999877  0.50905  0.6371500000000002  1.0000
  C   C3        1.0  0.00698  0.58012  0.70808  1.0000
  C   C4        1.0  0.81389  0.0006999999999999986  0.54917  1.0000
  C   C5        1.0  0.63543  0.006929999999999999  0.50916  1.0000
  C   C6        1.0  0.70677  0.00617  0.58014  1.0000
  C   C7        1.0  0.55303  0.81908  0.009800000000000001  1.0000
  C   C8        1.0  0.51265  0.64031  0.012290000000000004  1.0000
  C   C9        1.0  0.5837  0.7120400000000002  0.014250000000000004  1.0000
  C   C10       1.0  0.44948  0.9982500000000001  0.18181  1.0000
  C   C11       1.0  0.48639  0.008010000000000003  0.35933  1.0000
  C   C12       1.0  0.41641  0.0011999999999999992  0.28793  1.0000
  C   C13       1.0  0.98513  0.18094  0.4470500000000001  1.0000
  C   C14       1.0  0.99285  0.35880000000000006  0.4872800000000001  1.0000
  C   C15       1.0  0.98749  0.28783  0.4163100000000001  1.0000
  C   C16       1.0  0.18534  0.4502400000000001  0.9912600000000003  1.0000
  C   C17       1.0  0.36298  0.4896  0.00341  1.0000
  C   C18       1.0  0.29207  0.41891  0.9940300000000002  1.0000
  C   C19       1.0  0.99566  0.4468900000000001  0.18107000000000004  1.0000
  C   C20       1.0  0.9984400000000001  0.48653  0.35924  1.0000
  C   C21       1.0  0.99323  0.41588000000000014  0.28797  1.0000
  C   C22       1.0  0.18007  0.00045000000000000026  0.44626  1.0000
  C   C23       1.0  0.35722  0.010219999999999995  0.48627000000000004  1.0000
  C   C24       1.0  0.28689000000000003  0.002989999999999995  0.41515000000000013  1.0000
  C   C25       1.0  0.45223  0.18507000000000007  0.9931  1.0000
  C   C26       1.0  0.49115000000000003  0.36254  0.00376  1.0000
  C   C27       1.0  0.42065  0.2914900000000001  0.99475  1.0000
  C   C28       1.0  0.54673  0.009259999999999994  0.8149000000000002  1.0000
  C   C29       1.0  0.50681  0.013029999999999996  0.63671  1.0000
  C   C30       1.0  0.57787  0.012060000000000001  0.70805  1.0000
  C   C31       1.0  0.009629999999999991  0.8148100000000003  0.54847  1.0000
  C   C32       1.0  0.003149999999999992  0.6366000000000003  0.50888  1.0000
  C   C33       1.0  0.009109999999999995  0.70788  0.5794200000000002  1.0000
  C   C34       1.0  0.81922  0.55321  0.01113  1.0000
  C   C35       1.0  0.64073  0.5129  0.01211  1.0000
  C   C36       1.0  0.71217  0.58414  0.01462  1.0000
  C   C37       1.0  0.0010200000000000012  0.53553  0.53597  1.0000
  C   C38       1.0  0.01198999999999998  0.6800000000000003  0.6794700000000001  1.0000
  C   C39       1.0  0.53402  0.011550000000000001  0.53575  1.0000
  C   C40       1.0  0.67835  0.010149999999999996  0.68018  1.0000
  C   C41       1.0  0.53954  0.53927  0.0117  1.0000
  C   C42       1.0  0.6839200000000001  0.68423  0.016830000000000005  1.0000
  C   C43       1.0  0.45859  0.010679999999999999  0.46004  1.0000
  C   C44       1.0  0.31608  0.99724  0.31553000000000003  1.0000
  C   C45       1.0  0.99711  0.4597900000000001  0.4604300000000001  1.0000
  C   C46       1.0  0.98663  0.31601  0.31621  1.0000
  C   C47       1.0  0.4640500000000001  0.46333000000000013  0.00677  1.0000
  C   C48       1.0  0.32075  0.31918  0.98852  1.0000
  O   O1        1.0  0.024959999999999986  0.6158300000000002  0.8748100000000002  1.0000
  O   O2        1.0  0.98619  0.4598500000000001  0.83854  1.0000
  O   O3        1.0  0.87454  0.014190000000000003  0.61612  1.0000
  O   O4        1.0  0.83685  0.9830700000000001  0.45898  1.0000
  O   O5        1.0  0.6200699999999999  0.88014  0.0234  1.0000
  O   O6        1.0  0.46305  0.8414900000000002  0.9913600000000002  1.0000
  O   O7        1.0  0.3836  0.9812500000000001  0.12101000000000003  1.0000
  O   O8        1.0  0.54056  0.013359999999999997  0.15994000000000005  1.0000
  O   O9        1.0  0.969  0.12097999999999999  0.38005000000000005  1.0000
  O   O10       1.0  0.00039999999999999845  0.15758000000000003  0.53748  1.0000
  O   O11       1.0  0.12516999999999998  0.3842900000000001  0.9719600000000003  1.0000
  O   O12       1.0  0.16233  0.54035  0.00921  1.0000
  O   O13       1.0  0.97997  0.38012000000000007  0.12067  1.0000
  O   O14       1.0  0.013700000000000007  0.53706  0.15807000000000002  1.0000
  O   O15       1.0  0.12041  0.98079  0.38024  1.0000
  O   O16       1.0  0.15685000000000002  0.01818  0.53637  1.0000
  O   O17       1.0  0.38692  0.12498000000000001  0.9719300000000002  1.0000
  O   O18       1.0  0.54156  0.16224999999999998  0.013750000000000004  1.0000
  O   O19       1.0  0.61232  0.028399999999999995  0.8750900000000001  1.0000
  O   O20       1.0  0.45769  0.9865000000000003  0.8379300000000002  1.0000
  O   O21       1.0  0.028050000000000002  0.8748400000000002  0.61465  1.0000
  O   O22       1.0  0.99053  0.8379600000000003  0.45877  1.0000
  O   O23       1.0  0.8804  0.6201600000000003  0.02452  1.0000
  O   O24       1.0  0.84154  0.4629100000000001  0.9938700000000003  1.0000
