data_image0
_chemical_formula_structural       Zn16H32C160O128
_chemical_formula_sum              "Zn16 H32 C160 O128"
_cell_length_a       16.15096985
_cell_length_b       16.15160292
_cell_length_c       30.234845029999995
_cell_angle_alpha    90.0000845
_cell_angle_beta     89.99969921
_cell_angle_gamma    90.00012932000001

_symmetry_space_group_name_H-M    'P 1'
_symmetry_Int_Tables_number       1

loop_
  _symmetry_equiv_pos_as_xyz
  'x,y,z'

loop_
  _atom_site_type_symbol
  _atom_site_label
  _atom_site_symmetry_multiplicity
  _atom_site_fract_x
  _atom_site_fract_y
  _atom_site_fract_z
  _atom_site_occupancy
  Zn  Zn1       1.0  0.22012593  0.47015797  0.12500856000000002  1.0000
  Zn  Zn2       1.0  0.72014852  0.97012984  0.62500021  1.0000
  Zn  Zn3       1.0  0.2798196  0.52987492  0.6249931000000002  1.0000
  Zn  Zn4       1.0  0.7798634099999998  0.97013298  0.37500037  1.0000
  Zn  Zn5       1.0  0.72014466  0.029856149999999994  0.8749935900000002  1.0000
  Zn  Zn6       1.0  0.279839  0.47016067  0.8749880000000002  1.0000
  Zn  Zn7       1.0  0.22013091999999995  0.52988649  0.3750089300000001  1.0000
  Zn  Zn8       1.0  0.77987456  0.029858559999999992  0.12501074  1.0000
  Zn  Zn9       1.0  0.77985331  0.52984741  0.8749942500000002  1.0000
  Zn  Zn10      1.0  0.27983275  0.02984412  0.37500629000000013  1.0000
  Zn  Zn11      1.0  0.72015016  0.4701328199999999  0.37500440000000007  1.0000
  Zn  Zn12      1.0  0.22015098  0.9701483999999998  0.8749846800000002  1.0000
  Zn  Zn13      1.0  0.22018029  0.029841599999999992  0.62499075  1.0000
  Zn  Zn14      1.0  0.27985423  0.9701518199999998  0.12500879  1.0000
  Zn  Zn15      1.0  0.7201612199999998  0.52983123  0.12500631  1.0000
  Zn  Zn16      1.0  0.77985803  0.4701337  0.6250023100000002  1.0000
  H   H1        1.0  0.24999542  0.374739  0.99999394  1.0000
  H   H2        1.0  0.24999402999999998  0.06760296  0.9999916400000002  1.0000
  H   H3        1.0  0.75000139  0.87475405  0.50000496  1.0000
  H   H4        1.0  0.74999572  0.5675987  0.50000616  1.0000
  H   H5        1.0  0.25001178  0.62524642  0.4999993900000001  1.0000
  H   H6        1.0  0.24999492000000004  0.93240024  0.4999981900000001  1.0000
  H   H7        1.0  0.75001076  0.12525241  0.99999018  1.0000
  H   H8        1.0  0.75000233  0.43238744  0.9999874900000002  1.0000
  H   H9        1.0  0.87524705  0.9999892099999999  0.2500030000000001  1.0000
  H   H10       1.0  0.18240961999999994  0.9999955899999999  0.2500024000000001  1.0000
  H   H11       1.0  0.37525141  0.5000027899999998  0.7499943  1.0000
  H   H12       1.0  0.6824011  0.49999581  0.7499934500000001  1.0000
  H   H13       1.0  0.62474624  6.920000000000001e-06  0.7499979500000002  1.0000
  H   H14       1.0  0.31760045  6.7e-07  0.74999744  1.0000
  H   H15       1.0  0.12475761000000002  0.50000904  0.25000409  1.0000
  H   H16       1.0  0.81759633  0.50000431  0.25000321  1.0000
  H   H17       1.0  0.75001464  0.62525438  0.99999911  1.0000
  H   H18       1.0  0.74999664  0.9323961899999997  1.8800000000000004e-06  1.0000
  H   H19       1.0  0.24999701  0.12523905  0.4999994000000001  1.0000
  H   H20       1.0  0.25000959  0.43240106  0.49999876  1.0000
  H   H21       1.0  0.74999464  0.3747550099999999  0.50000391  1.0000
  H   H22       1.0  0.75000141  0.06759438  0.50000595  1.0000
  H   H23       1.0  0.24999495999999996  0.87474853  0.99999966  1.0000
  H   H24       1.0  0.24999545  0.56760986  0.9999973600000002  1.0000
  H   H25       1.0  0.12475435999999998  7.16e-06  0.74999943  1.0000
  H   H26       1.0  0.8175978  4.4099999999999984e-06  0.7500001200000003  1.0000
  H   H27       1.0  0.62474964  0.50001228  0.25000798  1.0000
  H   H28       1.0  0.3175843899999999  0.50000076  0.25001136  1.0000
  H   H29       1.0  0.37524302  0.99999856  0.2500059  1.0000
  H   H30       1.0  0.68240826  0.9999881099999999  0.25000515000000006  1.0000
  H   H31       1.0  0.8752427499999997  0.49999216999999996  0.74999751  1.0000
  H   H32       1.0  0.18239732  0.50000412  0.74999851  1.0000
  C   C1        1.0  0.25919558  0.26447965  0.03996485  1.0000
  C   C2        1.0  0.25912089  0.17723606  0.03996655000000002  1.0000
  C   C3        1.0  0.26944875  0.31670492  0.08043611000000003  1.0000
  C   C4        1.0  0.26239886  0.12645321  0.08147727000000003  1.0000
  C   C5        1.0  0.7592080699999998  0.7644823899999997  0.5399730500000001  1.0000
  C   C6        1.0  0.75913468  0.67725034  0.53997569  1.0000
  C   C7        1.0  0.7694612599999998  0.8167109399999998  0.58043951  1.0000
  C   C8        1.0  0.76241435  0.6264610899999998  0.5814870100000002  1.0000
  C   C9        1.0  0.24079846999999993  0.73552355  0.53996726  1.0000
  C   C10       1.0  0.24086645  0.8227530299999998  0.5399696  1.0000
  C   C11       1.0  0.23054783  0.68329703  0.58042968  1.0000
  C   C12       1.0  0.2375856  0.8735417999999998  0.58147372  1.0000
  C   C13       1.0  0.7408064799999998  0.23551923999999994  0.03996117  1.0000
  C   C14       1.0  0.74087679  0.3227593299999999  0.03996653  1.0000
  C   C15       1.0  0.73055872  0.18329591  0.08042764  1.0000
  C   C16       1.0  0.73759369  0.37353762  0.08147075000000002  1.0000
  C   C17       1.0  0.9855199999999997  0.00919923  0.2899683200000001  1.0000
  C   C18       1.0  0.07275814999999997  0.00912716  0.28997145  1.0000
  C   C19       1.0  0.93329176  0.01944579  0.33043547  1.0000
  C   C20       1.0  0.12353553999999997  0.01240787  0.3314793  1.0000
  C   C21       1.0  0.48551932  0.50920727  0.78996751  1.0000
  C   C22       1.0  0.57276028  0.50913548  0.7899716900000002  1.0000
  C   C23       1.0  0.43328782  0.51944902  0.8304315400000002  1.0000
  C   C24       1.0  0.62353801  0.5124118  0.8314747500000003  1.0000
  C   C25       1.0  0.51447689  0.9907964  0.7899698200000003  1.0000
  C   C26       1.0  0.42723485  0.9908671599999999  0.7899736500000001  1.0000
  C   C27       1.0  0.56670604  0.98055236  0.8304354700000002  1.0000
  C   C28       1.0  0.37645774  0.9875885899999998  0.8314762  1.0000
  C   C29       1.0  0.01447547  0.4907987299999999  0.28996624  1.0000
  C   C30       1.0  0.9272412  0.49087032  0.2899716700000001  1.0000
  C   C31       1.0  0.06670967  0.48055923  0.33043372  1.0000
  C   C32       1.0  0.87645975  0.48758691999999987  0.3314835500000001  1.0000
  C   C33       1.0  0.24078237999999993  0.2644764199999999  0.9600242700000002  1.0000
  C   C34       1.0  0.24085818  0.17723651  0.9600194500000002  1.0000
  C   C35       1.0  0.23053064999999995  0.31669841999999987  0.9195556700000003  1.0000
  C   C36       1.0  0.23757854  0.12645698  0.9185120600000002  1.0000
  C   C37       1.0  0.7407932399999998  0.7644800799999998  0.46003526  1.0000
  C   C38       1.0  0.74086334  0.67724803  0.4600303200000001  1.0000
  C   C39       1.0  0.73054097  0.81671261  0.4195665000000001  1.0000
  C   C40       1.0  0.73758423  0.62646007  0.4185173400000001  1.0000
  C   C41       1.0  0.25921286  0.73552461  0.4600322000000001  1.0000
  C   C42       1.0  0.25913614  0.82275417  0.4600247200000001  1.0000
  C   C43       1.0  0.26946171  0.6832982  0.41956471  1.0000
  C   C44       1.0  0.26240789  0.8735402099999998  0.41851537  1.0000
  C   C45       1.0  0.7592237199999998  0.23551476  0.9600219300000001  1.0000
  C   C46       1.0  0.75914568  0.3227534  0.96001922  1.0000
  C   C47       1.0  0.76948192  0.18329456  0.9195507100000002  1.0000
  C   C48       1.0  0.76242649  0.37353014  0.9185113000000003  1.0000
  C   C49       1.0  0.5144801  0.0092178  0.71002995  1.0000
  C   C50       1.0  0.42723658  0.00914443  0.7100266200000003  1.0000
  C   C51       1.0  0.5667052999999997  0.019457229999999992  0.6695642  1.0000
  C   C52       1.0  0.37646437  0.01242173  0.6685197400000003  1.0000
  C   C53       1.0  0.01447945  0.50922592  0.21003071000000006  1.0000
  C   C54       1.0  0.9272460599999998  0.5091546799999999  0.21002746  1.0000
  C   C55       1.0  0.06671089  0.5194697  0.16956823  1.0000
  C   C56       1.0  0.8764674999999998  0.51243317  0.16852435000000004  1.0000
  C   C57       1.0  0.98552353  0.99077509  0.21003337  1.0000
  C   C58       1.0  0.07275935  0.9908490699999999  0.21002828000000007  1.0000
  C   C59       1.0  0.93329736  0.98053033  0.16956887  1.0000
  C   C60       1.0  0.12353410999999997  0.9875713299999997  0.16852179000000006  1.0000
  C   C61       1.0  0.4855184899999999  0.49079376  0.71002813  1.0000
  C   C62       1.0  0.5727613199999998  0.49086234  0.7100252600000002  1.0000
  C   C63       1.0  0.43328893  0.4805531199999999  0.66955787  1.0000
  C   C64       1.0  0.62353546  0.4875813199999999  0.6685144500000001  1.0000
  C   C65       1.0  0.7408082  0.73552165  0.9600324200000002  1.0000
  C   C66       1.0  0.74087789  0.82276079  0.9600283300000002  1.0000
  C   C67       1.0  0.73055455  0.6832929699999998  0.91956415  1.0000
  C   C68       1.0  0.73759628  0.8735483699999997  0.9185196400000002  1.0000
  C   C69       1.0  0.24079523  0.23551383  0.4600311600000001  1.0000
  C   C70       1.0  0.24086884  0.32274693  0.4600278100000001  1.0000
  C   C71       1.0  0.23054479  0.18328023  0.41956482  1.0000
  C   C72       1.0  0.23758551999999994  0.37354327  0.41851465  1.0000
  C   C73       1.0  0.75920699  0.26447294  0.4600340100000001  1.0000
  C   C74       1.0  0.7591362  0.17724152  0.4600280200000001  1.0000
  C   C75       1.0  0.76946067  0.31670622999999987  0.41956694  1.0000
  C   C76       1.0  0.76241663  0.12645040999999996  0.41851251  1.0000
  C   C77       1.0  0.25920106999999987  0.76448155  0.96002876  1.0000
  C   C78       1.0  0.25912955999999987  0.6772412899999998  0.9600249700000002  1.0000
  C   C79       1.0  0.26945383  0.81670792  0.9195602100000002  1.0000
  C   C80       1.0  0.26240958  0.62645674  0.9185186400000003  1.0000
  C   C81       1.0  0.014483019999999996  0.99079525  0.71003316  1.0000
  C   C82       1.0  0.92723738  0.99086559  0.71002966  1.0000
  C   C83       1.0  0.06671376  0.98055261  0.66956486  1.0000
  C   C84       1.0  0.87646238  0.98758019  0.66852034  1.0000
  C   C85       1.0  0.51447006  0.49080717  0.21003563  1.0000
  C   C86       1.0  0.42723457  0.4908746599999999  0.21003228  1.0000
  C   C87       1.0  0.5667098399999998  0.48056592  0.16957441  1.0000
  C   C88       1.0  0.37644896  0.48759335999999986  0.16852506  1.0000
  C   C89       1.0  0.4855205599999999  0.009197809999999997  0.21003250000000007  1.0000
  C   C90       1.0  0.57275783  0.009127079999999997  0.21003089000000005  1.0000
  C   C91       1.0  0.43328068  0.01943759  0.16957079  1.0000
  C   C92       1.0  0.6235477899999998  0.012407629999999996  0.16852371000000005  1.0000
  C   C93       1.0  0.98551569  0.50921061  0.71003318  1.0000
  C   C94       1.0  0.07275766  0.5091414099999998  0.7100292600000002  1.0000
  C   C95       1.0  0.9332875299999998  0.5194590799999997  0.6695646900000002  1.0000
  C   C96       1.0  0.12353480999999997  0.51242476  0.66851898  1.0000
  C   C97       1.0  0.75921843  0.7355170599999997  0.039972910000000014  1.0000
  C   C98       1.0  0.75914647  0.82275868  0.03997541000000002  1.0000
  C   C99       1.0  0.7694698999999998  0.68329291  0.08044215000000003  1.0000
  C   C100      1.0  0.76242984  0.87354419  0.08148697000000003  1.0000
  C   C101      1.0  0.25920778  0.23551558  0.53996619  1.0000
  C   C102      1.0  0.259141  0.32274816  0.53997014  1.0000
  C   C103      1.0  0.26945879  0.18328331  0.58043099  1.0000
  C   C104      1.0  0.26242245  0.3735419699999999  0.58148007  1.0000
  C   C105      1.0  0.74078746  0.26447665  0.53997198  1.0000
  C   C106      1.0  0.74086205  0.17724364  0.53997503  1.0000
  C   C107      1.0  0.73053205  0.31670917  0.58043975  1.0000
  C   C108      1.0  0.73758189  0.12644921  0.5814882  1.0000
  C   C109      1.0  0.24077692  0.7644809099999997  0.03996846000000001  1.0000
  C   C110      1.0  0.24085233  0.67724119  0.039973250000000016  1.0000
  C   C111      1.0  0.23052235999999995  0.81670376  0.08043893  1.0000
  C   C112      1.0  0.23757394999999995  0.6264664799999998  0.08148535  1.0000
  C   C113      1.0  0.48552577  0.99078709  0.28997077  1.0000
  C   C114      1.0  0.57276133  0.9908564999999999  0.2899779500000001  1.0000
  C   C115      1.0  0.43328548  0.98054933  0.33043419  1.0000
  C   C116      1.0  0.62354261  0.98757971  0.3314894800000001  1.0000
  C   C117      1.0  0.9855189999999998  0.4907779899999999  0.7899705400000002  1.0000
  C   C118      1.0  0.07275814  0.4908540099999999  0.7899752500000002  1.0000
  C   C119      1.0  0.93329061  0.4805314899999999  0.8304361300000003  1.0000
  C   C120      1.0  0.12353452  0.48757268  0.8314781100000003  1.0000
  C   C121      1.0  0.01448489  0.009229139999999997  0.7899702500000002  1.0000
  C   C122      1.0  0.9272423899999997  0.00915467  0.7899754700000002  1.0000
  C   C123      1.0  0.06671306999999997  0.019477699999999994  0.8304380700000003  1.0000
  C   C124      1.0  0.8764685999999998  0.012431719999999997  0.8314853200000002  1.0000
  C   C125      1.0  0.51447458  0.50921202  0.28997461000000013  1.0000
  C   C126      1.0  0.42723725  0.50914249  0.2899778700000001  1.0000
  C   C127      1.0  0.56671095  0.51945708  0.3304440100000001  1.0000
  C   C128      1.0  0.3764486999999999  0.5124233399999998  0.3314921400000001  1.0000
  C   C129      1.0  0.24999015  0.30723414  0.9999936200000002  1.0000
  C   C130      1.0  0.24999194  0.13488792  0.9999922700000002  1.0000
  C   C131      1.0  0.75000099  0.8072446599999997  0.50000403  1.0000
  C   C132      1.0  0.74999654  0.6348943399999998  0.50000352  1.0000
  C   C133      1.0  0.25000909  0.6927546999999997  0.50000067  1.0000
  C   C134      1.0  0.25000025  0.8651093899999998  0.4999980200000001  1.0000
  C   C135      1.0  0.75001166  0.19275808  0.9999925500000002  1.0000
  C   C136      1.0  0.75000637  0.36510595  0.99999333  1.0000
  C   C137      1.0  0.9427575599999998  0.99998634  0.25000049000000013  1.0000
  C   C138      1.0  0.11511509  0.99999076  0.24999938  1.0000
  C   C139      1.0  0.44276107999999986  0.5000022099999998  0.74999792  1.0000
  C   C140      1.0  0.61511214  0.49999931999999997  0.7499988100000002  1.0000
  C   C141      1.0  0.5572363  7.68e-06  0.7500001200000003  1.0000
  C   C142      1.0  0.38488651  4.43e-06  0.7499993500000002  1.0000
  C   C143      1.0  0.057245299999999985  0.50001101  0.24999875000000005  1.0000
  C   C144      1.0  0.88488563  0.50001034  0.24999901000000005  1.0000
  C   C145      1.0  0.75001326  0.6927613  1.09e-06  1.0000
  C   C146      1.0  0.75000716  0.8651092699999998  1.63e-06  1.0000
  C   C147      1.0  0.25  0.19274753999999994  0.4999994500000001  1.0000
  C   C148      1.0  0.25000762  0.3651058  0.49999954000000013  1.0000
  C   C149      1.0  0.74999628  0.30724188  0.50000235  1.0000
  C   C150      1.0  0.7500017  0.13488903  0.5000012  1.0000
  C   C151      1.0  0.2499912  0.80723958  0.9999996500000001  1.0000
  C   C152      1.0  0.24999145000000003  0.63489403  0.9999997400000001  1.0000
  C   C153      1.0  0.05724208  9.88e-06  0.7500006600000002  1.0000
  C   C154      1.0  0.88489  8.509999999999996e-06  0.7500022100000002  1.0000
  C   C155      1.0  0.55723672  0.50001033  0.25000319  1.0000
  C   C156      1.0  0.38487911  0.5000053299999998  0.25000388  1.0000
  C   C157      1.0  0.4427578299999999  0.99999341  0.25000289000000003  1.0000
  C   C158      1.0  0.61511397  0.9999903899999999  0.25000495  1.0000
  C   C159      1.0  0.94275584  0.4999929799999999  0.7500026200000001  1.0000
  C   C160      1.0  0.11510987999999997  0.5000005899999997  0.7500024900000002  1.0000
  O   O1        1.0  0.21270784  0.3702860999999999  0.08751249000000003  1.0000
  O   O2        1.0  0.33427408  0.31014465  0.10291905000000003  1.0000
  O   O3        1.0  0.2819104  0.04976941  0.07640611000000003  1.0000
  O   O4        1.0  0.24284926  0.15803740999999993  0.11779676  1.0000
  O   O5        1.0  0.71270576  0.87029002  0.5875225500000002  1.0000
  O   O6        1.0  0.83429327  0.8101588  0.60292192  1.0000
  O   O7        1.0  0.78192631  0.54976518  0.5764149200000003  1.0000
  O   O8        1.0  0.74287109  0.65804451  0.61780413  1.0000
  O   O9        1.0  0.28729435  0.62970613  0.58751544  1.0000
  O   O10       1.0  0.16571829  0.6898517899999997  0.60291959  1.0000
  O   O11       1.0  0.21807234  0.9502337599999998  0.5764055  1.0000
  O   O12       1.0  0.2571360799999999  0.84196123  0.6177957500000001  1.0000
  O   O13       1.0  0.78730687  0.12972151  0.08751157000000002  1.0000
  O   O14       1.0  0.66572416  0.18984835999999994  0.10291165  1.0000
  O   O15       1.0  0.71807954  0.45021973  0.07640761  1.0000
  O   O16       1.0  0.75714853  0.34194851  0.11779875000000001  1.0000
  O   O17       1.0  0.87971771  0.96268203  0.3375198000000001  1.0000
  O   O18       1.0  0.93985233  0.08426742  0.3529189500000001  1.0000
  O   O19       1.0  0.20023258  0.031920059999999986  0.32641355  1.0000
  O   O20       1.0  0.09194967  0.9928537399999999  0.36779832  1.0000
  O   O21       1.0  0.37971948  0.4626983299999999  0.83751286  1.0000
  O   O22       1.0  0.43984026  0.5842889499999998  0.85291353  1.0000
  O   O23       1.0  0.70023332  0.53192284  0.82640549  1.0000
  O   O24       1.0  0.59195347  0.4928498899999999  0.8678023200000002  1.0000
  O   O25       1.0  0.62028061  0.037301939999999985  0.8375086600000002  1.0000
  O   O26       1.0  0.56014557  0.91572401  0.8529234700000001  1.0000
  O   O27       1.0  0.29976652999999986  0.9680791299999999  0.8264040500000001  1.0000
  O   O28       1.0  0.40804064  0.007148979999999998  0.8678051  1.0000
  O   O29       1.0  0.12027891999999997  0.53732415  0.33751604  1.0000
  O   O30       1.0  0.06015119  0.41573413  0.35291739  1.0000
  O   O31       1.0  0.79976695  0.4680730499999999  0.3264142000000001  1.0000
  O   O32       1.0  0.9080474899999997  0.50713873  0.3678019600000001  1.0000
  O   O33       1.0  0.2872661299999999  0.37027739999999987  0.9124779500000002  1.0000
  O   O34       1.0  0.16570178999999993  0.3101324  0.8970711600000002  1.0000
  O   O35       1.0  0.21807023  0.04977289999999999  0.92358172  1.0000
  O   O36       1.0  0.25712638  0.15804  0.88218759  1.0000
  O   O37       1.0  0.7872998999999998  0.8702882299999998  0.41248547  1.0000
  O   O38       1.0  0.66572246  0.81016781  0.3970870300000001  1.0000
  O   O39       1.0  0.7180724399999998  0.54977095  0.42359559000000013  1.0000
  O   O40       1.0  0.7571243999999998  0.6580426299999997  0.3822053600000001  1.0000
  O   O41       1.0  0.21269998  0.62971943  0.41248593  1.0000
  O   O42       1.0  0.33428532  0.6898517199999997  0.39708042  1.0000
  O   O43       1.0  0.2819166299999999  0.9502278899999997  0.42358971  1.0000
  O   O44       1.0  0.24285771999999994  0.84195656  0.3821972  1.0000
  O   O45       1.0  0.7127252299999998  0.12973165  0.9124722300000002  1.0000
  O   O46       1.0  0.83431556  0.18984481  0.8970733200000002  1.0000
  O   O47       1.0  0.78193123  0.45021609  0.9235806600000003  1.0000
  O   O48       1.0  0.74288104  0.34193939  0.8821864800000002  1.0000
  O   O49       1.0  0.62027279  0.9626965999999998  0.66248299  1.0000
  O   O50       1.0  0.5601516599999998  0.08428336  0.64707976  1.0000
  O   O51       1.0  0.29976713  0.03192623  0.67358529  1.0000
  O   O52       1.0  0.4080451799999999  0.99286925  0.63219541  1.0000
  O   O53       1.0  0.12028119  0.46270749  0.16248179  1.0000
  O   O54       1.0  0.06015909  0.5843047799999997  0.14708548000000005  1.0000
  O   O55       1.0  0.79976852  0.53193255  0.17358524000000006  1.0000
  O   O56       1.0  0.90806989  0.4928827999999999  0.13219759  1.0000
  O   O57       1.0  0.87972509  0.0372899  0.16248158000000004  1.0000
  O   O58       1.0  0.9398625  0.91569522  0.14708533  1.0000
  O   O59       1.0  0.20023303  0.9680657899999998  0.17358536000000005  1.0000
  O   O60       1.0  0.0919359  0.007123079999999999  0.1322006  1.0000
  O   O61       1.0  0.37971734  0.53730786  0.66247574  1.0000
  O   O62       1.0  0.4398460199999999  0.41572467  0.64707377  1.0000
  O   O63       1.0  0.7002323299999997  0.46806683  0.6735895100000001  1.0000
  O   O64       1.0  0.5919576199999997  0.50713221  0.6321943500000001  1.0000
  O   O65       1.0  0.78729465  0.62971477  0.91248627  1.0000
  O   O66       1.0  0.66572519  0.68985187  0.8970819600000002  1.0000
  O   O67       1.0  0.71808226  0.95022522  0.9235946200000003  1.0000
  O   O68       1.0  0.75714714  0.8419680099999998  0.8822018  1.0000
  O   O69       1.0  0.28730103  0.12969578  0.4124832200000001  1.0000
  O   O70       1.0  0.16571701999999994  0.18982353  0.39708019  1.0000
  O   O71       1.0  0.21806516  0.4502289799999999  0.4235955300000001  1.0000
  O   O72       1.0  0.25713132  0.34196061  0.38220519  1.0000
  O   O73       1.0  0.71270683  0.37028999  0.4124895300000001  1.0000
  O   O74       1.0  0.8342753699999997  0.31015063  0.3970843800000001  1.0000
  O   O75       1.0  0.78193078  0.04976763  0.42359234  1.0000
  O   O76       1.0  0.7428764799999997  0.15802845999999995  0.38220561000000003  1.0000
  O   O77       1.0  0.21270851  0.8702814399999997  0.91247865  1.0000
  O   O78       1.0  0.33428741  0.81016143  0.8970794600000003  1.0000
  O   O79       1.0  0.28191057  0.54977693  0.9235861600000003  1.0000
  O   O80       1.0  0.24286310999999994  0.6580486  0.88219547  1.0000
  O   O81       1.0  0.12029009  0.03730494999999999  0.6624788700000003  1.0000
  O   O82       1.0  0.06016138  0.91572852  0.6470799900000003  1.0000
  O   O83       1.0  0.7997684  0.96806633  0.6735926600000002  1.0000
  O   O84       1.0  0.90804307  0.00712612  0.6322042500000002  1.0000
  O   O85       1.0  0.62029681  0.53730815  0.16248858  1.0000
  O   O86       1.0  0.56014694  0.41573138  0.14708731000000005  1.0000
  O   O87       1.0  0.29975593  0.46808126  0.17359208  1.0000
  O   O88       1.0  0.40803837  0.50714758  0.13220761  1.0000
  O   O89       1.0  0.37970154  0.96268284  0.16249021000000005  1.0000
  O   O90       1.0  0.43983161  0.08427299999999997  0.14708662  1.0000
  O   O91       1.0  0.7002417  0.03191974  0.17359134  1.0000
  O   O92       1.0  0.5919561  0.99284912  0.13220645  1.0000
  O   O93       1.0  0.87972221  0.4626908399999999  0.66248294  1.0000
  O   O94       1.0  0.93984125  0.58428316  0.64708434  1.0000
  O   O95       1.0  0.20022615  0.5319362299999998  0.6735895200000003  1.0000
  O   O96       1.0  0.09195339  0.4928769299999999  0.63220054  1.0000
  O   O97       1.0  0.7127260299999998  0.6297155199999998  0.08752466  1.0000
  O   O98       1.0  0.8343026199999998  0.68984516  0.10292197000000003  1.0000
  O   O99       1.0  0.7819494  0.95022414  0.0764141  1.0000
  O   O100      1.0  0.74288212  0.8419571199999998  0.11779983  1.0000
  O   O101      1.0  0.21270686999999994  0.12969754999999994  0.5875182700000002  1.0000
  O   O102      1.0  0.33428678  0.18983125999999995  0.60291492  1.0000
  O   O103      1.0  0.2819295  0.45023440999999986  0.5764075600000003  1.0000
  O   O104      1.0  0.24288347  0.34195949  0.61779384  1.0000
  O   O105      1.0  0.78728421  0.37029357  0.5875197  1.0000
  O   O106      1.0  0.6657113999999997  0.31015193  0.60292282  1.0000
  O   O107      1.0  0.71807587  0.04976361999999999  0.5764140000000002  1.0000
  O   O108      1.0  0.75712168  0.15803515  0.61779954  1.0000
  O   O109      1.0  0.2872755  0.8702745099999998  0.08751991000000003  1.0000
  O   O110      1.0  0.16569736999999995  0.8101532799999998  0.10291896000000003  1.0000
  O   O111      1.0  0.21806455  0.5497820099999998  0.07641478  1.0000
  O   O112      1.0  0.25711389  0.6580534699999998  0.11780077000000003  1.0000
  O   O113      1.0  0.3797051199999999  0.03730336999999999  0.33751655000000014  1.0000
  O   O114      1.0  0.43983669  0.91572753  0.35291856  1.0000
  O   O115      1.0  0.70023368  0.96806913  0.3264161000000001  1.0000
  O   O116      1.0  0.59196215  0.0071276299999999985  0.3678012800000001  1.0000
  O   O117      1.0  0.8797248299999998  0.5372873899999998  0.8375186600000002  1.0000
  O   O118      1.0  0.93984346  0.41570022  0.8529195200000003  1.0000
  O   O119      1.0  0.20022213  0.46806744  0.8264078  1.0000
  O   O120      1.0  0.09194179999999998  0.50712955  0.86780272  1.0000
  O   O121      1.0  0.12027513  0.9627137799999997  0.8375156900000003  1.0000
  O   O122      1.0  0.06016276  0.08430663999999997  0.8529180800000002  1.0000
  O   O123      1.0  0.79977483  0.03193172  0.8264094000000001  1.0000
  O   O124      1.0  0.9080570699999998  0.9928869799999999  0.86780167  1.0000
  O   O125      1.0  0.62028369  0.46269549  0.33752505000000005  1.0000
  O   O126      1.0  0.560153  0.58427961  0.35292230000000013  1.0000
  O   O127      1.0  0.29976067  0.53193559  0.32641698  1.0000
  O   O128      1.0  0.40803541  0.4928745  0.36780345  1.0000
