data_image0
_chemical_formula_structural       Mg6H36C72O24
_chemical_formula_sum              "Mg6 H36 C72 O24"
_cell_length_a       11.0942
_cell_length_b       11.094199999999999
_cell_length_c       21.044
_cell_angle_alpha    95.893
_cell_angle_beta     95.893
_cell_angle_gamma    107.215

_space_group_name_H-M_alt    "P 1"
_space_group_IT_number       1

loop_
  _space_group_symop_operation_xyz
  'x, y, z'

loop_
  _atom_site_type_symbol
  _atom_site_label
  _atom_site_symmetry_multiplicity
  _atom_site_fract_x
  _atom_site_fract_y
  _atom_site_fract_z
  _atom_site_occupancy
  Mg  Mg1       1.0  0.98216  0.49898  0.19428999999999996  1.0000
  Mg  Mg2       1.0  0.50102  0.017839999999999988  0.30571  1.0000
  Mg  Mg3       1.0  0.01784  0.50102  0.80571  1.0000
  Mg  Mg4       1.0  0.4989799999999999  0.98216  0.6942899999999999  1.0000
  Mg  Mg5       1.0  0.7526599999999999  0.24733999999999998  0.25  1.0000
  Mg  Mg6       1.0  0.24734000000000003  0.75266  0.7499999999999999  1.0000
  H   H1        1.0  0.8985999999999998  0.9796  0.1493  1.0000
  H   H2        1.0  0.012600000000000002  0.2424  0.030399999999999993  1.0000
  H   H3        1.0  0.9345999999999999  0.8242000000000002  0.078  1.0000
  H   H4        1.0  0.7198  0.6064  0.077  1.0000
  H   H5        1.0  0.4767  0.2643  0.09749999999999999  1.0000
  H   H6        1.0  0.6635  0.7249  0.9894  1.0000
  H   H7        1.0  0.005499999999999966  0.7223  0.396  1.0000
  H   H8        1.0  0.9499  0.3435  0.38919999999999993  1.0000
  H   H9        1.0  0.0314  0.7482  0.5071  1.0000
  H   H10       1.0  0.020399999999999995  0.10139999999999999  0.3507  1.0000
  H   H11       1.0  0.7575999999999999  0.9874  0.46959999999999996  1.0000
  H   H12       1.0  0.1758  0.06539999999999997  0.42199999999999993  1.0000
  H   H13       1.0  0.3936  0.2802  0.423  1.0000
  H   H14       1.0  0.7357  0.5233  0.4025  1.0000
  H   H15       1.0  0.2751  0.3365  0.5106  1.0000
  H   H16       1.0  0.27770000000000006  0.9945000000000002  0.10399999999999997  1.0000
  H   H17       1.0  0.6565  0.05009999999999999  0.1108  1.0000
  H   H18       1.0  0.25179999999999997  0.9686  0.9928999999999999  1.0000
  H   H19       1.0  0.10140000000000002  0.02040000000000002  0.8507  1.0000
  H   H20       1.0  0.9874  0.7576  0.9696  1.0000
  H   H21       1.0  0.0654  0.1758  0.922  1.0000
  H   H22       1.0  0.2802  0.39360000000000006  0.923  1.0000
  H   H23       1.0  0.5233000000000001  0.7357000000000001  0.9025  1.0000
  H   H24       1.0  0.3365  0.2751  0.0106  1.0000
  H   H25       1.0  0.9944999999999999  0.27769999999999995  0.6039999999999999  1.0000
  H   H26       1.0  0.050100000000000054  0.6565000000000002  0.6108  1.0000
  H   H27       1.0  0.9686  0.2518  0.49289999999999995  1.0000
  H   H28       1.0  0.9796  0.8986  0.6493  1.0000
  H   H29       1.0  0.2424  0.012600000000000004  0.5304  1.0000
  H   H30       1.0  0.8242  0.9346  0.578  1.0000
  H   H31       1.0  0.6064  0.7198  0.577  1.0000
  H   H32       1.0  0.2643  0.4767  0.5975  1.0000
  H   H33       1.0  0.7248999999999999  0.6635  0.4894  1.0000
  H   H34       1.0  0.7223  0.0055  0.896  1.0000
  H   H35       1.0  0.3435  0.9499  0.8891999999999999  1.0000
  H   H36       1.0  0.7482  0.0314  0.0071  1.0000
  C   C1        1.0  0.9185  0.2245  0.14108  1.0000
  C   C2        1.0  0.9504  0.127  0.09559  1.0000
  C   C3        1.0  0.9279  0.0004999999999999943  0.10978999999999998  1.0000
  C   C4        1.0  0.994  0.157  0.0391  1.0000
  C   C5        1.0  0.012400000000000017  0.06319999999999999  0.99268  1.0000
  C   C6        1.0  0.9478  0.9078  0.06716  1.0000
  C   C7        1.0  0.7063799999999999  0.4248199999999999  0.1502  1.0000
  C   C8        1.0  0.61282  0.43558  0.09528  1.0000
  C   C9        1.0  0.64199  0.53981  0.06329  1.0000
  C   C10       1.0  0.5577  0.5497  0.01002  1.0000
  C   C11       1.0  0.4971  0.3362999999999999  0.07516  1.0000
  C   C12       1.0  0.5861999999999999  0.6572  0.9762299999999999  1.0000
  C   C13       1.0  0.96214  0.51586  0.31065  1.0000
  C   C14       1.0  0.97428  0.52832  0.38242  1.0000
  C   C15       1.0  0.99995  0.65065  0.41801999999999995  1.0000
  C   C16       1.0  0.9677699999999999  0.42523000000000005  0.41356  1.0000
  C   C17       1.0  0.98757  0.43863  0.48224  1.0000
  C   C18       1.0  0.016699999999999965  0.6661  0.48373  1.0000
  C   C19       1.0  0.7755  0.08150000000000002  0.35892  1.0000
  C   C20       1.0  0.873  0.0496  0.40441  1.0000
  C   C21       1.0  0.9995  0.0721  0.39021  1.0000
  C   C22       1.0  0.843  0.006000000000000016  0.4609  1.0000
  C   C23       1.0  0.9367999999999997  0.9876  0.5073199999999999  1.0000
  C   C24       1.0  0.09219999999999999  0.0522  0.43283999999999995  1.0000
  C   C25       1.0  0.57518  0.29362  0.3498  1.0000
  C   C26       1.0  0.56442  0.38718  0.40471999999999997  1.0000
  C   C27       1.0  0.46019  0.35800999999999994  0.43671  1.0000
  C   C28       1.0  0.4503  0.4423  0.48998  1.0000
  C   C29       1.0  0.6637  0.5029  0.42484  1.0000
  C   C30       1.0  0.3428  0.4138  0.52377  1.0000
  C   C31       1.0  0.48413999999999996  0.037859999999999984  0.18934999999999996  1.0000
  C   C32       1.0  0.47168  0.025720000000000003  0.11757999999999999  1.0000
  C   C33       1.0  0.34935  4.9999999999999426e-05  0.08198  1.0000
  C   C34       1.0  0.57477  0.03223  0.08644  1.0000
  C   C35       1.0  0.56137  0.01243  0.01776  1.0000
  C   C36       1.0  0.3339  0.9833  0.01627  1.0000
  C   C37       1.0  0.0815  0.7754999999999999  0.8589199999999999  1.0000
  C   C38       1.0  0.04959999999999999  0.8730000000000001  0.9044099999999999  1.0000
  C   C39       1.0  0.07209999999999996  0.9995  0.8902099999999997  1.0000
  C   C40       1.0  0.005999999999999989  0.843  0.9609  1.0000
  C   C41       1.0  0.9876  0.9367999999999999  0.007319999999999999  1.0000
  C   C42       1.0  0.052200000000000024  0.09219999999999998  0.93284  1.0000
  C   C43       1.0  0.29362  0.57518  0.8498  1.0000
  C   C44       1.0  0.38717999999999997  0.56442  0.9047199999999999  1.0000
  C   C45       1.0  0.35801000000000005  0.46019  0.93671  1.0000
  C   C46       1.0  0.4423  0.4503  0.98998  1.0000
  C   C47       1.0  0.5029  0.6637  0.92484  1.0000
  C   C48       1.0  0.41379999999999995  0.3428  0.023769999999999996  1.0000
  C   C49       1.0  0.03785999999999995  0.4841399999999999  0.6893499999999999  1.0000
  C   C50       1.0  0.02571999999999998  0.47167999999999993  0.61758  1.0000
  C   C51       1.0  4.99999999999462e-05  0.34934999999999994  0.5819799999999999  1.0000
  C   C52       1.0  0.032229999999999974  0.57477  0.5864399999999999  1.0000
  C   C53       1.0  0.012430000000000004  0.56137  0.51776  1.0000
  C   C54       1.0  0.9832999999999998  0.3339  0.51627  1.0000
  C   C55       1.0  0.22450000000000006  0.9185  0.6410799999999999  1.0000
  C   C56       1.0  0.12699999999999997  0.9504  0.5955899999999998  1.0000
  C   C57       1.0  0.0004999999999999423  0.9279  0.60979  1.0000
  C   C58       1.0  0.157  0.994  0.5391  1.0000
  C   C59       1.0  0.06319999999999998  0.012400000000000005  0.49268  1.0000
  C   C60       1.0  0.9078  0.9478  0.56716  1.0000
  C   C61       1.0  0.42482  0.70638  0.6502  1.0000
  C   C62       1.0  0.43557999999999997  0.61282  0.5952799999999999  1.0000
  C   C63       1.0  0.53981  0.64199  0.5632899999999998  1.0000
  C   C64       1.0  0.5497  0.5577  0.51002  1.0000
  C   C65       1.0  0.33629999999999993  0.4971  0.5751599999999999  1.0000
  C   C66       1.0  0.6571999999999998  0.5862  0.47622999999999993  1.0000
  C   C67       1.0  0.5158599999999999  0.9621399999999999  0.8106499999999999  1.0000
  C   C68       1.0  0.52832  0.97428  0.88242  1.0000
  C   C69       1.0  0.65065  0.99995  0.91802  1.0000
  C   C70       1.0  0.42522999999999994  0.96777  0.91356  1.0000
  C   C71       1.0  0.43863  0.9875699999999998  0.98224  1.0000
  C   C72       1.0  0.6660999999999999  0.016699999999999954  0.9837299999999999  1.0000
  O   O1        1.0  0.95715  0.33825  0.13217  1.0000
  O   O2        1.0  0.8553299999999999  0.18121  0.18491  1.0000
  O   O3        1.0  0.81207  0.51045  0.16087  1.0000
  O   O4        1.0  0.67267  0.32995  0.17989  1.0000
  O   O5        1.0  0.005569999999999923  0.61293  0.28451  1.0000
  O   O6        1.0  0.91605  0.40633  0.27632999999999996  1.0000
  O   O7        1.0  0.66175  0.04284999999999999  0.36783  1.0000
  O   O8        1.0  0.81879  0.14467  0.31509  1.0000
  O   O9        1.0  0.48954999999999993  0.18793  0.33913  1.0000
  O   O10       1.0  0.67005  0.32733  0.32011  1.0000
  O   O11       1.0  0.38707  0.99443  0.21549  1.0000
  O   O12       1.0  0.59367  0.08395  0.22366999999999998  1.0000
  O   O13       1.0  0.04284999999999993  0.66175  0.86783  1.0000
  O   O14       1.0  0.14466999999999997  0.8187899999999999  0.81509  1.0000
  O   O15       1.0  0.18793  0.48955  0.83913  1.0000
  O   O16       1.0  0.32733  0.67005  0.8201099999999999  1.0000
  O   O17       1.0  0.99443  0.38707  0.71549  1.0000
  O   O18       1.0  0.08394999999999997  0.59367  0.7236699999999999  1.0000
  O   O19       1.0  0.3382499999999999  0.9571499999999998  0.63217  1.0000
  O   O20       1.0  0.18121  0.85533  0.68491  1.0000
  O   O21       1.0  0.51045  0.81207  0.6608699999999998  1.0000
  O   O22       1.0  0.32995  0.67267  0.67989  1.0000
  O   O23       1.0  0.61293  0.005570000000000001  0.78451  1.0000
  O   O24       1.0  0.40632999999999997  0.9160499999999999  0.7763299999999999  1.0000
