data_image0
_chemical_formula_structural       Mg6H36C72O24
_chemical_formula_sum              "Mg6 H36 C72 O24"
_cell_length_a       11.2577
_cell_length_b       11.2577
_cell_length_c       20.946
_cell_angle_alpha    95.8822
_cell_angle_beta     95.8822
_cell_angle_gamma    106.478

_symmetry_space_group_name_H-M    'P 1'
_symmetry_Int_Tables_number       1

loop_
  _symmetry_equiv_pos_as_xyz
  'x,y,z'

loop_
  _atom_site_type_symbol
  _atom_site_label
  _atom_site_symmetry_multiplicity
  _atom_site_fract_x
  _atom_site_fract_y
  _atom_site_fract_z
  _atom_site_occupancy
  Mg  Mg1       1.0  0.50708  0.02234  0.30786  1.0000
  Mg  Mg2       1.0  0.97766  0.49292  0.19214  1.0000
  Mg  Mg3       1.0  0.49292  0.97766  0.69214  1.0000
  Mg  Mg4       1.0  0.022339999999999964  0.5070799999999999  0.8078599999999999  1.0000
  Mg  Mg5       1.0  0.75239  0.24761  0.24999999999999994  1.0000
  Mg  Mg6       1.0  0.24761000000000005  0.7523900000000001  0.75  1.0000
  H   H1        1.0  0.6527  0.0473  0.1092  1.0000
  H   H2        1.0  0.2867  0.0034999999999999983  0.1054  1.0000
  H   H3        1.0  0.74  0.0228  0.004999999999999999  1.0000
  H   H4        1.0  0.7615  0.9893  0.46959999999999996  1.0000
  H   H5        1.0  0.0179  0.10490000000000001  0.3533  1.0000
  H   H6        1.0  0.829  0.9324  0.5764  1.0000
  H   H7        1.0  0.7217  0.6523  0.491  1.0000
  H   H8        1.0  0.7308  0.5154  0.4041  1.0000
  H   H9        1.0  0.3969  0.2877  0.4223  1.0000
  H   H10       1.0  0.9526999999999999  0.3473  0.3907999999999999  1.0000
  H   H11       1.0  0.9965  0.7133  0.3946  1.0000
  H   H12       1.0  0.9772000000000001  0.26  0.49499999999999994  1.0000
  H   H13       1.0  0.0107  0.2385  0.030399999999999993  1.0000
  H   H14       1.0  0.8951  0.9821  0.1467  1.0000
  H   H15       1.0  0.06759999999999995  0.17099999999999999  0.9235999999999999  1.0000
  H   H16       1.0  0.3477  0.2783  0.008999999999999998  1.0000
  H   H17       1.0  0.48460000000000003  0.2692  0.0959  1.0000
  H   H18       1.0  0.7123000000000002  0.6031  0.07769999999999999  1.0000
  H   H19       1.0  0.3473  0.9527000000000001  0.8908  1.0000
  H   H20       1.0  0.7133000000000002  0.9965  0.8945999999999998  1.0000
  H   H21       1.0  0.2599999999999999  0.9772  0.995  1.0000
  H   H22       1.0  0.2385  0.01070000000000001  0.5304  1.0000
  H   H23       1.0  0.9821  0.8951  0.6467  1.0000
  H   H24       1.0  0.171  0.0676  0.4236  1.0000
  H   H25       1.0  0.2783  0.3477  0.509  1.0000
  H   H26       1.0  0.2692  0.4846  0.5959  1.0000
  H   H27       1.0  0.6030999999999999  0.7122999999999999  0.5776999999999999  1.0000
  H   H28       1.0  0.04730000000000002  0.6527  0.6092  1.0000
  H   H29       1.0  0.003500000000000002  0.2867  0.6054  1.0000
  H   H30       1.0  0.022800000000000015  0.74  0.505  1.0000
  H   H31       1.0  0.9893  0.7615  0.9696  1.0000
  H   H32       1.0  0.1049  0.0179  0.8533  1.0000
  H   H33       1.0  0.9324  0.829  0.07639999999999998  1.0000
  H   H34       1.0  0.6522999999999999  0.7216999999999999  0.9909999999999999  1.0000
  H   H35       1.0  0.5154  0.7307999999999999  0.9040999999999999  1.0000
  H   H36       1.0  0.2877  0.3969  0.9223  1.0000
  C   C1        1.0  0.5603  0.011499999999999998  0.0179  1.0000
  C   C2        1.0  0.5738  0.0314  0.08569999999999998  1.0000
  C   C3        1.0  0.4744  0.027800000000000002  0.1177  1.0000
  C   C4        1.0  0.3547  0.006099999999999998  0.08329999999999999  1.0000
  C   C5        1.0  0.661  0.01099999999999993  0.9824999999999998  1.0000
  C   C6        1.0  0.48890000000000006  0.0419  0.1909  1.0000
  C   C7        1.0  0.9381  0.9875000000000002  0.5078  1.0000
  C   C8        1.0  0.8438000000000001  0.007799999999999995  0.46119999999999994  1.0000
  C   C9        1.0  0.8737000000000001  0.05309999999999997  0.4055999999999999  1.0000
  C   C10       1.0  0.9977000000000001  0.07529999999999999  0.3919  1.0000
  C   C11       1.0  0.9096  0.9460000000000001  0.5658  1.0000
  C   C12       1.0  0.7789  0.0851  0.3595  1.0000
  C   C13       1.0  0.6555  0.5799  0.4776  1.0000
  C   C14       1.0  0.6611  0.4971  0.4257999999999999  1.0000
  C   C15       1.0  0.5648000000000001  0.38620000000000004  0.405  1.0000
  C   C16       1.0  0.4617  0.3611  0.4362  1.0000
  C   C17       1.0  0.549  0.5553999999999999  0.5106  1.0000
  C   C18       1.0  0.5764999999999999  0.29309999999999997  0.3503999999999999  1.0000
  C   C19       1.0  0.9884999999999999  0.4397  0.4821  1.0000
  C   C20       1.0  0.9686  0.4262  0.41429999999999995  1.0000
  C   C21       1.0  0.9722  0.5256  0.3823  1.0000
  C   C22       1.0  0.9939  0.6453  0.4167  1.0000
  C   C23       1.0  0.9890000000000001  0.339  0.5175  1.0000
  C   C24       1.0  0.9581  0.5111  0.30909999999999993  1.0000
  C   C25       1.0  0.012500000000000022  0.06190000000000001  0.9922  1.0000
  C   C26       1.0  0.9922  0.1562  0.0388  1.0000
  C   C27       1.0  0.9469  0.1263  0.09439999999999998  1.0000
  C   C28       1.0  0.9247000000000001  0.0022999999999999896  0.10809999999999997  1.0000
  C   C29       1.0  0.05399999999999994  0.09039999999999992  0.9341999999999998  1.0000
  C   C30       1.0  0.9149  0.2211  0.1405  1.0000
  C   C31       1.0  0.4201  0.3445  0.0224  1.0000
  C   C32       1.0  0.5029  0.3389  0.0742  1.0000
  C   C33       1.0  0.6138  0.4352  0.095  1.0000
  C   C34       1.0  0.6389  0.5383  0.0638  1.0000
  C   C35       1.0  0.44460000000000005  0.451  0.9893999999999998  1.0000
  C   C36       1.0  0.7069  0.4235  0.1496  1.0000
  C   C37       1.0  0.4396999999999999  0.9885  0.9820999999999999  1.0000
  C   C38       1.0  0.4262  0.9686  0.9142999999999999  1.0000
  C   C39       1.0  0.5256  0.9722  0.8823  1.0000
  C   C40       1.0  0.6453000000000001  0.9939000000000002  0.9167  1.0000
  C   C41       1.0  0.339  0.9890000000000001  0.017499999999999998  1.0000
  C   C42       1.0  0.5111  0.9581  0.8090999999999999  1.0000
  C   C43       1.0  0.0619  0.012500000000000002  0.4922  1.0000
  C   C44       1.0  0.1562000000000001  0.9922  0.5388  1.0000
  C   C45       1.0  0.12630000000000002  0.9469000000000001  0.5944  1.0000
  C   C46       1.0  0.002299999999999994  0.9247  0.6081  1.0000
  C   C47       1.0  0.09039999999999995  0.054000000000000006  0.4342  1.0000
  C   C48       1.0  0.22110000000000002  0.9149000000000002  0.6405  1.0000
  C   C49       1.0  0.3445  0.4200999999999999  0.5223999999999999  1.0000
  C   C50       1.0  0.3389  0.5029  0.5742  1.0000
  C   C51       1.0  0.43520000000000003  0.6137999999999999  0.595  1.0000
  C   C52       1.0  0.5383  0.6389  0.5638  1.0000
  C   C53       1.0  0.451  0.4446  0.48939999999999995  1.0000
  C   C54       1.0  0.4235  0.7069  0.6496  1.0000
  C   C55       1.0  0.011500000000000008  0.5603  0.5178999999999999  1.0000
  C   C56       1.0  0.03140000000000001  0.5738  0.5857  1.0000
  C   C57       1.0  0.02779999999999999  0.4744  0.6177  1.0000
  C   C58       1.0  0.006100000000000022  0.3547  0.5833  1.0000
  C   C59       1.0  0.011000000000000017  0.661  0.4825  1.0000
  C   C60       1.0  0.041900000000000076  0.48890000000000006  0.6909  1.0000
  C   C61       1.0  0.9875  0.9381  0.007799999999999998  1.0000
  C   C62       1.0  0.007799999999999982  0.8438  0.9611999999999998  1.0000
  C   C63       1.0  0.053100000000000064  0.8737000000000001  0.9055999999999998  1.0000
  C   C64       1.0  0.07530000000000006  0.9977  0.8919  1.0000
  C   C65       1.0  0.946  0.9096  0.0658  1.0000
  C   C66       1.0  0.08509999999999995  0.7789  0.8594999999999998  1.0000
  C   C67       1.0  0.5799  0.6555  0.9775999999999999  1.0000
  C   C68       1.0  0.4971  0.6611  0.9258  1.0000
  C   C69       1.0  0.38620000000000004  0.5648  0.905  1.0000
  C   C70       1.0  0.3611  0.46170000000000005  0.9361999999999999  1.0000
  C   C71       1.0  0.5554  0.549  0.0106  1.0000
  C   C72       1.0  0.2931  0.5765  0.8504  1.0000
  O   O1        1.0  0.6662  0.0474  0.369  1.0000
  O   O2        1.0  0.82  0.1468  0.3159  1.0000
  O   O3        1.0  0.5964  0.0868  0.22357  1.0000
  O   O4        1.0  0.3935000000000001  0.9997000000000001  0.21757  1.0000
  O   O5        1.0  0.6686  0.326  0.32066  1.0000
  O   O6        1.0  0.4924  0.19019999999999998  0.3404  1.0000
  O   O7        1.0  0.9525999999999999  0.3338  0.13099999999999998  1.0000
  O   O8        1.0  0.8531999999999998  0.18  0.18409999999999999  1.0000
  O   O9        1.0  0.9132  0.4036  0.27643  1.0000
  O   O10       1.0  0.0002999999999999872  0.6065  0.28243  1.0000
  O   O11       1.0  0.6740000000000002  0.3314  0.17933999999999997  1.0000
  O   O12       1.0  0.8098000000000001  0.5076  0.15959999999999996  1.0000
  O   O13       1.0  0.3338  0.9526  0.631  1.0000
  O   O14       1.0  0.18000000000000002  0.8532  0.6841  1.0000
  O   O15       1.0  0.4036  0.9132  0.77643  1.0000
  O   O16       1.0  0.6065  0.00029999999999998165  0.7824299999999998  1.0000
  O   O17       1.0  0.3314  0.674  0.6793399999999999  1.0000
  O   O18       1.0  0.5076  0.8098  0.6596  1.0000
  O   O19       1.0  0.04740000000000001  0.6661999999999999  0.8689999999999999  1.0000
  O   O20       1.0  0.14680000000000007  0.8200000000000001  0.8158999999999998  1.0000
  O   O21       1.0  0.08679999999999999  0.5964  0.72357  1.0000
  O   O22       1.0  0.9997  0.39349999999999996  0.7175699999999999  1.0000
  O   O23       1.0  0.326  0.6686  0.8206599999999998  1.0000
  O   O24       1.0  0.1902  0.4924  0.8403999999999999  1.0000
