data_image0
_chemical_formula_structural       Mn6H36C72O24
_chemical_formula_sum              "Mn6 H36 C72 O24"
_cell_length_a       11.1377
_cell_length_b       11.1377
_cell_length_c       21.4035
_cell_angle_alpha    95.9848
_cell_angle_beta     95.9848
_cell_angle_gamma    107.081

_symmetry_space_group_name_H-M    'P 1'
_symmetry_Int_Tables_number       1

loop_
  _symmetry_equiv_pos_as_xyz
  'x,y,z'

loop_
  _atom_site_type_symbol
  _atom_site_label
  _atom_site_symmetry_multiplicity
  _atom_site_fract_x
  _atom_site_fract_y
  _atom_site_fract_z
  _atom_site_occupancy
  Mn  Mn1       1.0  0.49718  0.01598000000000005  0.80629  1.0000
  Mn  Mn2       1.0  0.9840200000000001  0.50282  0.69371  1.0000
  Mn  Mn3       1.0  0.50282  0.9840200000000001  0.19371  1.0000
  Mn  Mn4       1.0  0.015979999999999966  0.49718  0.30629  1.0000
  Mn  Mn5       1.0  0.7528199999999999  0.24717999999999998  0.7499999999999999  1.0000
  Mn  Mn6       1.0  0.24718000000000004  0.75282  0.25  1.0000
  H   H1        1.0  0.3931  0.2859  0.9217999999999998  1.0000
  H   H2        1.0  0.7373  0.5211  0.9072000000000001  1.0000
  H   H3        1.0  0.7259999999999999  0.6586  0.9929999999999999  1.0000
  H   H4        1.0  0.6535  0.047899999999999984  0.609  1.0000
  H   H5        1.0  0.27710000000000007  0.9903  0.601  1.0000
  H   H6        1.0  0.2537  0.9685  0.492  1.0000
  H   H7        1.0  0.012300000000000004  0.2403  0.5303  1.0000
  H   H8        1.0  0.9043000000000001  0.9805000000000001  0.6471  1.0000
  H   H9        1.0  0.9363  0.8267  0.5762  1.0000
  H   H10       1.0  0.7141  0.6069  0.5782  1.0000
  H   H11       1.0  0.4789  0.2627  0.5928  1.0000
  H   H12       1.0  0.3414  0.274  0.507  1.0000
  H   H13       1.0  0.9520999999999998  0.3465  0.891  1.0000
  H   H14       1.0  0.009699999999999992  0.7229  0.899  1.0000
  H   H15       1.0  0.0315  0.7463  0.008  1.0000
  H   H16       1.0  0.7597  0.9877000000000001  0.9696999999999999  1.0000
  H   H17       1.0  0.019500000000000062  0.09570000000000004  0.8529000000000001  1.0000
  H   H18       1.0  0.17329999999999995  0.0637  0.9238  1.0000
  H   H19       1.0  0.6069  0.7141  0.0782  1.0000
  H   H20       1.0  0.26270000000000004  0.47890000000000005  0.0928  1.0000
  H   H21       1.0  0.274  0.3414  0.007  1.0000
  H   H22       1.0  0.3465000000000001  0.9521000000000002  0.39099999999999996  1.0000
  H   H23       1.0  0.7229  0.009699999999999988  0.39899999999999997  1.0000
  H   H24       1.0  0.7463  0.03150000000000001  0.508  1.0000
  H   H25       1.0  0.9876999999999999  0.7597  0.4697  1.0000
  H   H26       1.0  0.09569999999999998  0.01949999999999998  0.3529  1.0000
  H   H27       1.0  0.06369999999999996  0.17329999999999998  0.42379999999999995  1.0000
  H   H28       1.0  0.28590000000000004  0.39310000000000006  0.4218  1.0000
  H   H29       1.0  0.5211  0.7373  0.4072  1.0000
  H   H30       1.0  0.6586  0.726  0.493  1.0000
  H   H31       1.0  0.047900000000000026  0.6535  0.109  1.0000
  H   H32       1.0  0.9902999999999998  0.2771  0.10099999999999999  1.0000
  H   H33       1.0  0.9685  0.25370000000000004  0.9920000000000001  1.0000
  H   H34       1.0  0.2403  0.012300000000000002  0.0303  1.0000
  H   H35       1.0  0.9805000000000001  0.9043000000000001  0.1471  1.0000
  H   H36       1.0  0.8267  0.9363  0.0762  1.0000
  C   C1        1.0  0.44966  0.44352  0.98939  1.0000
  C   C2        1.0  0.45977999999999997  0.36112  0.93648  1.0000
  C   C3        1.0  0.56514  0.38925999999999994  0.9064399999999999  1.0000
  C   C4        1.0  0.66501  0.50179  0.9279899999999999  1.0000
  C   C5        1.0  0.6582799999999999  0.58372  0.97897  1.0000
  C   C6        1.0  0.57501  0.29799  0.8512499999999998  1.0000
  C   C7        1.0  0.56099  0.012170000000000004  0.51776  1.0000
  C   C8        1.0  0.57311  0.029970000000000004  0.58489  1.0000
  C   C9        1.0  0.46941  0.021349999999999997  0.61498  1.0000
  C   C10       1.0  0.3482  0.9968  0.57985  1.0000
  C   C11       1.0  0.33429  0.98231  0.5151  1.0000
  C   C12       1.0  0.4811500000000001  0.031670000000000004  0.68564  1.0000
  C   C13       1.0  0.01186  0.0625  0.49303  1.0000
  C   C14       1.0  0.99476  0.15624  0.53868  1.0000
  C   C15       1.0  0.95309  0.12571  0.59458  1.0000
  C   C16       1.0  0.9315400000000001  0.0010600000000000071  0.60831  1.0000
  C   C17       1.0  0.9496100000000001  0.9091900000000002  0.56595  1.0000
  C   C18       1.0  0.92325  0.22315  0.63988  1.0000
  C   C19       1.0  0.55648  0.55034  0.51061  1.0000
  C   C20       1.0  0.63888  0.54022  0.56352  1.0000
  C   C21       1.0  0.6107400000000001  0.4348600000000001  0.59356  1.0000
  C   C22       1.0  0.49821  0.33499  0.57201  1.0000
  C   C23       1.0  0.41627999999999993  0.34172  0.52103  1.0000
  C   C24       1.0  0.7020100000000001  0.42499000000000003  0.64875  1.0000
  C   C25       1.0  0.9878300000000002  0.43901  0.98224  1.0000
  C   C26       1.0  0.9700300000000002  0.4268900000000001  0.9151100000000001  1.0000
  C   C27       1.0  0.9786499999999999  0.53059  0.8850199999999999  1.0000
  C   C28       1.0  0.00320000000000004  0.6518  0.92015  1.0000
  C   C29       1.0  0.017690000000000004  0.6657100000000001  0.9849  1.0000
  C   C30       1.0  0.9683299999999999  0.51885  0.81436  1.0000
  C   C31       1.0  0.9375  0.98814  0.00697  1.0000
  C   C32       1.0  0.8437599999999998  0.005240000000000028  0.9613200000000001  1.0000
  C   C33       1.0  0.87429  0.04690999999999995  0.9054199999999999  1.0000
  C   C34       1.0  0.9989400000000002  0.06846000000000003  0.89169  1.0000
  C   C35       1.0  0.09081000000000002  0.050389999999999976  0.9340499999999999  1.0000
  C   C36       1.0  0.77685  0.07675000000000004  0.86012  1.0000
  C   C37       1.0  0.55034  0.55648  0.01061  1.0000
  C   C38       1.0  0.54022  0.63888  0.06352  1.0000
  C   C39       1.0  0.4348600000000001  0.6107400000000001  0.09356  1.0000
  C   C40       1.0  0.33499  0.49821000000000004  0.07201  1.0000
  C   C41       1.0  0.34172  0.41628000000000004  0.02103  1.0000
  C   C42       1.0  0.42499  0.70201  0.14875  1.0000
  C   C43       1.0  0.4390100000000001  0.9878300000000001  0.48224  1.0000
  C   C44       1.0  0.42689000000000005  0.97003  0.41511  1.0000
  C   C45       1.0  0.53059  0.9786500000000001  0.38502  1.0000
  C   C46       1.0  0.6518  0.0031999999999999963  0.4201500000000001  1.0000
  C   C47       1.0  0.66571  0.017690000000000036  0.4849  1.0000
  C   C48       1.0  0.51885  0.9683300000000001  0.31436  1.0000
  C   C49       1.0  0.9881399999999999  0.9375  0.50697  1.0000
  C   C50       1.0  0.005240000000000054  0.8437600000000001  0.46132  1.0000
  C   C51       1.0  0.04691000000000006  0.8742900000000001  0.40542  1.0000
  C   C52       1.0  0.06846000000000002  0.9989400000000002  0.39169  1.0000
  C   C53       1.0  0.050390000000000004  0.09081000000000003  0.43405  1.0000
  C   C54       1.0  0.07675  0.77685  0.36012  1.0000
  C   C55       1.0  0.44352  0.44966000000000006  0.48938999999999994  1.0000
  C   C56       1.0  0.36112  0.45978  0.4364799999999999  1.0000
  C   C57       1.0  0.38926  0.56514  0.40644  1.0000
  C   C58       1.0  0.50179  0.66501  0.42799  1.0000
  C   C59       1.0  0.58372  0.65828  0.47896999999999995  1.0000
  C   C60       1.0  0.29799  0.57501  0.35125  1.0000
  C   C61       1.0  0.012169999999999992  0.56099  0.01776  1.0000
  C   C62       1.0  0.029969999999999993  0.57311  0.08489  1.0000
  C   C63       1.0  0.02135000000000001  0.46941  0.11498  1.0000
  C   C64       1.0  0.9968  0.3482  0.07985  1.0000
  C   C65       1.0  0.9823100000000001  0.33429  0.0151  1.0000
  C   C66       1.0  0.031670000000000025  0.4811500000000001  0.18564  1.0000
  C   C67       1.0  0.06249999999999997  0.011859999999999996  0.99303  1.0000
  C   C68       1.0  0.15624  0.99476  0.03868  1.0000
  C   C69       1.0  0.12570999999999996  0.9530899999999999  0.09458  1.0000
  C   C70       1.0  0.0010599999999999952  0.93154  0.10831  1.0000
  C   C71       1.0  0.9091900000000002  0.94961  0.06595  1.0000
  C   C72       1.0  0.22315  0.92325  0.13988  1.0000
  O   O1        1.0  0.6688899999999999  0.33172999999999997  0.8226299999999999  1.0000
  O   O2        1.0  0.4870599999999999  0.19475999999999996  0.8386699999999999  1.0000
  O   O3        1.0  0.5905  0.07512000000000003  0.7189  1.0000
  O   O4        1.0  0.38403  0.99199  0.711  1.0000
  O   O5        1.0  0.8641500000000001  0.18247000000000005  0.68379  1.0000
  O   O6        1.0  0.9591300000000001  0.33631  0.62996  1.0000
  O   O7        1.0  0.66827  0.3311100000000001  0.67737  1.0000
  O   O8        1.0  0.80524  0.51294  0.66133  1.0000
  O   O9        1.0  0.92488  0.4095  0.7811  1.0000
  O   O10       1.0  0.008010000000000028  0.6159700000000001  0.789  1.0000
  O   O11       1.0  0.8175300000000001  0.13584999999999997  0.8162099999999999  1.0000
  O   O12       1.0  0.66369  0.04087000000000001  0.87004  1.0000
  O   O13       1.0  0.33111  0.66827  0.17737  1.0000
  O   O14       1.0  0.51294  0.80524  0.16133  1.0000
  O   O15       1.0  0.40950000000000003  0.92488  0.2811  1.0000
  O   O16       1.0  0.61597  0.00801  0.289  1.0000
  O   O17       1.0  0.13584999999999994  0.81753  0.31621  1.0000
  O   O18       1.0  0.04087000000000002  0.66369  0.37004  1.0000
  O   O19       1.0  0.3317300000000001  0.66889  0.32263  1.0000
  O   O20       1.0  0.19476000000000002  0.48706  0.33867  1.0000
  O   O21       1.0  0.07512000000000006  0.5905000000000001  0.2189  1.0000
  O   O22       1.0  0.9919900000000001  0.38403  0.211  1.0000
  O   O23       1.0  0.18247000000000002  0.86415  0.18379  1.0000
  O   O24       1.0  0.33631  0.95913  0.12996  1.0000
