data_image0
_chemical_formula_structural       Mn6H36C72O24
_chemical_formula_sum              "Mn6 H36 C72 O24"
_cell_length_a       11.2232
_cell_length_b       11.2232
_cell_length_c       21.255
_cell_angle_alpha    95.80600000000001
_cell_angle_beta     95.80600000000001
_cell_angle_gamma    106.985

_symmetry_space_group_name_H-M    'P 1'
_symmetry_Int_Tables_number       1

loop_
  _symmetry_equiv_pos_as_xyz
  'x,y,z'

loop_
  _atom_site_type_symbol
  _atom_site_label
  _atom_site_symmetry_multiplicity
  _atom_site_fract_x
  _atom_site_fract_y
  _atom_site_fract_z
  _atom_site_occupancy
  Mn  Mn1       1.0  0.00035999999999998734  0.48284  0.19209999999999997  1.0000
  Mn  Mn2       1.0  0.51716  0.99964  0.3079  1.0000
  Mn  Mn3       1.0  0.9996399999999998  0.51716  0.8078999999999998  1.0000
  Mn  Mn4       1.0  0.4828399999999999  0.00035999999999998045  0.6920999999999999  1.0000
  Mn  Mn5       1.0  0.7473699999999999  0.25263  0.24999999999999994  1.0000
  Mn  Mn6       1.0  0.25263  0.74737  0.75  1.0000
  H   H1        1.0  0.7565  0.46970000000000006  0.4934  1.0000
  H   H2        1.0  0.8482  0.45220000000000005  0.39099999999999996  1.0000
  H   H3        1.0  0.7674  0.9804000000000002  0.09449999999999999  1.0000
  H   H4        1.0  0.7767999999999999  0.8440000000000002  0.0092  1.0000
  H   H5        1.0  0.10509999999999999  0.2135  0.0769  1.0000
  H   H6        1.0  0.6706  0.5636  0.9225  1.0000
  H   H7        1.0  0.7374999999999998  0.5089  0.028699999999999993  1.0000
  H   H8        1.0  0.2187  0.5053  0.3976  1.0000
  H   H9        1.0  0.4826  0.4036  0.14729999999999996  1.0000
  H   H10       1.0  0.5303  0.2435  0.0066  1.0000
  H   H11       1.0  0.5478  0.1518  0.109  1.0000
  H   H12       1.0  0.019599999999999975  0.2326  0.4054999999999999  1.0000
  H   H13       1.0  0.156  0.22320000000000004  0.4907999999999999  1.0000
  H   H14       1.0  0.7864999999999998  0.8949  0.4230999999999999  1.0000
  H   H15       1.0  0.4364  0.3294  0.5775  1.0000
  H   H16       1.0  0.49109999999999987  0.26249999999999996  0.4712999999999999  1.0000
  H   H17       1.0  0.49469999999999986  0.7813  0.10239999999999998  1.0000
  H   H18       1.0  0.5964  0.5174  0.35269999999999996  1.0000
  H   H19       1.0  0.24349999999999994  0.5303  0.5066  1.0000
  H   H20       1.0  0.1518  0.5478  0.609  1.0000
  H   H21       1.0  0.2325999999999999  0.01959999999999996  0.9054999999999999  1.0000
  H   H22       1.0  0.22319999999999998  0.15600000000000003  0.9908  1.0000
  H   H23       1.0  0.8948999999999998  0.7865000000000002  0.9231  1.0000
  H   H24       1.0  0.32939999999999997  0.43640000000000007  0.0775  1.0000
  H   H25       1.0  0.2624999999999999  0.4911  0.9712999999999999  1.0000
  H   H26       1.0  0.7812999999999999  0.4947  0.6024  1.0000
  H   H27       1.0  0.5173999999999999  0.5964  0.8526999999999999  1.0000
  H   H28       1.0  0.4696999999999999  0.7565000000000001  0.9933999999999997  1.0000
  H   H29       1.0  0.45219999999999977  0.8482000000000001  0.8909999999999999  1.0000
  H   H30       1.0  0.9804000000000002  0.7674000000000001  0.5945  1.0000
  H   H31       1.0  0.8439999999999998  0.7768  0.5092  1.0000
  H   H32       1.0  0.2135  0.10510000000000003  0.5769  1.0000
  H   H33       1.0  0.5636  0.6706000000000002  0.42249999999999993  1.0000
  H   H34       1.0  0.5089  0.7375  0.5286999999999998  1.0000
  H   H35       1.0  0.5053  0.21869999999999995  0.8975999999999998  1.0000
  H   H36       1.0  0.4035999999999998  0.4826  0.6472999999999999  1.0000
  C   C1        1.0  0.9395  0.4881  0.48252  1.0000
  C   C2        1.0  0.9505  0.9445000000000001  0.9896499999999999  1.0000
  C   C3        1.0  0.016199999999999964  0.4648  0.31263  1.0000
  C   C4        1.0  0.8358  0.4836  0.5160999999999999  1.0000
  C   C5        1.0  0.9272  0.4698  0.41459  1.0000
  C   C6        1.0  0.8376  0.9994  0.0731  1.0000
  C   C7        1.0  0.028300000000000023  0.4773  0.38374  1.0000
  C   C8        1.0  0.843  0.9174  0.022399999999999996  1.0000
  C   C9        1.0  0.7229  0.4219  0.13949999999999999  1.0000
  C   C10       1.0  0.9242999999999999  0.2041  0.14809999999999998  1.0000
  C   C11       1.0  0.0399  0.1393  0.06299999999999999  1.0000
  C   C12       1.0  0.9348  0.11160000000000002  0.09377  1.0000
  C   C13       1.0  0.5897999999999999  0.5505999999999999  0.9331999999999998  1.0000
  C   C14       1.0  0.6554  0.49260000000000004  0.0378  1.0000
  C   C15       1.0  0.1495  0.5007  0.4189  1.0000
  C   C16       1.0  0.5616999999999999  0.5113  0.9924  1.0000
  C   C17       1.0  0.6263  0.45130000000000003  0.09409999999999998  1.0000
  C   C18       1.0  0.5022  0.4306  0.10859999999999997  1.0000
  C   C19       1.0  0.5118999999999999  0.0605  0.01748  1.0000
  C   C20       1.0  0.0555  0.04950000000000001  0.51035  1.0000
  C   C21       1.0  0.5352  0.9838  0.18736999999999995  1.0000
  C   C22       1.0  0.5164  0.16420000000000004  0.9838999999999999  1.0000
  C   C23       1.0  0.5301999999999999  0.0728  0.08541  1.0000
  C   C24       1.0  0.0006000000000000053  0.1624  0.4269  1.0000
  C   C25       1.0  0.5227  0.9717  0.11625999999999997  1.0000
  C   C26       1.0  0.0826  0.157  0.4776  1.0000
  C   C27       1.0  0.5781000000000001  0.2771  0.3605  1.0000
  C   C28       1.0  0.7958999999999999  0.07569999999999999  0.3519  1.0000
  C   C29       1.0  0.8606999999999998  0.9601000000000001  0.437  1.0000
  C   C30       1.0  0.8883999999999999  0.0652  0.40623  1.0000
  C   C31       1.0  0.4494  0.4102  0.5668  1.0000
  C   C32       1.0  0.5074  0.3446  0.4622  1.0000
  C   C33       1.0  0.4992999999999999  0.8505  0.08109999999999999  1.0000
  C   C34       1.0  0.4886999999999999  0.4383  0.5076  1.0000
  C   C35       1.0  0.5486999999999999  0.37370000000000003  0.4058999999999999  1.0000
  C   C36       1.0  0.5694  0.4978000000000002  0.39139999999999997  1.0000
  C   C37       1.0  0.06049999999999999  0.5119  0.51748  1.0000
  C   C38       1.0  0.0495  0.0555  0.01035  1.0000
  C   C39       1.0  0.9837999999999999  0.5352  0.68737  1.0000
  C   C40       1.0  0.1642  0.5164  0.4839  1.0000
  C   C41       1.0  0.07279999999999999  0.5302  0.5854099999999999  1.0000
  C   C42       1.0  0.16239999999999993  0.0005999999999999535  0.9268999999999998  1.0000
  C   C43       1.0  0.9717  0.5227  0.61626  1.0000
  C   C44       1.0  0.15699999999999995  0.0826  0.9775999999999999  1.0000
  C   C45       1.0  0.2771  0.5781  0.8604999999999999  1.0000
  C   C46       1.0  0.07569999999999999  0.7959  0.8518999999999999  1.0000
  C   C47       1.0  0.9601  0.8607  0.9369999999999999  1.0000
  C   C48       1.0  0.06519999999999994  0.8883999999999999  0.9062299999999999  1.0000
  C   C49       1.0  0.4102  0.4494000000000001  0.0668  1.0000
  C   C50       1.0  0.3446  0.5074  0.9622  1.0000
  C   C51       1.0  0.8505  0.4993  0.5811  1.0000
  C   C52       1.0  0.4383  0.4887  0.0076  1.0000
  C   C53       1.0  0.3736999999999999  0.5487  0.9059  1.0000
  C   C54       1.0  0.49779999999999985  0.5694  0.8913999999999999  1.0000
  C   C55       1.0  0.48810000000000003  0.9395000000000001  0.98252  1.0000
  C   C56       1.0  0.9444999999999999  0.9505  0.4896499999999999  1.0000
  C   C57       1.0  0.4648  0.016199999999999947  0.8126299999999999  1.0000
  C   C58       1.0  0.48359999999999986  0.8358000000000001  0.0161  1.0000
  C   C59       1.0  0.4698  0.9272  0.91459  1.0000
  C   C60       1.0  0.9994  0.8376000000000001  0.5731  1.0000
  C   C61       1.0  0.4773  0.02829999999999999  0.88374  1.0000
  C   C62       1.0  0.9173999999999995  0.843  0.5223999999999999  1.0000
  C   C63       1.0  0.42189999999999994  0.7229  0.6394999999999998  1.0000
  C   C64       1.0  0.2041  0.9243000000000001  0.6481  1.0000
  C   C65       1.0  0.13929999999999998  0.0399  0.563  1.0000
  C   C66       1.0  0.11159999999999999  0.9348  0.5937699999999999  1.0000
  C   C67       1.0  0.5505999999999999  0.5898000000000001  0.4331999999999999  1.0000
  C   C68       1.0  0.4925999999999999  0.6554  0.5378  1.0000
  C   C69       1.0  0.5007  0.1495  0.9189  1.0000
  C   C70       1.0  0.5113  0.5617  0.4924  1.0000
  C   C71       1.0  0.4513  0.6263  0.5941  1.0000
  C   C72       1.0  0.4305999999999998  0.5022  0.6085999999999999  1.0000
  O   O1        1.0  0.9081199999999999  0.42148  0.27969  1.0000
  O   O2        1.0  0.010499999999999983  0.3069  0.15941  1.0000
  O   O3        1.0  0.8323599999999998  0.17064  0.17776  1.0000
  O   O4        1.0  0.112  0.5052  0.28674  1.0000
  O   O5        1.0  0.8355  0.45790000000000003  0.12953  1.0000
  O   O6        1.0  0.6820999999999998  0.3605  0.18351  1.0000
  O   O7        1.0  0.57852  0.09187999999999999  0.22030999999999998  1.0000
  O   O8        1.0  0.6931  0.9895000000000003  0.34059  1.0000
  O   O9        1.0  0.82936  0.16763999999999998  0.32223999999999997  1.0000
  O   O10       1.0  0.49479999999999996  0.888  0.21325999999999998  1.0000
  O   O11       1.0  0.5421  0.16449999999999998  0.37046999999999997  1.0000
  O   O12       1.0  0.6395  0.3179  0.31649  1.0000
  O   O13       1.0  0.09187999999999998  0.57852  0.72031  1.0000
  O   O14       1.0  0.9895  0.6931  0.84059  1.0000
  O   O15       1.0  0.16764000000000004  0.82936  0.82224  1.0000
  O   O16       1.0  0.8879999999999998  0.4948000000000001  0.7132599999999999  1.0000
  O   O17       1.0  0.16449999999999995  0.5421  0.87047  1.0000
  O   O18       1.0  0.31789999999999996  0.6395  0.81649  1.0000
  O   O19       1.0  0.4214799999999999  0.90812  0.7796899999999999  1.0000
  O   O20       1.0  0.3069  0.010499999999999994  0.65941  1.0000
  O   O21       1.0  0.17063999999999996  0.8323600000000001  0.67776  1.0000
  O   O22       1.0  0.5052  0.11199999999999995  0.7867399999999999  1.0000
  O   O23       1.0  0.4578999999999999  0.8355  0.62953  1.0000
  O   O24       1.0  0.3605  0.6821  0.68351  1.0000
