data_image0
_chemical_formula_structural       Cu6H48C66O36
_chemical_formula_sum              "Cu6 H48 C66 O36"
_cell_length_a       18.797584
_cell_length_b       18.8894681
_cell_length_c       7.944318770000001
_cell_angle_alpha    90.34932851
_cell_angle_beta     89.56199342000001
_cell_angle_gamma    120.34557417

_symmetry_space_group_name_H-M    'P 1'
_symmetry_Int_Tables_number       1

loop_
  _symmetry_equiv_pos_as_xyz
  'x,y,z'

loop_
  _atom_site_type_symbol
  _atom_site_label
  _atom_site_symmetry_multiplicity
  _atom_site_fract_x
  _atom_site_fract_y
  _atom_site_fract_z
  _atom_site_occupancy
  Cu  Cu1       1.0  0.47831542  0.52454294  0.12025997  1.0000
  Cu  Cu2       1.0  0.47551819  0.95371416  0.09160692  1.0000
  Cu  Cu3       1.0  0.04198930999999992  0.52975244  0.11986156  1.0000
  Cu  Cu4       1.0  0.52502429  0.48180275  0.86666063  1.0000
  Cu  Cu5       1.0  0.9538629900000001  0.48015277  0.8683743100000002  1.0000
  Cu  Cu6       1.0  0.52201678  0.04193931  0.83872226  1.0000
  H   H1        1.0  0.37490873  0.30030953  0.40903464  1.0000
  H   H2        1.0  0.31520774  0.09597454  0.941149  1.0000
  H   H3        1.0  0.22936877000000003  0.05643801  0.79710433  1.0000
  H   H4        1.0  0.6928871  0.07240133  0.41999251  1.0000
  H   H5        1.0  0.9028557899999999  0.23391495  0.95111396  1.0000
  H   H6        1.0  0.95411756  0.18903063  0.8383622100000002  1.0000
  H   H7        1.0  0.9117959899999999  0.59764418  0.46619566  1.0000
  H   H8        1.0  0.78147718  0.65602297  0.98965835  1.0000
  H   H9        1.0  0.8316143399999999  0.7623883599999998  0.92800254  1.0000
  H   H10       1.0  0.30465865  0.38372973  0.56745437  1.0000
  H   H11       1.0  0.11441347000000002  0.37186714  0.14652115  1.0000
  H   H12       1.0  0.005975349999999985  0.30496924  0.17946583000000005  1.0000
  H   H13       1.0  0.07473550000000001  0.67900296  0.54758263  1.0000
  H   H14       1.0  0.12629963999999994  0.80529909  0.02107801  1.0000
  H   H15       1.0  0.22471840000000004  0.89701267  0.99353849  1.0000
  H   H16       1.0  0.6210607999999999  0.9232721599999998  0.53677541  1.0000
  H   H17       1.0  0.64030171  0.73797911  0.11287141  1.0000
  H   H18       1.0  0.74490496  0.81121691  0.05034849  1.0000
  H   H19       1.0  0.63741516  0.70179267  0.54886739  1.0000
  H   H20       1.0  0.69005338  0.89456161  0.01241792  1.0000
  H   H21       1.0  0.7771110499999999  0.9466273299999998  0.15325119  1.0000
  H   H22       1.0  0.31541141999999994  0.89902199  0.4970265600000001  1.0000
  H   H23       1.0  0.05576535999999997  0.83821256  0.3308384  1.0000
  H   H24       1.0  0.023059010000000026  0.75749386  0.48334469  1.0000
  H   H25       1.0  0.06189846  0.35710993  0.6020587  1.0000
  H   H26       1.0  0.1474314  0.2769858  0.07947521  1.0000
  H   H27       1.0  0.26539725999999997  0.3300613799999999  0.07435631  1.0000
  H   H28       1.0  0.68487619  0.60745411  0.4756611  1.0000
  H   H29       1.0  0.91779503  0.67204258  0.9818776  1.0000
  H   H30       1.0  0.9589140399999999  0.76354905  0.8560453600000002  1.0000
  H   H31       1.0  0.9160908  0.31292209999999987  0.43135991  1.0000
  H   H32       1.0  0.76987357  0.110599  0.93023884  1.0000
  H   H33       1.0  0.82577014  0.05836621  0.8806560500000002  1.0000
  H   H34       1.0  0.38575718  0.07543464  0.41451693  1.0000
  H   H35       1.0  0.35617713000000006  0.22913387  0.88850855  1.0000
  H   H36       1.0  0.24623009  0.18907399  0.88976569  1.0000
  H   H37       1.0  0.48425252999999996  0.24073934999999994  0.99521812  1.0000
  H   H38       1.0  0.7547055  0.23885163  0.00451886  1.0000
  H   H39       1.0  0.7505453  0.51536972  0.03989596  1.0000
  H   H40       1.0  0.23727607999999997  0.47424718  0.00110116  1.0000
  H   H41       1.0  0.24517450999999998  0.7580761  0.93050358  1.0000
  H   H42       1.0  0.5243801  0.75979933  0.95864326  1.0000
  H   H43       1.0  0.28921161  0.006472799999999998  0.81724341  1.0000
  H   H44       1.0  0.06384628999999999  0.38899162  0.3207016800000001  1.0000
  H   H45       1.0  0.7216284599999999  0.7186115699999998  0.15959795  1.0000
  H   H46       1.0  0.7085473599999998  0.9859611799999999  0.11902239  1.0000
  H   H47       1.0  0.97275221  0.73619489  0.2837730800000001  1.0000
  H   H48       1.0  0.3165903  0.29255192  0.82036806  1.0000
  C   C1        1.0  0.45310647  0.35848823  0.11269416  1.0000
  C   C2        1.0  0.43068261  0.27803264  0.19411170000000005  1.0000
  C   C3        1.0  0.39101125  0.25809207  0.34986861  1.0000
  C   C4        1.0  0.29077883  0.06514882  0.82020526  1.0000
  C   C5        1.0  0.63848012  0.08894647  0.11483489000000002  1.0000
  C   C6        1.0  0.71680037  0.14888219  0.20333565  1.0000
  C   C7        1.0  0.73560843  0.13057977  0.36030864  1.0000
  C   C8        1.0  0.89807389  0.19329001  0.84752724  1.0000
  C   C9        1.0  0.90006374  0.54307633  0.14881712  1.0000
  C   C10       1.0  0.8384481599999999  0.5569248799999997  0.24326047  1.0000
  C   C11       1.0  0.85574116  0.58789272  0.4059248400000001  1.0000
  C   C12       1.0  0.8239511  0.7021621  0.89972732  1.0000
  C   C13       1.0  0.35962023  0.45543558  0.86648485  1.0000
  C   C14       1.0  0.27587908  0.42565496  0.79441467  1.0000
  C   C15       1.0  0.2573013  0.38885493  0.63704157  1.0000
  C   C16       1.0  0.06544474999999998  0.34228856  0.24105499  1.0000
  C   C17       1.0  0.08598340000000003  0.64603817  0.8559591700000002  1.0000
  C   C18       1.0  0.14204104  0.72517055  0.7698842  1.0000
  C   C19       1.0  0.12925294000000004  0.73118275  0.6019948300000002  1.0000
  C   C20       1.0  0.19313561  0.8312161  0.0197478  1.0000
  C   C21       1.0  0.5475662399999999  0.9046639799999998  0.8366250500000002  1.0000
  C   C22       1.0  0.57260096  0.84830686  0.7565853400000002  1.0000
  C   C23       1.0  0.6110723  0.86806498  0.60017958  1.0000
  C   C24       1.0  0.70564131  0.76646678  0.14589347  1.0000
  C   C25       1.0  0.55684465  0.64307779  0.84546806  1.0000
  C   C26       1.0  0.5800751  0.72334336  0.76234734  1.0000
  C   C27       1.0  0.621196  0.74386938  0.60810375  1.0000
  C   C28       1.0  0.71326329  0.93074427  0.12861893  1.0000
  C   C29       1.0  0.35978005999999996  0.9095780799999997  0.81438452  1.0000
  C   C30       1.0  0.27785715  0.85044554  0.74152151  1.0000
  C   C31       1.0  0.26486343999999995  0.85200726  0.57200775  1.0000
  C   C32       1.0  0.031795979999999995  0.77213992  0.34844461  1.0000
  C   C33       1.0  0.08918870999999996  0.44875343  0.8771713  1.0000
  C   C34       1.0  0.14230416  0.41605893  0.80942665  1.0000
  C   C35       1.0  0.12102359999999995  0.37354037  0.6574701  1.0000
  C   C36       1.0  0.20809113  0.31987372  0.12919901000000006  1.0000
  C   C37       1.0  0.63505362  0.54710084  0.15828410000000007  1.0000
  C   C38       1.0  0.7109615200000001  0.56125642  0.24916956000000007  1.0000
  C   C39       1.0  0.7281395500000001  0.59409268  0.41099659  1.0000
  C   C40       1.0  0.9051355599999998  0.70248975  0.87941194  1.0000
  C   C41       1.0  0.8989425399999998  0.36330616  0.1249205  1.0000
  C   C42       1.0  0.84186487  0.28318773  0.20939993000000007  1.0000
  C   C43       1.0  0.86091944  0.26663934  0.3674005300000001  1.0000
  C   C44       1.0  0.81766001  0.11033518  0.85052575  1.0000
  C   C45       1.0  0.45433962  0.09221232  0.10702086  1.0000
  C   C46       1.0  0.43368676999999994  0.15055664  0.19398448  1.0000
  C   C47       1.0  0.39708251  0.13153698  0.3526891  1.0000
  C   C48       1.0  0.30481497  0.22967018  0.82603838  1.0000
  C   C49       1.0  0.37499797  0.18511082999999995  0.43182304  1.0000
  C   C50       1.0  0.45206823999999995  0.22443706  0.11582917  1.0000
  C   C51       1.0  0.3388026  0.16641733  0.59630718  1.0000
  C   C52       1.0  0.8084770199999999  0.18943247  0.44345945  1.0000
  C   C53       1.0  0.7699985699999999  0.22471649999999996  0.12686658  1.0000
  C   C54       1.0  0.82942122  0.1729982  0.60286213  1.0000
  C   C55       1.0  0.80162625  0.60819893  0.49046292  1.0000
  C   C56       1.0  0.7654045999999999  0.54209261  0.16543488  1.0000
  C   C57       1.0  0.82530746  0.64548365  0.65034481  1.0000
  C   C58       1.0  0.1781005  0.3595859  0.5661690800000002  1.0000
  C   C59       1.0  0.21796670999999992  0.4373295899999999  0.88715873  1.0000
  C   C60       1.0  0.15696563  0.32440849  0.40279614  1.0000
  C   C61       1.0  0.1882513  0.79405996  0.49048359  1.0000
  C   C62       1.0  0.21624906  0.7882897  0.86575279  1.0000
  C   C63       1.0  0.16677020000000004  0.79172778  0.31957698  1.0000
  C   C64       1.0  0.63691062  0.8165922  0.52492396  1.0000
  C   C65       1.0  0.55672906  0.77597453  0.83835125  1.0000
  C   C66       1.0  0.6743413499999997  0.8363844199999998  0.3627818  1.0000
  O   O1        1.0  0.43095745999999996  0.40359901  0.18916476  1.0000
  O   O2        1.0  0.4928652  0.37412792  0.97373387  1.0000
  O   O3        1.0  0.34713595  0.11233053  0.68595727  1.0000
  O   O4        1.0  0.58632871  0.027175849999999994  0.19963776  1.0000
  O   O5        1.0  0.63200059  0.10600122  0.96255389  1.0000
  O   O6        1.0  0.8915723300000001  0.23037538  0.6926714600000002  1.0000
  O   O7        1.0  0.96711001  0.5639605  0.22540789  1.0000
  O   O8        1.0  0.8803373999999999  0.51399927  0.00032561  1.0000
  O   O9        1.0  0.78634444  0.67760618  0.73379991  1.0000
  O   O10       1.0  0.40725355999999996  0.43635745999999986  0.78776689  1.0000
  O   O11       1.0  0.37597299000000006  0.49626549  0.00343184  1.0000
  O   O12       1.0  0.07839544999999998  0.28634125  0.34559764  1.0000
  O   O13       1.0  0.02192725000000003  0.59179184  0.7770492800000002  1.0000
  O   O14       1.0  0.10774039999999996  0.63765109  0.00356221  1.0000
  O   O15       1.0  0.22002527999999996  0.82831964  0.19098455  1.0000
  O   O16       1.0  0.5576499599999999  0.96519454  0.74828544  1.0000
  O   O17       1.0  0.5191957499999998  0.8868772799999998  0.9863096300000002  1.0000
  O   O18       1.0  0.72094406  0.8055543499999999  0.31118315  1.0000
  O   O19       1.0  0.56104679  0.58920785  0.75547392  1.0000
  O   O20       1.0  0.53424301  0.63595169  0.9992984  1.0000
  O   O21       1.0  0.6604294299999999  0.8860025299999997  0.26777972  1.0000
  O   O22       1.0  0.4105928599999999  0.97338243  0.73103433  1.0000
  O   O23       1.0  0.37197515  0.89074191  0.96211602  1.0000
  O   O24       1.0  0.08655134000000002  0.74881003  0.27156925  1.0000
  O   O25       1.0  0.030263830000000047  0.44014961  0.78427501  1.0000
  O   O26       1.0  0.10906825  0.48511653  0.02007327  1.0000
  O   O27       1.0  0.21607925  0.3362548  0.29474713  1.0000
  O   O28       1.0  0.58051716  0.5525028  0.24464307  1.0000
  O   O29       1.0  0.63294657  0.53191206  0.00121397  1.0000
  O   O30       1.0  0.891615  0.65362523  0.72847866  1.0000
  O   O31       1.0  0.9578897199999998  0.41703379  0.21322488  1.0000
  O   O32       1.0  0.8836241599999999  0.3692042799999999  0.97113041  1.0000
  O   O33       1.0  0.78885151  0.09966923  0.6770268400000002  1.0000
  O   O34       1.0  0.43816249  0.027790339999999993  0.18824015  1.0000
  O   O35       1.0  0.48550536  0.11245842  0.95978734  1.0000
  O   O36       1.0  0.29949485  0.2038739  0.65042083  1.0000
