data_image0
_chemical_formula_structural       Li8H96C48Cl4O24
_chemical_formula_sum              "Li8 H96 C48 Cl4 O24"
_cell_length_a       15.760312
_cell_length_b       17.234587
_cell_length_c       11.16320649
_cell_angle_alpha    90.0
_cell_angle_beta     123.95960820999998
_cell_angle_gamma    90.0

_space_group_name_H-M_alt    "P 1"
_space_group_IT_number       1

loop_
  _space_group_symop_operation_xyz
  'x, y, z'

loop_
  _atom_site_type_symbol
  _atom_site_label
  _atom_site_symmetry_multiplicity
  _atom_site_fract_x
  _atom_site_fract_y
  _atom_site_fract_z
  _atom_site_occupancy
  Li  Li1       1.0  0.3348668  0.08089959  0.08047094  1.0000
  Li  Li2       1.0  0.82749784  0.56997648  0.07543583999999999  1.0000
  Li  Li3       1.0  0.6723484999999998  0.07628939  0.43258969999999997  1.0000
  Li  Li4       1.0  0.17013185999999994  0.57562572  0.41931712  1.0000
  Li  Li5       1.0  0.6702758  0.92858641  0.9287281799999999  1.0000
  Li  Li6       1.0  0.16845215  0.42038568  0.91417245  1.0000
  Li  Li7       1.0  0.3323739099999999  0.92848977  0.57300921  1.0000
  Li  Li8       1.0  0.82533926  0.4199809600000001  0.57360643  1.0000
  H   H1        1.0  0.1531281  0.07455104000000001  0.096395  1.0000
  H   H2        1.0  0.13341265  0.97378182  0.11337352999999999  1.0000
  H   H3        1.0  0.26055974  0.88199516  0.1447618  1.0000
  H   H4        1.0  0.3701939399999999  0.9191795200000002  0.15383517  1.0000
  H   H5        1.0  0.1907092699999999  0.97828671  0.8383893799999999  1.0000
  H   H6        1.0  0.29287188999999986  0.92933015  0.8435643499999999  1.0000
  H   H7        1.0  0.44045452999999996  0.008970190000000003  0.8974977899999999  1.0000
  H   H8        1.0  0.4382009899999999  0.10989313  0.93565584  1.0000
  H   H9        1.0  0.37874632  0.22186524000000002  0.24373826  1.0000
  H   H10       1.0  0.2569385999999999  0.26807497  0.17069469  1.0000
  H   H11       1.0  0.11415236  0.22442708  0.93253108  1.0000
  H   H12       1.0  0.13957127999999994  0.14818366000000002  0.84712203  1.0000
  H   H13       1.0  0.64377904  0.5650493000000002  0.09438969  1.0000
  H   H14       1.0  0.62507847  0.46422062  0.11186754  1.0000
  H   H15       1.0  0.75514227  0.3735221300000001  0.14889679999999997  1.0000
  H   H16       1.0  0.863592  0.41152989  0.15598997  1.0000
  H   H17       1.0  0.7045689899999997  0.43993106  0.86734238  1.0000
  H   H18       1.0  0.8119946599999998  0.41098329  0.86249255  1.0000
  H   H19       1.0  0.9255285299999999  0.5145086  0.8777853899999999  1.0000
  H   H20       1.0  0.8964114199999997  0.61187877  0.90056364  1.0000
  H   H21       1.0  0.8759228299999998  0.70864696  0.24389419000000004  1.0000
  H   H22       1.0  0.7499887699999999  0.74583729  0.17550997  1.0000
  H   H23       1.0  0.61345749  0.7112375600000002  0.92485129  1.0000
  H   H24       1.0  0.64855129  0.6501171700000002  0.82897849  1.0000
  H   H25       1.0  0.8491703599999998  0.06844876  0.40860234  1.0000
  H   H26       1.0  0.8645129599999998  0.96821011  0.38186332  1.0000
  H   H27       1.0  0.7364415299999996  0.87769712  0.34516872  1.0000
  H   H28       1.0  0.62955802  0.91378065  0.34497899  1.0000
  H   H29       1.0  0.80114824  0.96294992  0.6542434  1.0000
  H   H30       1.0  0.69260781  0.9306788400000001  0.65394064  1.0000
  H   H31       1.0  0.5717590099999997  0.03080863  0.62865739  1.0000
  H   H32       1.0  0.6002953299999998  0.12960518000000004  0.61142292  1.0000
  H   H33       1.0  0.6459392099999998  0.20490054  0.24740911  1.0000
  H   H34       1.0  0.76877696  0.25138241  0.33483059  1.0000
  H   H35       1.0  0.8959042399999998  0.21839868000000004  0.58702012  1.0000
  H   H36       1.0  0.8603322599999995  0.14818840000000003  0.6701025399999999  1.0000
  H   H37       1.0  0.34938659  0.56745123  0.39216713  1.0000
  H   H38       1.0  0.36580989  0.46580021  0.37666949  1.0000
  H   H39       1.0  0.23422213999999988  0.37784246000000005  0.34160026  1.0000
  H   H40       1.0  0.12507972  0.41850715  0.33032347  1.0000
  H   H41       1.0  0.31368365  0.46438520000000005  0.65105418  1.0000
  H   H42       1.0  0.2074063699999999  0.42103284  0.64368085  1.0000
  H   H43       1.0  0.07071804000000001  0.5085714300000003  0.60472371  1.0000
  H   H44       1.0  0.08388894999999996  0.6096780400000003  0.57955568  1.0000
  H   H45       1.0  0.12138513  0.71562731  0.25367317  1.0000
  H   H46       1.0  0.24534162  0.75613688  0.32028594  1.0000
  H   H47       1.0  0.38612246  0.71860087  0.56556269  1.0000
  H   H48       1.0  0.35634941  0.65229595  0.66112818  1.0000
  H   H49       1.0  0.8462625599999998  0.9309669400000001  0.90603019  1.0000
  H   H50       1.0  0.8718646199999998  0.030206260000000002  0.88959642  1.0000
  H   H51       1.0  0.75396797  0.12743213  0.86571292  1.0000
  H   H52       1.0  0.6441673199999998  0.09736286  0.86267823  1.0000
  H   H53       1.0  0.8021575899999998  0.042161360000000016  0.15449215999999996  1.0000
  H   H54       1.0  0.69808179  0.08069257000000002  0.15832934  1.0000
  H   H55       1.0  0.56627705  0.9874680700000001  0.12224818  1.0000
  H   H56       1.0  0.58244035  0.8880365300000003  0.09000909  1.0000
  H   H57       1.0  0.6286293399999998  0.79265594  0.75545835  1.0000
  H   H58       1.0  0.7550177799999997  0.75566691  0.82578171  1.0000
  H   H59       1.0  0.8901567399999998  0.79081615  0.07437238  1.0000
  H   H60       1.0  0.8550117999999998  0.85134509  0.1709175  1.0000
  H   H61       1.0  0.3535391599999999  0.43157444000000006  0.89962931  1.0000
  H   H62       1.0  0.36655492999999995  0.53309341  0.8782635099999999  1.0000
  H   H63       1.0  0.23221733999999994  0.61954652  0.8383823699999999  1.0000
  H   H64       1.0  0.12462897999999993  0.5778338100000001  0.82955766  1.0000
  H   H65       1.0  0.3097903899999999  0.53139031  0.14466046  1.0000
  H   H66       1.0  0.20243112999999993  0.57318107  0.13615855  1.0000
  H   H67       1.0  0.06924482999999998  0.48446287000000005  0.10252882999999999  1.0000
  H   H68       1.0  0.08489267  0.3831717100000001  0.08228488  1.0000
  H   H69       1.0  0.1290430299999999  0.28217013  0.74196423  1.0000
  H   H70       1.0  0.25136218999999993  0.23668422000000003  0.8163078799999999  1.0000
  H   H71       1.0  0.39255127  0.27952909  0.05186732  1.0000
  H   H72       1.0  0.36868622  0.35571284  0.13877038  1.0000
  H   H73       1.0  0.15156134  0.95158987  0.58783834  1.0000
  H   H74       1.0  0.14942745999999996  0.05300293000000001  0.62115451  1.0000
  H   H75       1.0  0.2945655899999999  0.13131139  0.67597195  1.0000
  H   H76       1.0  0.39857583999999996  0.0833205  0.6838290399999999  1.0000
  H   H77       1.0  0.19413080999999993  0.04112377  0.34547238  1.0000
  H   H78       1.0  0.3024986799999999  0.07895753  0.35171489  1.0000
  H   H79       1.0  0.43167178  0.98503561  0.38459165  1.0000
  H   H80       1.0  0.40982335  0.88468278  0.40242008  1.0000
  H   H81       1.0  0.37371899999999997  0.79241346  0.74502995  1.0000
  H   H82       1.0  0.2493900799999999  0.75221768  0.67742863  1.0000
  H   H83       1.0  0.10949349999999994  0.7899784900000001  0.43359375999999994  1.0000
  H   H84       1.0  0.13909946  0.85594751  0.33740387  1.0000
  H   H85       1.0  0.6553488999999998  0.4093812  0.61303366  1.0000
  H   H86       1.0  0.62562763  0.50713558  0.63232722  1.0000
  H   H87       1.0  0.7366421399999997  0.6092415300000003  0.6504401  1.0000
  H   H88       1.0  0.84416133  0.5834303300000002  0.64390765  1.0000
  H   H89       1.0  0.68283614  0.53021746  0.34265709  1.0000
  H   H90       1.0  0.7908447799999998  0.57129677  0.35078563  1.0000
  H   H91       1.0  0.9242203999999998  0.47881138000000006  0.3861081599999999  1.0000
  H   H92       1.0  0.9042257799999995  0.37826245  0.40482243  1.0000
  H   H93       1.0  0.85658037  0.28703787  0.74534996  1.0000
  H   H94       1.0  0.73375754  0.24015512  0.65720994  1.0000
  H   H95       1.0  0.60650354  0.27396857  0.40486522  1.0000
  H   H96       1.0  0.64349419  0.34412002  0.32284519999999994  1.0000
  C   C1        1.0  0.19128564999999995  0.02029542  0.15228217  1.0000
  C   C2        1.0  0.31609804  0.9302308100000001  0.18464136  1.0000
  C   C3        1.0  0.24842218999999993  0.9838194600000001  0.8128779  1.0000
  C   C4        1.0  0.3914643699999999  0.06071311  0.8679996  1.0000
  C   C5        1.0  0.30940034  0.24353586000000002  0.14458804  1.0000
  C   C6        1.0  0.17103364000000001  0.20073542000000005  0.9139771500000001  1.0000
  C   C7        1.0  0.68263418  0.5111027400000002  0.15133537  1.0000
  C   C8        1.0  0.80961847  0.4224655000000001  0.18693351  1.0000
  C   C9        1.0  0.75268435  0.4559491  0.82851342  1.0000
  C   C10       1.0  0.8631932299999999  0.55611457  0.8464954  1.0000
  C   C11       1.0  0.8056911699999998  0.7321087700000002  0.14818352  1.0000
  C   C12       1.0  0.6741061299999997  0.69812785  0.90675343  1.0000
  C   C13       1.0  0.808599  0.01570143  0.34874001  1.0000
  C   C14       1.0  0.68226524  0.9264899700000002  0.3123446  1.0000
  C   C15       1.0  0.75049098  0.97699625  0.68978338  1.0000
  C   C16       1.0  0.6335549299999997  0.07366349000000003  0.66466078  1.0000
  C   C17       1.0  0.70898357  0.23018273000000006  0.34937298  1.0000
  C   C18       1.0  0.8329105199999998  0.19735633  0.59462499  1.0000
  C   C19       1.0  0.30952123  0.51357652  0.33628871999999993  1.0000
  C   C20       1.0  0.18051337999999997  0.42731544  0.30126754999999994  1.0000
  C   C21       1.0  0.25801038  0.47237056000000005  0.67984983  1.0000
  C   C22       1.0  0.12535718  0.5571049000000002  0.63961492  1.0000
  C   C23       1.0  0.19184465999999994  0.73862905  0.34967884  1.0000
  C   C24       1.0  0.3277778199999999  0.70185322  0.58633782  1.0000
  C   C25       1.0  0.8109649299999998  0.9862483  0.85193468  1.0000
  C   C26       1.0  0.69465025  0.08206505  0.82730645  1.0000
  C   C27       1.0  0.7498682499999998  0.030472340000000004  0.18811179  1.0000
  C   C28       1.0  0.62248813  0.94080299  0.15106781  1.0000
  C   C29       1.0  0.6985506899999998  0.76926588  0.8517251699999999  1.0000
  C   C30       1.0  0.82964112  0.80343936  0.09296113  1.0000
  C   C31       1.0  0.31201102999999997  0.48426784000000006  0.8407296999999999  1.0000
  C   C32       1.0  0.18023295000000006  0.56905261  0.80078625  1.0000
  C   C33       1.0  0.25490014  0.52290725  0.1747143  1.0000
  C   C34       1.0  0.12510032  0.43671296  0.13945054  1.0000
  C   C35       1.0  0.19824947  0.26075972  0.84167488  1.0000
  C   C36       1.0  0.3363623999999999  0.30333354  0.07171786  1.0000
  C   C37       1.0  0.19848329  0.00091948  0.65426853  1.0000
  C   C38       1.0  0.34063057999999996  0.07760594  0.7089090099999998  1.0000
  C   C39       1.0  0.24781640999999993  0.030138330000000005  0.31397245  1.0000
  C   C40       1.0  0.37293645  0.93937815  0.34678422999999997  1.0000
  C   C41       1.0  0.30333744  0.7695279400000001  0.64877901  1.0000
  C   C42       1.0  0.16764577  0.8064003100000001  0.41223510999999996  1.0000
  C   C43       1.0  0.6881839099999998  0.4652564900000001  0.66624405  1.0000
  C   C44       1.0  0.79734662  0.56557774  0.68401321  1.0000
  C   C45       1.0  0.7379757899999998  0.5212806200000002  0.31304257  1.0000
  C   C46       1.0  0.8663356099999998  0.43259816  0.34863059  1.0000
  C   C47       1.0  0.7936742499999998  0.26176343  0.64333534  1.0000
  C   C48       1.0  0.66996358  0.2948557  0.39803302999999995  1.0000
  Cl  Cl1       1.0  0.50327232  0.09768004000000002  0.26029072  1.0000
  Cl  Cl2       1.0  0.9984526099999997  0.58453177  0.24999153  1.0000
  Cl  Cl3       1.0  0.50294568  0.9131647500000002  0.74258922  1.0000
  Cl  Cl4       1.0  0.9968556799999998  0.40399802  0.7461702499999999  1.0000
  O   O1        1.0  0.26198137  0.0009695700000000001  0.11305786  1.0000
  O   O2        1.0  0.31551292999999986  0.04674465000000001  0.89989544  1.0000
  O   O3        1.0  0.26091778  0.17724388  0.05094743  1.0000
  O   O4        1.0  0.75407795  0.49237924000000005  0.11337986  1.0000
  O   O5        1.0  0.8019717  0.52843563  0.8971578999999998  1.0000
  O   O6        1.0  0.76398262  0.6713888200000001  0.04051669  1.0000
  O   O7        1.0  0.7390463700000001  0.9952853900000002  0.38972086  1.0000
  O   O8        1.0  0.6993911  0.04878655  0.6196428699999998  1.0000
  O   O9        1.0  0.7514468199999997  0.16846405  0.45514272  1.0000
  O   O10       1.0  0.23718603  0.49707168000000007  0.3736569  1.0000
  O   O11       1.0  0.19785309999999995  0.53991706  0.60270246  1.0000
  O   O12       1.0  0.23710782999999996  0.67582925  0.45274227  1.0000
  O   O13       1.0  0.7440867500000001  0.00943331  0.8959585800000001  1.0000
  O   O14       1.0  0.690098  0.9632717400000002  0.10806364  1.0000
  O   O15       1.0  0.7395397999999997  0.83005686  0.95937163  1.0000
  O   O16       1.0  0.23895537  0.5006093  0.8769422800000001  1.0000
  O   O17       1.0  0.19688121999999994  0.45379578  0.10104215  1.0000
  O   O18       1.0  0.24609768999999995  0.3270559  0.9355033  1.0000
  O   O19       1.0  0.27520439999999996  0.01354432  0.6238047399999999  1.0000
  O   O20       1.0  0.30281773  0.95993221  0.38648273  1.0000
  O   O21       1.0  0.2585447099999999  0.83241128  0.54559428  1.0000
  O   O22       1.0  0.7499973299999998  0.49246339000000006  0.61608803  1.0000
  O   O23       1.0  0.7954832  0.4522138900000001  0.38768409  1.0000
  O   O24       1.0  0.75121177  0.32347192  0.53795883  1.0000
