data_image0
_chemical_formula_structural       Mg6H6C24O18
_chemical_formula_sum              "Mg6 H6 C24 O18"
_cell_length_a       6.9673
_cell_length_b       15.32294
_cell_length_c       15.346770000000001
_cell_angle_alpha    118.55319999999999
_cell_angle_beta     98.58661
_cell_angle_gamma    98.60677999999999

_symmetry_space_group_name_H-M    'P 1'
_symmetry_Int_Tables_number       1

loop_
  _symmetry_equiv_pos_as_xyz
  'x,y,z'

loop_
  _atom_site_type_symbol
  _atom_site_label
  _atom_site_symmetry_multiplicity
  _atom_site_fract_x
  _atom_site_fract_y
  _atom_site_fract_z
  _atom_site_occupancy
  Mg  Mg1       1.0  0.78339  0.67398  0.26668  1.0000
  Mg  Mg2       1.0  0.21657000000000004  0.32963999999999993  0.7332399999999999  1.0000
  Mg  Mg3       1.0  0.51663  0.73333  0.40745  1.0000
  Mg  Mg4       1.0  0.48314999999999997  0.26665  0.58895  1.0000
  Mg  Mg5       1.0  0.10825999999999995  0.58897  0.3258  1.0000
  Mg  Mg6       1.0  0.88361  0.4111099999999999  0.6741099999999999  1.0000
  H   H1        1.0  0.63458  0.97871  0.44987  1.0000
  H   H2        1.0  0.36648000000000014  0.023010000000000006  0.54992  1.0000
  H   H3        1.0  0.18227000000000004  0.55202  0.52874  1.0000
  H   H4        1.0  0.8124  0.44926000000000005  0.47033999999999987  1.0000
  H   H5        1.0  0.65442  0.4713600000000001  0.02155  1.0000
  H   H6        1.0  0.3420399999999999  0.52963  0.97795  1.0000
  C   C1        1.0  0.1775800000000003  0.82754  0.4335799999999999  1.0000
  C   C2        1.0  0.82286  0.17384  0.56563  1.0000
  C   C3        1.0  0.7426000000000003  0.56619  0.39427  1.0000
  C   C4        1.0  0.2521600000000001  0.43444  0.60445  1.0000
  C   C5        1.0  0.34856  0.60357  0.17206  1.0000
  C   C6        1.0  0.64768  0.39755  0.8274900000000001  1.0000
  C   C7        1.0  0.08005999999999996  0.91409  0.46419  1.0000
  C   C8        1.0  0.9209400000000002  0.08766000000000032  0.53552  1.0000
  C   C9        1.0  0.6138499999999999  0.53626  0.44954  1.0000
  C   C10       1.0  0.38069000000000014  0.4649200000000001  0.54929  1.0000
  C   C11       1.0  0.16457999999999998  0.54922  0.08592  1.0000
  C   C12       1.0  0.8318000000000002  0.4517399999999999  0.9134799999999998  1.0000
  C   C13       1.0  0.86752  0.89977  0.43447  1.0000
  C   C14       1.0  0.13357  0.10217999999999995  0.56529  1.0000
  C   C15       1.0  0.43160000000000004  0.5668  0.4657999999999999  1.0000
  C   C16       1.0  0.56315  0.43454  0.53309  1.0000
  C   C17       1.0  0.96641  0.53328  0.10034999999999997  1.0000
  C   C18       1.0  0.029879999999999896  0.4679100000000001  0.89912  1.0000
  C   C19       1.0  0.7954199999999999  0.9880300000000001  0.4717699999999999  1.0000
  C   C20       1.0  0.20562999999999976  0.01376999999999981  0.52803  1.0000
  C   C21       1.0  0.32086000000000003  0.5295100000000003  0.51555  1.0000
  C   C22       1.0  0.67379  0.47176  0.4834  1.0000
  C   C23       1.0  0.80603  0.4845200000000001  0.01248  1.0000
  C   C24       1.0  0.19038000000000016  0.5164599999999999  0.9869699999999999  1.0000
  O   O1        1.0  0.06683  0.7348500000000002  0.37154999999999994  1.0000
  O   O2        1.0  0.93184  0.26665000000000005  0.62872  1.0000
  O   O3        1.0  0.69584  0.62873  0.36533  1.0000
  O   O4        1.0  0.30154  0.37212  0.63308  1.0000
  O   O5        1.0  0.3300200000000002  0.63135  0.26385  1.0000
  O   O6        1.0  0.6650000000000001  0.36882  0.7352699999999999  1.0000
  O   O7        1.0  0.36575  0.84477  0.46751999999999994  1.0000
  O   O8        1.0  0.63502  0.15619000000000008  0.53004  1.0000
  O   O9        1.0  0.8955500000000002  0.5309  0.3761599999999999  1.0000
  O   O10       1.0  0.09847000000000002  0.46887000000000006  0.62276  1.0000
  O   O11       1.0  0.51982  0.62238  0.15597  1.0000
  O   O12       1.0  0.47671  0.3799600000000001  0.84429  1.0000
  O   O13       1.0  0.73366  0.8068  0.37306  1.0000
  O   O14       1.0  0.26673000000000013  0.19530000000000025  0.62612  1.0000
  O   O15       1.0  0.3606  0.62835  0.4355  1.0000
  O   O16       1.0  0.635  0.37288  0.56318  1.0000
  O   O17       1.0  0.92558  0.5629200000000002  0.19278999999999993  1.0000
  O   O18       1.0  0.07011999999999996  0.43885  0.8067  1.0000
