data_image0
_chemical_formula_structural       Al8H48C64N8O40
_chemical_formula_sum              "Al8 H48 C64 N8 O40"
_cell_length_a       22.13711
_cell_length_b       23.662260000000003
_cell_length_c       6.76563
_cell_angle_alpha    88.74513
_cell_angle_beta     107.02940000000001
_cell_angle_gamma    58.09494999999999

_symmetry_space_group_name_H-M    'P 1'
_symmetry_Int_Tables_number       1

loop_
  _symmetry_equiv_pos_as_xyz
  'x,y,z'

loop_
  _atom_site_type_symbol
  _atom_site_label
  _atom_site_symmetry_multiplicity
  _atom_site_fract_x
  _atom_site_fract_y
  _atom_site_fract_z
  _atom_site_occupancy
  Al  Al1       1.0  0.99725  0.0012699999999999988  0.99118  1.0000
  Al  Al2       1.0  0.49771  0.004709999999999999  0.95704  1.0000
  Al  Al3       1.0  0.9986400000000001  0.50501  0.9675000000000001  1.0000
  Al  Al4       1.0  0.49978000000000006  0.5023  0.97997  1.0000
  Al  Al5       1.0  0.9976700000000002  0.9997200000000002  0.49403  1.0000
  Al  Al6       1.0  0.49594  0.0009099999999999941  0.45832000000000006  1.0000
  Al  Al7       1.0  0.99795  0.50328  0.4689  1.0000
  Al  Al8       1.0  0.4983600000000004  0.50336  0.48047000000000006  1.0000
  H   H1        1.0  0.49189  0.08056999999999999  0.6861300000000001  1.0000
  H   H2        1.0  0.67242  0.29992  0.21554  1.0000
  H   H3        1.0  0.8220000000000001  0.19880999999999993  0.7535200000000001  1.0000
  H   H4        1.0  0.7939199999999998  0.18340000000000004  0.34856000000000004  1.0000
  H   H5        1.0  0.7079300000000002  0.97972  0.12098  1.0000
  H   H6        1.0  0.8309200000000002  0.9712299999999999  0.27349  1.0000
  H   H7        1.0  0.66776  0.021829999999999995  0.69955  1.0000
  H   H8        1.0  0.20376000000000008  0.9744399999999999  0.13465  1.0000
  H   H9        1.0  0.17098  0.028029999999999996  0.714  1.0000
  H   H10       1.0  0.3253800000000001  0.96949  0.25764  1.0000
  H   H11       1.0  0.67044  0.54053  0.08768  1.0000
  H   H12       1.0  0.6928300000000001  0.49141999999999997  0.73015  1.0000
  H   H13       1.0  0.79589  0.52912  0.22187  1.0000
  H   H14       1.0  0.19228000000000006  0.48962999999999995  0.72732  1.0000
  H   H15       1.0  0.17696  0.53379  0.08956  1.0000
  H   H16       1.0  0.30121  0.52388  0.23095  1.0000
  H   H17       1.0  0.19278999999999996  0.3251  0.61386  1.0000
  H   H18       1.0  0.3176  0.21032  0.71821  1.0000
  H   H19       1.0  0.30692  0.18346  0.3327800000000001  1.0000
  H   H20       1.0  0.16643000000000002  0.80056  0.61129  1.0000
  H   H21       1.0  0.28955  0.68552  0.71561  1.0000
  H   H22       1.0  0.32703999999999994  0.69607  0.3684200000000001  1.0000
  H   H23       1.0  0.6690400000000001  0.8013  0.58615  1.0000
  H   H24       1.0  0.7929800000000001  0.68647  0.70019  1.0000
  H   H25       1.0  0.8232700000000001  0.70056  0.34868  1.0000
  H   H26       1.0  0.012200000000000004  0.06731999999999999  0.74895  1.0000
  H   H27       1.0  0.009840000000000008  0.57285  0.7189500000000001  1.0000
  H   H28       1.0  0.5079200000000003  0.57347  0.7348600000000001  1.0000
  H   H29       1.0  0.003170000000000048  0.42583999999999994  0.22796  1.0000
  H   H30       1.0  0.51273  0.42113  0.24918  1.0000
  H   H31       1.0  0.34963  0.012499999999999999  0.94676  1.0000
  H   H32       1.0  0.26536000000000004  0.031999999999999994  0.9758200000000001  1.0000
  H   H33       1.0  0.84554  0.006000000000000002  0.96142  1.0000
  H   H34       1.0  0.76042  0.025149999999999992  0.98007  1.0000
  H   H35       1.0  0.3669200000000001  0.48177999999999993  0.9692200000000001  1.0000
  H   H36       1.0  0.29735000000000006  0.47418  0.013340000000000001  1.0000
  H   H37       1.0  0.86483  0.48809  0.96389  1.0000
  H   H38       1.0  0.7963500000000002  0.47879999999999995  0.01049  1.0000
  H   H39       1.0  0.6450400000000001  0.3640799999999999  0.5136  1.0000
  H   H40       1.0  0.7301200000000001  0.30133  0.4912  1.0000
  H   H41       1.0  0.13418999999999998  0.35087  0.23323  1.0000
  H   H42       1.0  0.2019  0.27192  0.41073  1.0000
  H   H43       1.0  0.14512000000000003  0.8568099999999998  0.26106  1.0000
  H   H44       1.0  0.23146  0.79393  0.45366  1.0000
  H   H45       1.0  0.6437799999999999  0.8632800000000002  0.22971  1.0000
  H   H46       1.0  0.7288600000000001  0.79947  0.42484  1.0000
  H   H47       1.0  0.9996000000000002  0.9240899999999999  0.24956  1.0000
  H   H48       1.0  0.4989  0.9263399999999999  0.20742000000000002  1.0000
  C   C1        1.0  0.10476  0.010590000000000004  0.3426  1.0000
  C   C2        1.0  0.17896000000000004  0.004380000000000001  0.41571  1.0000
  C   C3        1.0  0.2228200000000001  0.9862499999999998  0.28482  1.0000
  C   C4        1.0  0.20555000000000004  0.014310000000000003  0.6157  1.0000
  C   C5        1.0  0.29024  0.98283  0.35506  1.0000
  C   C6        1.0  0.27693000000000006  0.006159999999999992  0.6951300000000001  1.0000
  C   C7        1.0  0.3183000000000001  0.9936299999999999  0.55558  1.0000
  C   C8        1.0  0.38925000000000004  0.99154  0.61272  1.0000
  C   C9        1.0  0.60421  0.012370000000000003  0.313  1.0000
  C   C10       1.0  0.6792  0.0045400000000000015  0.40022  1.0000
  C   C11       1.0  0.7254400000000001  0.98883  0.2773  1.0000
  C   C12       1.0  0.70418  0.010350000000000002  0.60776  1.0000
  C   C13       1.0  0.79374  0.9833300000000001  0.36373  1.0000
  C   C14       1.0  0.7756800000000001  0.0011399999999999876  0.7011600000000001  1.0000
  C   C15       1.0  0.81976  0.9907299999999999  0.57158  1.0000
  C   C16       1.0  0.89085  0.9884999999999999  0.64359  1.0000
  C   C17       1.0  0.39099  0.49380999999999997  0.62268  1.0000
  C   C18       1.0  0.31724  0.50087  0.55593  1.0000
  C   C19       1.0  0.27713  0.51483  0.33728  1.0000
  C   C20       1.0  0.2838800000000001  0.49586  0.7011700000000001  1.0000
  C   C21       1.0  0.20863  0.52036  0.2581  1.0000
  C   C22       1.0  0.21630000000000005  0.49751  0.61932  1.0000
  C   C23       1.0  0.179  0.50986  0.4027  1.0000
  C   C24       1.0  0.10639000000000001  0.51319  0.3274000000000001  1.0000
  C   C25       1.0  0.60487  0.51511  0.33476  1.0000
  C   C26       1.0  0.6760900000000001  0.5141  0.40382  1.0000
  C   C27       1.0  0.70355  0.52626  0.25545  1.0000
  C   C28       1.0  0.7150700000000002  0.50085  0.61945  1.0000
  C   C29       1.0  0.7724400000000001  0.52022  0.33062  1.0000
  C   C30       1.0  0.78218  0.50002  0.69727  1.0000
  C   C31       1.0  0.81421  0.50538  0.54833  1.0000
  C   C32       1.0  0.88858  0.49697  0.61249  1.0000
  C   C33       1.0  0.6060599999999999  0.38376000000000005  0.84533  1.0000
  C   C34       1.0  0.67701  0.31474  0.90889  1.0000
  C   C35       1.0  0.7063899999999999  0.27721  0.11639  1.0000
  C   C36       1.0  0.71738  0.2848  0.76979  1.0000
  C   C37       1.0  0.7738500000000001  0.21313000000000001  0.19210000000000002  1.0000
  C   C38       1.0  0.7883800000000001  0.22126999999999994  0.8527200000000001  1.0000
  C   C39       1.0  0.8162200000000001  0.18586  0.05895  1.0000
  C   C40       1.0  0.8902400000000001  0.11749  0.13588  1.0000
  C   C41       1.0  0.10577000000000002  0.38564  0.83254  1.0000
  C   C42       1.0  0.17956000000000003  0.3188599999999999  0.9106900000000001  1.0000
  C   C43       1.0  0.21429000000000006  0.28085  0.12371  1.0000
  C   C44       1.0  0.21818000000000007  0.29216  0.76929  1.0000
  C   C45       1.0  0.28174  0.21499999999999997  0.17554  1.0000
  C   C46       1.0  0.28685999999999995  0.22926000000000002  0.82557  1.0000
  C   C47       1.0  0.31781000000000004  0.18973  0.03102  1.0000
  C   C48       1.0  0.39027000000000006  0.12035999999999998  0.10056  1.0000
  C   C49       1.0  0.3918899999999999  0.61892  0.11585  1.0000
  C   C50       1.0  0.31673999999999997  0.686  0.04934  1.0000
  C   C51       1.0  0.2908700000000001  0.7191  0.20293  1.0000
  C   C52       1.0  0.27116  0.71405  0.8329200000000001  1.0000
  C   C53       1.0  0.21846  0.78108  0.14792  1.0000
  C   C54       1.0  0.20282000000000028  0.7771  0.77711  1.0000
  C   C55       1.0  0.1755100000000001  0.8125899999999999  0.92849  1.0000
  C   C56       1.0  0.10424999999999997  0.8814  0.85146  1.0000
  C   C57       1.0  0.8914699999999999  0.62104  0.10473000000000002  1.0000
  C   C58       1.0  0.81651  0.68854  0.03246  1.0000
  C   C59       1.0  0.78889  0.72288  0.18181  1.0000
  C   C60       1.0  0.7728900000000001  0.71572  0.8144500000000001  1.0000
  C   C61       1.0  0.7169100000000002  0.78555  0.12108  1.0000
  C   C62       1.0  0.70434  0.7788200000000001  0.75315  1.0000
  C   C63       1.0  0.6752999999999999  0.81571  0.90012  1.0000
  C   C64       1.0  0.6036100000000001  0.8840699999999999  0.81843  1.0000
  N   N1        1.0  0.3037100000000001  0.009129999999999997  0.90216  1.0000
  N   N2        1.0  0.80073  0.0010000000000000022  0.91287  1.0000
  N   N3        1.0  0.31349000000000005  0.49156  0.9135500000000001  1.0000
  N   N4        1.0  0.8126800000000001  0.49528999999999995  0.90918  1.0000
  N   N5        1.0  0.69023  0.31441  0.55883  1.0000
  N   N6        1.0  0.18615  0.30574  0.28008  1.0000
  N   N7        1.0  0.19205999999999998  0.8079200000000001  0.30592  1.0000
  N   N8        1.0  0.68983  0.81398  0.27619  1.0000
  O   O1        1.0  0.9978  0.03499  0.74  1.0000
  O   O2        1.0  0.49652  0.03751999999999999  0.70194  1.0000
  O   O3        1.0  0.99899  0.53814  0.71567  1.0000
  O   O4        1.0  0.4997400000000001  0.53707  0.7293600000000001  1.0000
  O   O5        1.0  0.99766  0.46935000000000004  0.21912  1.0000
  O   O6        1.0  0.4992400000000001  0.46762999999999993  0.23223  1.0000
  O   O7        1.0  0.07971  0.0083  0.14916  1.0000
  O   O8        1.0  0.07251000000000002  0.017299999999999996  0.47736000000000006  1.0000
  O   O9        1.0  0.41705000000000003  0.99515  0.80397  1.0000
  O   O10       1.0  0.41872000000000004  0.98637  0.47121  1.0000
  O   O11       1.0  0.58043  0.01137  0.11733  1.0000
  O   O12       1.0  0.5698300000000001  0.01912  0.44145  1.0000
  O   O13       1.0  0.9160100000000001  0.99255  0.8365500000000001  1.0000
  O   O14       1.0  0.9232000000000001  0.98292  0.50968  1.0000
  O   O15       1.0  0.41559999999999997  0.49752000000000013  0.47704  1.0000
  O   O16       1.0  0.42704  0.48331  0.82185  1.0000
  O   O17       1.0  0.08015999999999997  0.51051  0.46951  1.0000
  O   O18       1.0  0.07593000000000003  0.51891  0.12915  1.0000
  O   O19       1.0  0.5722400000000001  0.52265  0.13686  1.0000
  O   O20       1.0  0.58259  0.50798  0.4819000000000001  1.0000
  O   O21       1.0  0.9228800000000001  0.48949999999999994  0.8106800000000001  1.0000
  O   O22       1.0  0.9155400000000002  0.49629  0.46827  1.0000
  O   O23       1.0  0.58311  0.41146  0.99178  1.0000
  O   O24       1.0  0.5717300000000002  0.41156  0.64617  1.0000
  O   O25       1.0  0.92212  0.09231  0.00145  1.0000
  O   O26       1.0  0.91543  0.08963  0.33069  1.0000
  O   O27       1.0  0.07765000000000004  0.41417999999999994  0.97185  1.0000
  O   O28       1.0  0.07390999999999999  0.41073000000000004  0.63277  1.0000
  O   O29       1.0  0.42197000000000007  0.09644  0.9647600000000001  1.0000
  O   O30       1.0  0.41457000000000005  0.09064999999999997  0.29261  1.0000
  O   O31       1.0  0.42807999999999996  0.59409  0.3148  1.0000
  O   O32       1.0  0.41435  0.59129  0.96955  1.0000
  O   O33       1.0  0.0790800000000001  0.9093  0.65563  1.0000
  O   O34       1.0  0.07205000000000006  0.90904  0.98487  1.0000
  O   O35       1.0  0.9240900000000001  0.59492  0.30303  1.0000
  O   O36       1.0  0.9169700000000002  0.59455  0.96092  1.0000
  O   O37       1.0  0.5764299999999999  0.91041  0.62008  1.0000
  O   O38       1.0  0.5724  0.91341  0.9515600000000001  1.0000
  O   O39       1.0  0.99785  0.9659299999999998  0.24442  1.0000
  O   O40       1.0  0.49703  0.9682299999999999  0.20787  1.0000
