data_image0
_chemical_formula_structural       Al16H48C96O96
_chemical_formula_sum              "Al16 H48 C96 O96"
_cell_length_a       21.22771
_cell_length_b       21.22856
_cell_length_c       10.667459999999998
_cell_angle_alpha    90.02772
_cell_angle_beta     90.07822
_cell_angle_gamma    90.016

_symmetry_space_group_name_H-M    'P 1'
_symmetry_Int_Tables_number       1

loop_
  _symmetry_equiv_pos_as_xyz
  'x,y,z'

loop_
  _atom_site_type_symbol
  _atom_site_label
  _atom_site_symmetry_multiplicity
  _atom_site_fract_x
  _atom_site_fract_y
  _atom_site_fract_z
  _atom_site_occupancy
  Al  Al1       1.0  0.31898  0.9987800000000001  0.00409  1.0000
  Al  Al2       1.0  0.68222  0.0009400000000000001  0.99732  1.0000
  Al  Al3       1.0  0.74925  0.9326100000000003  0.74774  1.0000
  Al  Al4       1.0  0.24922  0.93252  0.75478  1.0000
  Al  Al5       1.0  0.75097  0.06787000000000001  0.24739  1.0000
  Al  Al6       1.0  0.25107  0.06603000000000002  0.25336  1.0000
  Al  Al7       1.0  0.18278  0.9999600000000001  0.50345  1.0000
  Al  Al8       1.0  0.8176200000000001  0.99926  0.49779000000000007  1.0000
  Al  Al9       1.0  0.25085  0.5674900000000002  0.74712  1.0000
  Al  Al10      1.0  0.18263  0.50065  0.49728  1.0000
  Al  Al11      1.0  0.24936999999999998  0.4328  0.24744  1.0000
  Al  Al12      1.0  0.68272  0.50093  0.00276  1.0000
  Al  Al13      1.0  0.75061  0.56767  0.7527999999999999  1.0000
  Al  Al14      1.0  0.74895  0.43223  0.25326  1.0000
  Al  Al15      1.0  0.31737  0.49923  0.9967699999999999  1.0000
  Al  Al16      1.0  0.8174  0.4991400000000001  0.50278  1.0000
  H   H1        1.0  0.21652000000000002  0.99655  0.08966  1.0000
  H   H2        1.0  0.25369  0.9645000000000001  0.34371  1.0000
  H   H3        1.0  0.24905  0.03488  0.84253  1.0000
  H   H4        1.0  0.28455  0.00303  0.59299  1.0000
  H   H5        1.0  0.75587  0.9662800000000001  0.15556  1.0000
  H   H6        1.0  0.71628  0.9941200000000002  0.4055  1.0000
  H   H7        1.0  0.74421  0.03432  0.65527  1.0000
  H   H8        1.0  0.78405  0.00506  0.90743  1.0000
  H   H9        1.0  0.75399  0.46575  0.84231  1.0000
  H   H10       1.0  0.78459  0.50373  0.09242  1.0000
  H   H11       1.0  0.74553  0.53439  0.34284  1.0000
  H   H12       1.0  0.71548  0.4958800000000001  0.59217  1.0000
  H   H13       1.0  0.21568  0.49742  0.9093099999999998  1.0000
  H   H14       1.0  0.24637  0.5343800000000001  0.15757  1.0000
  H   H15       1.0  0.28413  0.50342  0.4086  1.0000
  H   H16       1.0  0.25369  0.46549000000000007  0.65784  1.0000
  H   H17       1.0  0.06462  0.8968  0.95349  1.0000
  H   H18       1.0  0.9345399999999999  0.8969700000000003  0.9531099999999999  1.0000
  H   H19       1.0  0.56633  0.10562  0.45024000000000003  1.0000
  H   H20       1.0  0.43631  0.10526  0.45197000000000004  1.0000
  H   H21       1.0  0.35533999999999993  0.6836200000000001  0.19893  1.0000
  H   H22       1.0  0.35644  0.8138000000000001  0.2006  1.0000
  H   H23       1.0  0.9356899999999999  0.60079  0.9548699999999999  1.0000
  H   H24       1.0  0.06597  0.60012  0.9545  1.0000
  H   H25       1.0  0.9341199999999998  0.3963900000000001  0.04762  1.0000
  H   H26       1.0  0.06425  0.3962400000000001  0.0474  1.0000
  H   H27       1.0  0.06647  0.10102000000000003  0.04979999999999999  1.0000
  H   H28       1.0  0.93615  0.1032  0.049929999999999995  1.0000
  H   H29       1.0  0.14877  0.81589  0.29965  1.0000
  H   H30       1.0  0.14796  0.6855900000000003  0.29867  1.0000
  H   H31       1.0  0.56433  0.8956800000000001  0.54785  1.0000
  H   H32       1.0  0.4343  0.8959300000000001  0.54802  1.0000
  H   H33       1.0  0.64602  0.18579000000000004  0.7975700000000001  1.0000
  H   H34       1.0  0.64667  0.31594000000000005  0.79779  1.0000
  H   H35       1.0  0.85347  0.31435  0.70316  1.0000
  H   H36       1.0  0.85372  0.18413000000000004  0.70196  1.0000
  H   H37       1.0  0.3554  0.3138  0.80283  1.0000
  H   H38       1.0  0.35521  0.18354000000000004  0.8041200000000001  1.0000
  H   H39       1.0  0.14727  0.18499000000000002  0.69963  1.0000
  H   H40       1.0  0.1481  0.3152400000000001  0.69961  1.0000
  H   H41       1.0  0.64561  0.8161000000000003  0.20079999999999998  1.0000
  H   H42       1.0  0.64526  0.68591  0.20146999999999998  1.0000
  H   H43       1.0  0.8520399999999999  0.81457  0.29751  1.0000
  H   H44       1.0  0.85181  0.6842600000000001  0.29739  1.0000
  H   H45       1.0  0.56524  0.60431  0.54856  1.0000
  H   H46       1.0  0.43501  0.6043  0.54856  1.0000
  H   H47       1.0  0.56453  0.3972800000000001  0.45078  1.0000
  H   H48       1.0  0.43437  0.3987800000000001  0.45160999999999996  1.0000
  C   C1        1.0  0.61357  0.95827  0.77978  1.0000
  C   C2        1.0  0.55134  0.9481900000000001  0.72299  1.0000
  C   C3        1.0  0.53279  0.9166900000000001  0.61566  1.0000
  C   C4        1.0  0.38606  0.9583600000000002  0.78125  1.0000
  C   C5        1.0  0.44798  0.9484300000000002  0.72326  1.0000
  C   C6        1.0  0.46606  0.9168200000000001  0.61583  1.0000
  C   C7        1.0  0.61438  0.041840000000000016  0.21918999999999997  1.0000
  C   C8        1.0  0.55238  0.05201  0.2766  1.0000
  C   C9        1.0  0.53443  0.08412  0.38349000000000005  1.0000
  C   C10       1.0  0.38678  0.04103  0.22186  1.0000
  C   C11       1.0  0.44904  0.05178  0.27793  1.0000
  C   C12       1.0  0.46773  0.08398  0.38432  1.0000
  C   C13       1.0  0.11366  0.95831  0.72089  1.0000
  C   C14       1.0  0.0514  0.9485900000000003  0.77759  1.0000
  C   C15       1.0  0.03298  0.91759  0.88542  1.0000
  C   C16       1.0  0.88591  0.9589300000000001  0.71979  1.0000
  C   C17       1.0  0.9480199999999999  0.94888  0.77728  1.0000
  C   C18       1.0  0.96624  0.91771  0.88519  1.0000
  C   C19       1.0  0.11444  0.03949  0.28241  1.0000
  C   C20       1.0  0.05223  0.05037  0.22647999999999996  1.0000
  C   C21       1.0  0.03439  0.08136000000000002  0.11822999999999999  1.0000
  C   C22       1.0  0.88653  0.042  0.28148  1.0000
  C   C23       1.0  0.9489999999999998  0.05201  0.2264  1.0000
  C   C24       1.0  0.96769  0.08242  0.11818  1.0000
  C   C25       1.0  0.20940999999999999  0.8636800000000001  0.53389  1.0000
  C   C26       1.0  0.19931  0.80165  0.47686  1.0000
  C   C27       1.0  0.16874  0.78384  0.36796  1.0000
  C   C28       1.0  0.20895  0.6360200000000001  0.53064  1.0000
  C   C29       1.0  0.19866  0.69847  0.47585  1.0000
  C   C30       1.0  0.16832  0.7171500000000001  0.36742  1.0000
  C   C31       1.0  0.20889  0.13533  0.46964  1.0000
  C   C32       1.0  0.1986  0.19810000000000003  0.52365  1.0000
  C   C33       1.0  0.1678  0.21669000000000005  0.63147  1.0000
  C   C34       1.0  0.21015  0.3638200000000001  0.46787  1.0000
  C   C35       1.0  0.19938999999999998  0.30145000000000005  0.5234  1.0000
  C   C36       1.0  0.16835  0.28339  0.63139  1.0000
  C   C37       1.0  0.69849  0.80232  0.026520000000000002  1.0000
  C   C38       1.0  0.66671  0.78423  0.13362  1.0000
  C   C39       1.0  0.69809  0.69892  0.02686  1.0000
  C   C40       1.0  0.66644  0.7174900000000001  0.13387  1.0000
  C   C41       1.0  0.70849  0.86442  0.96917  1.0000
  C   C42       1.0  0.70826  0.6366  0.97032  1.0000
  C   C43       1.0  0.70824  0.13656000000000001  0.029859999999999998  1.0000
  C   C44       1.0  0.70868  0.3642300000000001  0.03107  1.0000
  C   C45       1.0  0.69823  0.19882000000000002  0.9731199999999999  1.0000
  C   C46       1.0  0.66704  0.21738000000000002  0.86546  1.0000
  C   C47       1.0  0.69885  0.3022000000000001  0.9732999999999999  1.0000
  C   C48       1.0  0.66743  0.28411  0.8655500000000002  1.0000
  C   C49       1.0  0.30226  0.80143  0.02715  1.0000
  C   C50       1.0  0.33457  0.7824800000000001  0.13325  1.0000
  C   C51       1.0  0.30131  0.6980400000000001  0.02592  1.0000
  C   C52       1.0  0.33395  0.7157600000000001  0.13252  1.0000
  C   C53       1.0  0.29219  0.86404  0.9719899999999999  1.0000
  C   C54       1.0  0.29053  0.6360300000000002  0.9686500000000001  1.0000
  C   C55       1.0  0.29122  0.13498000000000002  0.03301  1.0000
  C   C56       1.0  0.29202  0.36351000000000006  0.03162  1.0000
  C   C57       1.0  0.30187  0.19751000000000002  0.97781  1.0000
  C   C58       1.0  0.33399  0.21553000000000003  0.8709899999999999  1.0000
  C   C59       1.0  0.30228  0.30088  0.9769799999999998  1.0000
  C   C60       1.0  0.33415  0.28224000000000005  0.87039  1.0000
  C   C61       1.0  0.79247  0.8635500000000002  0.53165  1.0000
  C   C62       1.0  0.80315  0.80117  0.47628999999999994  1.0000
  C   C63       1.0  0.8326299999999999  0.7828000000000002  0.36679  1.0000
  C   C64       1.0  0.79206  0.6357100000000001  0.53212  1.0000
  C   C65       1.0  0.8028000000000001  0.6979000000000002  0.47617  1.0000
  C   C66       1.0  0.83241  0.7160700000000001  0.3667  1.0000
  C   C67       1.0  0.7916299999999998  0.13586000000000004  0.46919  1.0000
  C   C68       1.0  0.80146  0.19793000000000005  0.52669  1.0000
  C   C69       1.0  0.83278  0.21602  0.63453  1.0000
  C   C70       1.0  0.7908599999999999  0.36361  0.47131  1.0000
  C   C71       1.0  0.8013099999999999  0.30130000000000007  0.52753  1.0000
  C   C72       1.0  0.83275  0.28276  0.63495  1.0000
  C   C73       1.0  0.11353  0.45800000000000013  0.28021  1.0000
  C   C74       1.0  0.0512  0.44836  0.22308  1.0000
  C   C75       1.0  0.03269  0.4172  0.11531999999999999  1.0000
  C   C76       1.0  0.88564  0.45829  0.28107  1.0000
  C   C77       1.0  0.94773  0.44859  0.22317  1.0000
  C   C78       1.0  0.9659199999999999  0.41728000000000004  0.11541999999999998  1.0000
  C   C79       1.0  0.11416  0.54192  0.71799  1.0000
  C   C80       1.0  0.052  0.55236  0.7743599999999999  1.0000
  C   C81       1.0  0.03398999999999999  0.58133  0.88469  1.0000
  C   C82       1.0  0.88635  0.54229  0.71915  1.0000
  C   C83       1.0  0.9487399999999999  0.5528  0.7746499999999998  1.0000
  C   C84       1.0  0.96726  0.58162  0.88491  1.0000
  C   C85       1.0  0.6136199999999999  0.45827  0.21862  1.0000
  C   C86       1.0  0.55128  0.44827  0.27412  1.0000
  C   C87       1.0  0.53286  0.41792  0.3826  1.0000
  C   C88       1.0  0.3859  0.46028000000000013  0.21832  1.0000
  C   C89       1.0  0.44805999999999996  0.4495  0.27457  1.0000
  C   C90       1.0  0.46617  0.41869000000000006  0.38293  1.0000
  C   C91       1.0  0.61407  0.54168  0.7809799999999999  1.0000
  C   C92       1.0  0.55193  0.5516300000000001  0.72341  1.0000
  C   C93       1.0  0.53355  0.58321  0.61607  1.0000
  C   C94       1.0  0.38637  0.54144  0.78003  1.0000
  C   C95       1.0  0.44854  0.5516600000000002  0.72333  1.0000
  C   C96       1.0  0.4668  0.58322  0.61603  1.0000
  O   O1        1.0  0.74623  0.007  0.11877999999999998  1.0000
  O   O2        1.0  0.61612  0.00916  0.11924  1.0000
  O   O3        1.0  0.68092  0.09072000000000002  0.97452  1.0000
  O   O4        1.0  0.6817  0.9105200000000001  0.0257  1.0000
  O   O5        1.0  0.74334  0.99643  0.86921  1.0000
  O   O6        1.0  0.61602  0.9918600000000001  0.87873  1.0000
  O   O7        1.0  0.6594  0.9309800000000001  0.72469  1.0000
  O   O8        1.0  0.49983  0.9685200000000002  0.78836  1.0000
  O   O9        1.0  0.38436999999999993  0.9911800000000001  0.88102  1.0000
  O   O10       1.0  0.33988  0.93133  0.72521  1.0000
  O   O11       1.0  0.66059  0.06849  0.2757  1.0000
  O   O12       1.0  0.50047  0.03139  0.21226  1.0000
  O   O13       1.0  0.38431  0.006300000000000001  0.12452  1.0000
  O   O14       1.0  0.34087  0.06892  0.27537  1.0000
  O   O15       1.0  0.24663  0.00559  0.38139999999999996  1.0000
  O   O16       1.0  0.11668999999999999  0.00639  0.38161  1.0000
  O   O17       1.0  0.18078  0.09011  0.52515  1.0000
  O   O18       1.0  0.24371999999999996  0.9955600000000002  0.63137  1.0000
  O   O19       1.0  0.11623  0.9911800000000001  0.62117  1.0000
  O   O20       1.0  0.15943  0.9313100000000002  0.7768599999999999  1.0000
  O   O21       1.0  0.9998099999999999  0.9686300000000002  0.71182  1.0000
  O   O22       1.0  0.18397  0.9097200000000001  0.47497  1.0000
  O   O23       1.0  0.88391  0.99108  0.61927  1.0000
  O   O24       1.0  0.83975  0.93264  0.77669  1.0000
  O   O25       1.0  0.16049  0.06587000000000001  0.22516  1.0000
  O   O26       1.0  0.00031  0.031630000000000005  0.29291  1.0000
  O   O27       1.0  0.88388  0.00847  0.38033  1.0000
  O   O28       1.0  0.84083  0.06897  0.225  1.0000
  O   O29       1.0  0.2409  0.8658  0.63533  1.0000
  O   O30       1.0  0.21843  0.7498100000000002  0.54298  1.0000
  O   O31       1.0  0.24364  0.6331500000000001  0.62805  1.0000
  O   O32       1.0  0.18107  0.59055  0.4753  1.0000
  O   O33       1.0  0.25576  0.9939300000000001  0.88097  1.0000
  O   O34       1.0  0.25644  0.86784  0.87625  1.0000
  O   O35       1.0  0.24373999999999998  0.13159000000000004  0.3729  1.0000
  O   O36       1.0  0.21867  0.24957000000000004  0.45721  1.0000
  O   O37       1.0  0.24334999999999998  0.36627000000000004  0.36878  1.0000
  O   O38       1.0  0.18385  0.40986000000000006  0.5254  1.0000
  O   O39       1.0  0.25697  0.00296  0.13058  1.0000
  O   O40       1.0  0.25706  0.1317  0.13067  1.0000
  O   O41       1.0  0.68107  0.5907300000000001  0.025569999999999996  1.0000
  O   O42       1.0  0.74106  0.8664100000000002  0.86934  1.0000
  O   O43       1.0  0.7186  0.7504400000000001  0.96162  1.0000
  O   O44       1.0  0.74175  0.63404  0.87147  1.0000
  O   O45       1.0  0.75371  0.99343  0.61899  1.0000
  O   O46       1.0  0.75892  0.8661100000000003  0.6304  1.0000
  O   O47       1.0  0.7418299999999999  0.13408000000000003  0.12878  1.0000
  O   O48       1.0  0.7186599999999999  0.2503500000000001  0.03859  1.0000
  O   O49       1.0  0.74098  0.36615  0.13151  1.0000
  O   O50       1.0  0.75698  0.0038500000000000006  0.3688  1.0000
  O   O51       1.0  0.7590999999999999  0.13385  0.36907  1.0000
  O   O52       1.0  0.6821  0.4103600000000001  0.97431  1.0000
  O   O53       1.0  0.32174  0.9090800000000001  0.02532  1.0000
  O   O54       1.0  0.31701  0.58986  0.02541  1.0000
  O   O55       1.0  0.28112  0.7501000000000001  0.9617999999999999  1.0000
  O   O56       1.0  0.25762  0.6339  0.86899  1.0000
  O   O57       1.0  0.28161  0.24944000000000005  0.04282  1.0000
  O   O58       1.0  0.25844  0.3663600000000001  0.13027  1.0000
  O   O59       1.0  0.31889  0.08948  0.97608  1.0000
  O   O60       1.0  0.31903  0.40919  0.9751999999999998  1.0000
  O   O61       1.0  0.81892  0.9094200000000001  0.47499  1.0000
  O   O62       1.0  0.7842399999999999  0.7496300000000001  0.54336  1.0000
  O   O63       1.0  0.7590399999999999  0.6336400000000001  0.63138  1.0000
  O   O64       1.0  0.81823  0.58958  0.47462000000000004  1.0000
  O   O65       1.0  0.8183  0.0898  0.52599  1.0000
  O   O66       1.0  0.78126  0.24972000000000003  0.46169  1.0000
  O   O67       1.0  0.75624  0.36634000000000005  0.37384  1.0000
  O   O68       1.0  0.81893  0.40936  0.5255  1.0000
  O   O69       1.0  0.24343999999999996  0.49654000000000004  0.36898  1.0000
  O   O70       1.0  0.11608  0.49114000000000013  0.37966999999999995  1.0000
  O   O71       1.0  0.15936  0.43077  0.22488  1.0000
  O   O72       1.0  0.9996099999999999  0.4685500000000001  0.28854  1.0000
  O   O73       1.0  0.24641  0.50633  0.61923  1.0000
  O   O74       1.0  0.11635999999999999  0.50885  0.61869  1.0000
  O   O75       1.0  0.8836299999999999  0.4910000000000001  0.38087999999999994  1.0000
  O   O76       1.0  0.83951  0.43119  0.22502000000000003  1.0000
  O   O77       1.0  0.16021  0.56857  0.77513  1.0000
  O   O78       1.0  0.00018  0.5342700000000001  0.70681  1.0000
  O   O79       1.0  0.88375  0.5085700000000001  0.62039  1.0000
  O   O80       1.0  0.84057  0.56902  0.77537  1.0000
  O   O81       1.0  0.74379  0.49621  0.13094  1.0000
  O   O82       1.0  0.61634  0.49192  0.11995  1.0000
  O   O83       1.0  0.65926  0.4311400000000001  0.27491  1.0000
  O   O84       1.0  0.49981999999999993  0.46844000000000013  0.20793  1.0000
  O   O85       1.0  0.38370999999999994  0.49322000000000005  0.11879  1.0000
  O   O86       1.0  0.33987  0.4339900000000001  0.27557  1.0000
  O   O87       1.0  0.74631  0.50649  0.88085  1.0000
  O   O88       1.0  0.61625  0.50902  0.8807999999999999  1.0000
  O   O89       1.0  0.6601  0.56852  0.72446  1.0000
  O   O90       1.0  0.50022  0.53133  0.7884200000000001  1.0000
  O   O91       1.0  0.38375999999999993  0.5074700000000001  0.8783799999999999  1.0000
  O   O92       1.0  0.34062  0.56901  0.72507  1.0000
  O   O93       1.0  0.75366  0.49359  0.38083  1.0000
  O   O94       1.0  0.75624  0.50368  0.63084  1.0000
  O   O95       1.0  0.25347  0.49354000000000003  0.11881999999999998  1.0000
  O   O96       1.0  0.25624  0.50364  0.8689799999999999  1.0000
