data_image0
_chemical_formula_structural       Al24H88C108O116
_chemical_formula_sum              "Al24 H88 C108 O116"
_cell_length_a       14.39889
_cell_length_b       14.365400000000001
_cell_length_c       31.73396
_cell_angle_alpha    89.87301
_cell_angle_beta     90.01651
_cell_angle_gamma    120.02394

_symmetry_space_group_name_H-M    'P 1'
_symmetry_Int_Tables_number       1

loop_
  _symmetry_equiv_pos_as_xyz
  'x,y,z'

loop_
  _atom_site_type_symbol
  _atom_site_label
  _atom_site_symmetry_multiplicity
  _atom_site_fract_x
  _atom_site_fract_y
  _atom_site_fract_z
  _atom_site_occupancy
  Al  Al1       1.0  0.9987299999999999  0.50659  0.00055  1.0000
  Al  Al2       1.0  0.5066  0.50568  0.00041  1.0000
  Al  Al3       1.0  0.13485  0.07104  0.74983  1.0000
  Al  Al4       1.0  0.0034000000000000033  0.51098  0.49966  1.0000
  Al  Al5       1.0  0.58702  0.41878  0.91672  1.0000
  Al  Al6       1.0  0.49645999999999996  0.9978599999999999  0.00011  1.0000
  Al  Al7       1.0  0.91442  0.0791  0.74882  1.0000
  Al  Al8       1.0  0.58445  0.17022  0.58224  1.0000
  Al  Al9       1.0  0.5830499999999998  0.41655000000000003  0.58242  1.0000
  Al  Al10      1.0  0.8332300000000001  0.4163700000000001  0.58229  1.0000
  Al  Al11      1.0  0.50828  0.50767  0.49867  1.0000
  Al  Al12      1.0  0.58388  0.17019  0.91954  1.0000
  Al  Al13      1.0  0.83387  0.42241  0.91771  1.0000
  Al  Al14      1.0  0.4966899999999999  0.99721  0.49964  1.0000
  Al  Al15      1.0  0.4159300000000001  0.8332900000000001  0.41308  1.0000
  Al  Al16      1.0  0.17703999999999992  0.59298  0.41704  1.0000
  Al  Al17      1.0  0.41645  0.58635  0.41457999999999995  1.0000
  Al  Al18      1.0  0.91335  0.84192  0.74933  1.0000
  Al  Al19      1.0  0.07710000000000004  0.93795  0.25003  1.0000
  Al  Al20      1.0  0.08383  0.1682  0.2494  1.0000
  Al  Al21      1.0  0.16597000000000003  0.58073  0.08338  1.0000
  Al  Al22      1.0  0.86007  0.9374  0.25078  1.0000
  Al  Al23      1.0  0.41566  0.58535  0.08294  1.0000
  Al  Al24      1.0  0.4160999999999999  0.83116  0.08311  1.0000
  H   H1        1.0  0.55663  0.37266  0.98944  1.0000
  H   H2        1.0  0.15281  0.34682  0.27094  1.0000
  H   H3        1.0  0.13586999999999996  0.80568  0.27591  1.0000
  H   H4        1.0  0.23377000000000006  0.90169  0.25417  1.0000
  H   H5        1.0  0.32705  0.18745  0.7211199999999998  1.0000
  H   H6        1.0  0.32014  0.2248  0.76612  1.0000
  H   H7        1.0  0.86946  0.6669200000000001  0.76955  1.0000
  H   H8        1.0  0.52741  0.1461  0.84322  1.0000
  H   H9        1.0  0.58364  0.27292  0.85515  1.0000
  H   H10       1.0  0.58951  0.4259200000000001  0.83869  1.0000
  H   H11       1.0  0.7289599999999999  0.41615  0.85545  1.0000
  H   H12       1.0  0.7891099999999998  0.35185  0.8437899999999998  1.0000
  H   H13       1.0  0.8638499999999998  0.2011  0.7735  1.0000
  H   H14       1.0  0.66544  0.89759  0.24447  1.0000
  H   H15       1.0  0.66624  0.82411  0.28052  1.0000
  H   H16       1.0  0.41158  0.72722  0.14606  1.0000
  H   H17       1.0  0.33690999999999993  0.7768400000000001  0.15495  1.0000
  H   H18       1.0  0.41147  0.57342  0.16166  1.0000
  H   H19       1.0  0.27439  0.57993  0.14512  1.0000
  H   H20       1.0  0.14874  0.52328  0.16002  1.0000
  H   H21       1.0  0.37854999999999983  0.8625400000000001  0.34417  1.0000
  H   H22       1.0  0.59099  0.16112  0.66053  1.0000
  H   H23       1.0  0.72801  0.30725  0.64455  1.0000
  H   H24       1.0  0.85405  0.3675  0.65719  1.0000
  H   H25       1.0  0.5861299999999999  0.31517  0.64578  1.0000
  H   H26       1.0  0.64716  0.43952  0.658  1.0000
  H   H27       1.0  0.37325999999999987  0.51556  0.3449  1.0000
  H   H28       1.0  0.28323  0.69671  0.35612  1.0000
  H   H29       1.0  0.28236  0.58839  0.35698  1.0000
  H   H30       1.0  0.43125999999999987  0.80885  0.00956  1.0000
  H   H31       1.0  0.55709  0.18508000000000002  0.99244  1.0000
  H   H32       1.0  0.37257  0.55472  0.00959  1.0000
  H   H33       1.0  0.4685599999999999  0.8216900000000001  0.48392  1.0000
  H   H34       1.0  0.8167499999999998  0.36608  0.98969  1.0000
  H   H35       1.0  0.18392  0.56235  0.00973  1.0000
  H   H36       1.0  0.18573  0.55724  0.48929  1.0000
  H   H37       1.0  0.8106699999999999  0.39715  0.50712  1.0000
  H   H38       1.0  0.24377000000000001  0.75166  0.05507  1.0000
  H   H39       1.0  0.23079  0.45852  0.07421  1.0000
  H   H40       1.0  0.53783  0.76849  0.06975  1.0000
  H   H41       1.0  0.76925  0.2328  0.92006  1.0000
  H   H42       1.0  0.74728  0.49711  0.95506  1.0000
  H   H43       1.0  0.46152999999999983  0.23275  0.92681  1.0000
  H   H44       1.0  0.26474  0.74931  0.45842  1.0000
  H   H45       1.0  0.7689  0.23226  0.56869  1.0000
  H   H46       1.0  0.7697799999999998  0.53758  0.57755  1.0000
  H   H47       1.0  0.6227499999999998  0.18325  0.50845  1.0000
  H   H48       1.0  0.46361  0.23238  0.56886  1.0000
  H   H49       1.0  0.5653199999999999  0.3776  0.5092  1.0000
  H   H50       1.0  0.3794  0.56369  0.48731  1.0000
  H   H51       1.0  0.5368200000000001  0.7702700000000001  0.40534  1.0000
  H   H52       1.0  0.23394000000000004  0.4643900000000001  0.43002  1.0000
  H   H53       1.0  0.21429999999999993  0.42892  0.95425  1.0000
  H   H54       1.0  0.28717  0.27594  0.85338  1.0000
  H   H55       1.0  0.72108  0.012100000000000001  0.64741  1.0000
  H   H56       1.0  0.28836  0.0173  0.64796  1.0000
  H   H57       1.0  0.28202  0.020340000000000004  0.85389  1.0000
  H   H58       1.0  0.72105  0.013640000000000001  0.85221  1.0000
  H   H59       1.0  0.99157  0.28132  0.85175  1.0000
  H   H60       1.0  0.58083  0.78804  0.54459  1.0000
  H   H61       1.0  0.7202599999999998  0.71297  0.65033  1.0000
  H   H62       1.0  0.21402999999999994  0.7848500000000002  0.54953  1.0000
  H   H63       1.0  0.2874399999999999  0.27308  0.64401  1.0000
  H   H64       1.0  0.2108  0.42237  0.5429  1.0000
  H   H65       1.0  0.20627000000000006  0.79726  0.95688  1.0000
  H   H66       1.0  0.7262799999999999  0.71785  0.85194  1.0000
  H   H67       1.0  0.57012  0.78504  0.95359  1.0000
  H   H68       1.0  0.9883699999999999  0.71863  0.65044  1.0000
  H   H69       1.0  0.98567  0.26713  0.64444  1.0000
  H   H70       1.0  0.9846199999999998  0.72012  0.85381  1.0000
  H   H71       1.0  0.009879999999999988  0.28227  0.14643  1.0000
  H   H72       1.0  0.014209999999999971  0.73017  0.15032  1.0000
  H   H73       1.0  0.017629999999999976  0.29288  0.35323  1.0000
  H   H74       1.0  0.42901999999999996  0.21285  0.04713  1.0000
  H   H75       1.0  0.28029  0.28934  0.14873  1.0000
  H   H76       1.0  0.78874  0.20369  0.04271  1.0000
  H   H77       1.0  0.71769  0.73538  0.14869  1.0000
  H   H78       1.0  0.78687  0.57352  0.04998  1.0000
  H   H79       1.0  0.79043  0.22146  0.45346  1.0000
  H   H80       1.0  0.27192  0.28695  0.3553499999999999  1.0000
  H   H81       1.0  0.41367  0.20504000000000003  0.45803  1.0000
  H   H82       1.0  0.27965000000000007  0.9896400000000001  0.14952  1.0000
  H   H83       1.0  0.71099  0.98342  0.14633  1.0000
  H   H84       1.0  0.71698  0.99385  0.35354  1.0000
  H   H85       1.0  0.26655  0.98434  0.35556  1.0000
  H   H86       1.0  0.017850000000000008  0.73058  0.3507  1.0000
  H   H87       1.0  0.7951299999999999  0.58347  0.45285  1.0000
  H   H88       1.0  0.7138299999999997  0.72276  0.34943  1.0000
  C   C1        1.0  0.13579  0.27161  0.8487  1.0000
  C   C2        1.0  0.067  0.30269  0.86723  1.0000
  C   C3        1.0  0.09517000000000003  0.36018  0.9052199999999998  1.0000
  C   C4        1.0  0.19250999999999996  0.38558000000000003  0.92462  1.0000
  C   C5        1.0  0.10196999999999999  0.20616000000000004  0.8088699999999998  1.0000
  C   C6        1.0  0.024560000000000005  0.39675  0.92507  1.0000
  C   C7        1.0  0.23374999999999999  0.29948  0.86795  1.0000
  C   C8        1.0  0.26253000000000004  0.35652  0.90604  1.0000
  C   C9        1.0  0.36815000000000003  0.38950000000000007  0.92645  1.0000
  C   C10       1.0  0.72755  0.86617  0.65198  1.0000
  C   C11       1.0  0.6997699999999998  0.936  0.6324  1.0000
  C   C12       1.0  0.6462799999999997  0.9078  0.59367  1.0000
  C   C13       1.0  0.62102  0.80984  0.57491  1.0000
  C   C14       1.0  0.7915199999999998  0.8997  0.69165  1.0000
  C   C15       1.0  0.61411  0.9799300000000001  0.57252  1.0000
  C   C16       1.0  0.69922  0.76657  0.63403  1.0000
  C   C17       1.0  0.64599  0.73844  0.59527  1.0000
  C   C18       1.0  0.61414  0.63358  0.57485  1.0000
  C   C19       1.0  0.13446000000000002  0.87204  0.65259  1.0000
  C   C20       1.0  0.06466000000000008  0.7709800000000001  0.63497  1.0000
  C   C21       1.0  0.09337000000000009  0.7393000000000001  0.59783  1.0000
  C   C22       1.0  0.19199  0.80879  0.57857  1.0000
  C   C23       1.0  0.09949999999999998  0.90601  0.69118  1.0000
  C   C24       1.0  0.02267999999999997  0.63276  0.57763  1.0000
  C   C25       1.0  0.23401999999999995  0.93992  0.6338  1.0000
  C   C26       1.0  0.26303000000000004  0.9081800000000001  0.59666  1.0000
  C   C27       1.0  0.36912  0.97737  0.57597  1.0000
  C   C28       1.0  0.13211  0.26172  0.64802  1.0000
  C   C29       1.0  0.23164  0.29323  0.62926  1.0000
  C   C30       1.0  0.26007  0.35141  0.59134  1.0000
  C   C31       1.0  0.1888  0.37768  0.5723099999999998  1.0000
  C   C32       1.0  0.09868  0.19743  0.68817  1.0000
  C   C33       1.0  0.36733000000000005  0.39015000000000005  0.57161  1.0000
  C   C34       1.0  0.061909999999999986  0.2906  0.62914  1.0000
  C   C35       1.0  0.09035999999999997  0.34883  0.59126  1.0000
  C   C36       1.0  0.02078999999999999  0.38581  0.57119  1.0000
  C   C37       1.0  0.12944000000000006  0.8746100000000001  0.8503699999999997  1.0000
  C   C38       1.0  0.22810000000000005  0.9443900000000001  0.86928  1.0000
  C   C39       1.0  0.25624999999999987  0.9162399999999999  0.90755  1.0000
  C   C40       1.0  0.18485  0.81864  0.92705  1.0000
  C   C41       1.0  0.09744999999999998  0.90635  0.81008  1.0000
  C   C42       1.0  0.36239000000000005  0.9850000000000001  0.92767  1.0000
  C   C43       1.0  0.05997000000000011  0.7750300000000001  0.86923  1.0000
  C   C44       1.0  0.08760000000000007  0.7472000000000001  0.90776  1.0000
  C   C45       1.0  0.018019999999999987  0.6407399999999999  0.92818  1.0000
  C   C46       1.0  0.7313799999999998  0.86978  0.84922  1.0000
  C   C47       1.0  0.7020799999999998  0.7699999999999999  0.86733  1.0000
  C   C48       1.0  0.6437299999999998  0.73954  0.905  1.0000
  C   C49       1.0  0.61428  0.80874  0.92411  1.0000
  C   C50       1.0  0.79883  0.90426  0.8101599999999998  1.0000
  C   C51       1.0  0.61142  0.63411  0.92519  1.0000
  C   C52       1.0  0.6993599999999999  0.93762  0.86753  1.0000
  C   C53       1.0  0.6404299999999998  0.90711  0.90514  1.0000
  C   C54       1.0  0.6046  0.97704  0.92516  1.0000
  C   C55       1.0  0.27304  0.13617  0.15258  1.0000
  C   C56       1.0  0.3023999999999999  0.06606  0.13437  1.0000
  C   C57       1.0  0.35951  0.09413  0.09639  1.0000
  C   C58       1.0  0.38635  0.19192  0.07692  1.0000
  C   C59       1.0  0.20666  0.10458  0.19175  1.0000
  C   C60       1.0  0.3934  0.02246  0.07626  1.0000
  C   C61       1.0  0.30259999999999987  0.23541  0.13362  1.0000
  C   C62       1.0  0.35941  0.2634  0.09555  1.0000
  C   C63       1.0  0.39356  0.36891  0.07466  1.0000
  C   C64       1.0  0.86459  0.1295  0.14993  1.0000
  C   C65       1.0  0.9346299999999997  0.2283  0.13077  1.0000
  C   C66       1.0  0.9074299999999997  0.25605  0.09221999999999997  1.0000
  C   C67       1.0  0.81047  0.18384000000000003  0.0728  1.0000
  C   C68       1.0  0.8980200000000002  0.10043  0.19017  1.0000
  C   C69       1.0  0.97794  0.36289  0.0723  1.0000
  C   C70       1.0  0.7662399999999999  0.05916  0.13109  1.0000
  C   C71       1.0  0.73947  0.08636  0.09236  1.0000
  C   C72       1.0  0.63372  0.01522  0.07226999999999997  1.0000
  C   C73       1.0  0.8699199999999998  0.74086  0.1529  1.0000
  C   C74       1.0  0.77043  0.71065  0.13427  1.0000
  C   C75       1.0  0.7402  0.6500599999999999  0.09710999999999997  1.0000
  C   C76       1.0  0.8096899999999998  0.61949  0.07903  1.0000
  C   C77       1.0  0.90427  0.81047  0.19132  1.0000
  C   C78       1.0  0.6349  0.61614  0.07608  1.0000
  C   C79       1.0  0.9379199999999999  0.7075300000000001  0.13526  1.0000
  C   C80       1.0  0.9076999999999997  0.64633  0.09822999999999997  1.0000
  C   C81       1.0  0.9770899999999996  0.60852  0.07811  1.0000
  C   C82       1.0  0.8714499999999997  0.13888  0.34962  1.0000
  C   C83       1.0  0.77184  0.07029  0.36817  1.0000
  C   C84       1.0  0.7418299999999998  0.10016  0.40542  1.0000
  C   C85       1.0  0.81274  0.19845  0.42426999999999987  1.0000
  C   C86       1.0  0.9032699999999999  0.10582  0.3102  1.0000
  C   C87       1.0  0.63304  0.0293  0.42408  1.0000
  C   C88       1.0  0.94112  0.23872  0.36807  1.0000
  C   C89       1.0  0.91184  0.26854  0.40558  1.0000
  C   C90       1.0  0.9829699999999999  0.37577  0.42544  1.0000
  C   C91       1.0  0.26053  0.13154  0.3514199999999999  1.0000
  C   C92       1.0  0.29109999999999997  0.23075000000000004  0.37051  1.0000
  C   C93       1.0  0.3468499999999999  0.25754  0.40877  1.0000
  C   C94       1.0  0.37078  0.18489  0.42826  1.0000
  C   C95       1.0  0.19975  0.10336  0.31088  1.0000
  C   C96       1.0  0.38635  0.36522  0.42818  1.0000
  C   C97       1.0  0.2879099999999999  0.06046  0.37048  1.0000
  C   C98       1.0  0.34289  0.08731  0.40891  1.0000
  C   C99       1.0  0.38023  0.01743  0.42842  1.0000
  C   C100      1.0  0.87017  0.73569  0.34602  1.0000
  C   C101      1.0  0.94102  0.7080799999999999  0.36515  1.0000
  C   C102      1.0  0.9137699999999997  0.65256  0.40349  1.0000
  C   C103      1.0  0.81555  0.62473  0.42261  1.0000
  C   C104      1.0  0.9028299999999998  0.8023500000000001  0.30714  1.0000
  C   C105      1.0  0.9869  0.62036  0.42434  1.0000
  C   C106      1.0  0.77012  0.70384  0.36455  1.0000
  C   C107      1.0  0.7426799999999998  0.64831  0.40289  1.0000
  C   C108      1.0  0.63606  0.61261  0.42328  1.0000
  O   O1        1.0  0.008889999999999976  0.1761  0.79567  1.0000
  O   O2        1.0  0.056749999999999995  0.44722  0.9600699999999998  1.0000
  O   O3        1.0  0.16982999999999995  0.18452000000000002  0.79172  1.0000
  O   O4        1.0  0.43444  0.37088  0.90646  1.0000
  O   O5        1.0  0.3843299999999999  0.43531  0.96238  1.0000
  O   O6        1.0  0.0061799999999999945  0.16876999999999998  0.70187  1.0000
  O   O7        1.0  0.99041  0.99996  0.7500099999999997  1.0000
  O   O8        1.0  0.005299999999999993  0.84391  0.70377  1.0000
  O   O9        1.0  0.009410000000000002  0.83824  0.79387  1.0000
  O   O10       1.0  0.62477  0.06108  0.59348  1.0000
  O   O11       1.0  0.8527699999999999  0.16155000000000003  0.74771  1.0000
  O   O12       1.0  0.4356099999999999  0.06539  0.5943  1.0000
  O   O13       1.0  0.43457999999999997  0.06484  0.90645  1.0000
  O   O14       1.0  0.31024  0.16241  0.7502  1.0000
  O   O15       1.0  0.62443  0.06436  0.9064  1.0000
  O   O16       1.0  0.93808  0.37617  0.90582  1.0000
  O   O17       1.0  0.5612599999999999  0.13201  0.52473  1.0000
  O   O18       1.0  0.54087  0.27286  0.57264  1.0000
  O   O19       1.0  0.61173  0.21695  0.63938  1.0000
  O   O20       1.0  0.5744399999999997  0.43955  0.52484  1.0000
  O   O21       1.0  0.7306599999999999  0.46001000000000003  0.58122  1.0000
  O   O22       1.0  0.58285  0.38456  0.6439  1.0000
  O   O23       1.0  0.73073  0.27211  0.56857  1.0000
  O   O24       1.0  0.8688099999999997  0.4471300000000001  0.52497  1.0000
  O   O25       1.0  0.80092  0.3796300000000001  0.64311  1.0000
  O   O26       1.0  0.16665999999999995  0.17628  0.70573  1.0000
  O   O27       1.0  0.94048  0.56151  0.5978999999999998  1.0000
  O   O28       1.0  0.43319999999999986  0.37148  0.59168  1.0000
  O   O29       1.0  0.9371699999999997  0.36966  0.59156  1.0000
  O   O30       1.0  0.62344  0.56216  0.59598  1.0000
  O   O31       1.0  0.6126599999999998  0.062290000000000005  0.45843  1.0000
  O   O32       1.0  0.41046999999999995  0.03632  0.46674  1.0000
  O   O33       1.0  0.8156  0.99118  0.70633  1.0000
  O   O34       1.0  0.57745  0.95379  0.53514  1.0000
  O   O35       1.0  0.43991  0.86545  0.47296  1.0000
  O   O36       1.0  0.2736100000000001  0.7361500000000001  0.42907  1.0000
  O   O37       1.0  0.38842  0.80637  0.35639  1.0000
  O   O38       1.0  0.81667  0.8336  0.70671  1.0000
  O   O39       1.0  0.57861  0.62287  0.53746  1.0000
  O   O40       1.0  0.05186999999999993  0.62109  0.54111  1.0000
  O   O41       1.0  0.13768  0.57666  0.47545  1.0000
  O   O42       1.0  0.2725  0.5421  0.43326  1.0000
  O   O43       1.0  0.2270599999999999  0.61539  0.36058  1.0000
  O   O44       1.0  0.16736000000000004  0.99559  0.70845  1.0000
  O   O45       1.0  0.38554  0.94227  0.54162  1.0000
  O   O46       1.0  0.38497000000000003  0.4403500000000001  0.53664  1.0000
  O   O47       1.0  0.4445599999999999  0.57717  0.47304  1.0000
  O   O48       1.0  0.46652  0.73495  0.41862  1.0000
  O   O49       1.0  0.38361  0.58041  0.35837  1.0000
  O   O50       1.0  0.050930000000000024  0.4326  0.5355599999999998  1.0000
  O   O51       1.0  0.16214  0.00046999999999999966  0.79577  1.0000
  O   O52       1.0  0.37456  0.9579500000000001  0.9646  1.0000
  O   O53       1.0  0.04126999999999998  0.62959  0.96612  1.0000
  O   O54       1.0  0.82455  0.83807  0.79586  1.0000
  O   O55       1.0  0.6196599999999999  0.56307  0.90397  1.0000
  O   O56       1.0  0.57608  0.62278  0.96287  1.0000
  O   O57       1.0  0.8452799999999998  0.69768  0.74816  1.0000
  O   O58       1.0  0.82343  0.99599  0.7956  1.0000
  O   O59       1.0  0.55493  0.94406  0.96027  1.0000
  O   O60       1.0  0.06377000000000005  0.62537  0.40272  1.0000
  O   O61       1.0  0.56989  0.94437  0.40394  1.0000
  O   O62       1.0  0.36608  0.43024  0.40861  1.0000
  O   O63       1.0  0.38237  0.94756  0.40473  1.0000
  O   O64       1.0  0.06969999999999998  0.4403  0.4063  1.0000
  O   O65       1.0  0.56552  0.62126  0.40213  1.0000
  O   O66       1.0  0.43939  0.38367  0.4624799999999999  1.0000
  O   O67       1.0  0.62553  0.57444  0.4604  1.0000
  O   O68       1.0  0.94237  0.56784  0.90643  1.0000
  O   O69       1.0  0.96282  0.5882  0.46243  1.0000
  O   O70       1.0  0.9485599999999997  0.39328  0.46004  1.0000
  O   O71       1.0  0.06012000000000001  0.43077  0.09344  1.0000
  O   O72       1.0  0.05932000000000002  0.61983  0.09814  1.0000
  O   O73       1.0  0.005899999999999999  0.01238  0.25  1.0000
  O   O74       1.0  0.13349000000000005  0.5745  0.025659999999999992  1.0000
  O   O75       1.0  0.18384999999999996  0.01398  0.20842  1.0000
  O   O76       1.0  0.4375099999999999  0.0523  0.04006  1.0000
  O   O77       1.0  0.17721000000000003  0.16838000000000003  0.2048  1.0000
  O   O78       1.0  0.37498000000000004  0.43587000000000004  0.09412  1.0000
  O   O79       1.0  0.43995  0.3840199999999999  0.03896  1.0000
  O   O80       1.0  0.99233  0.16301  0.20229  1.0000
  O   O81       1.0  0.9503399999999997  0.37939  0.03608  1.0000
  O   O82       1.0  0.82852  0.01355  0.20886  1.0000
  O   O83       1.0  0.6201999999999999  0.04137  0.03543  1.0000
  O   O84       1.0  0.83922  0.83795  0.20608  1.0000
  O   O85       1.0  0.5646999999999999  0.62924  0.09592  1.0000
  O   O86       1.0  0.62307  0.57542  0.03953  1.0000
  O   O87       1.0  0.9966899999999997  0.83784  0.20616  1.0000
  O   O88       1.0  0.94714  0.56626  0.04175  1.0000
  O   O89       1.0  0.8377799999999997  0.011640000000000001  0.29571  1.0000
  O   O90       1.0  0.99198  0.17217  0.29358  1.0000
  O   O91       1.0  0.17516  0.16966  0.29579  1.0000
  O   O92       1.0  0.1541  0.31083  0.24549  1.0000
  O   O93       1.0  0.1766  0.0127  0.29398  1.0000
  O   O94       1.0  0.43624  0.56922  0.0252  1.0000
  O   O95       1.0  0.57034  0.13506  0.97678  1.0000
  O   O96       1.0  0.7314199999999998  0.27269  0.92292  1.0000
  O   O97       1.0  0.5879599999999999  0.20322000000000004  0.85828  1.0000
  O   O98       1.0  0.86409  0.4340200000000001  0.97583  1.0000
  O   O99       1.0  0.73163  0.46316  0.92749  1.0000
  O   O100      1.0  0.8006699999999999  0.41699  0.85783  1.0000
  O   O101      1.0  0.57392  0.43931000000000003  0.97528  1.0000
  O   O102      1.0  0.5388399999999998  0.27066  0.9309999999999998  1.0000
  O   O103      1.0  0.60724  0.38997  0.8605  1.0000
  O   O104      1.0  0.37764  0.93838  0.09613  1.0000
  O   O105      1.0  0.15820999999999993  0.849  0.25022  1.0000
  O   O106      1.0  0.56436  0.93506  0.09383  1.0000
  O   O107      1.0  0.69189  0.8492100000000001  0.252  1.0000
  O   O108      1.0  0.42218999999999995  0.86194  0.025099999999999997  1.0000
  O   O109      1.0  0.4603699999999999  0.73136  0.07283  1.0000
  O   O110      1.0  0.4073899999999999  0.7962199999999999  0.14373  1.0000
  O   O111      1.0  0.2674  0.53617  0.07055  1.0000
  O   O112      1.0  0.38804  0.60464  0.13989  1.0000
  O   O113      1.0  0.26892  0.72722  0.07883  1.0000
  O   O114      1.0  0.20279  0.58316  0.14351  1.0000
  O   O115      1.0  0.83788  0.8295900000000002  0.29175  1.0000
  O   O116      1.0  0.99528  0.83036  0.29167  1.0000
