data_image0
_chemical_formula_structural       Eu8Co6H24C96N12O72
_chemical_formula_sum              "Eu8 Co6 H24 C96 N12 O72"
_cell_length_a       14.565
_cell_length_b       14.565
_cell_length_c       18.045
_cell_angle_alpha    69.8347
_cell_angle_beta     69.8347
_cell_angle_gamma    87.86640000000001

_space_group_name_H-M_alt    "P 1"
_space_group_IT_number       1

loop_
  _space_group_symop_operation_xyz
  'x, y, z'

loop_
  _atom_site_type_symbol
  _atom_site_label
  _atom_site_symmetry_multiplicity
  _atom_site_fract_x
  _atom_site_fract_y
  _atom_site_fract_z
  _atom_site_occupancy
  Eu  Eu1       1.0  0.40698  0.05624000000000002  0.23299999999999996  1.0000
  Eu  Eu2       1.0  0.94376  0.5930199999999999  0.267  1.0000
  Eu  Eu3       1.0  0.59302  0.9437599999999999  0.7669999999999998  1.0000
  Eu  Eu4       1.0  0.05624000000000003  0.4069799999999999  0.7329999999999998  1.0000
  Eu  Eu5       1.0  0.024440000000000028  0.9755599999999998  0.24999999999999994  1.0000
  Eu  Eu6       1.0  0.9755599999999999  0.024440000000000052  0.7499999999999998  1.0000
  Eu  Eu7       1.0  0.31333000000000005  0.6866700000000001  0.7499999999999998  1.0000
  Eu  Eu8       1.0  0.6866700000000001  0.3133299999999999  0.24999999999999994  1.0000
  Co  Co1       1.0  0.7097900000000001  0.0044500000000000164  0.24398999999999996  1.0000
  Co  Co2       1.0  0.9955499999999999  0.2902100000000001  0.2560099999999999  1.0000
  Co  Co3       1.0  0.2902100000000001  0.9955499999999999  0.75601  1.0000
  Co  Co4       1.0  0.004449999999999994  0.7097899999999998  0.74399  1.0000
  Co  Co5       1.0  0.6662000000000001  0.3338  0.7499999999999998  1.0000
  Co  Co6       1.0  0.33379999999999993  0.6662  0.24999999999999994  1.0000
  H   H1        1.0  0.4527  0.8622999999999997  0.5242  1.0000
  H   H2        1.0  0.7253999999999999  0.8941999999999997  0.5311  1.0000
  H   H3        1.0  0.0902  0.7455999999999998  0.0252  1.0000
  H   H4        1.0  0.09479999999999997  0.021  0.0297  1.0000
  H   H5        1.0  0.40490000000000004  0.14070000000000002  0.9787999999999998  1.0000
  H   H6        1.0  0.2875  0.8618999999999998  0.06839999999999997  1.0000
  H   H7        1.0  0.1377000000000001  0.5473000000000001  0.9757999999999998  1.0000
  H   H8        1.0  0.10580000000000002  0.2746  0.9689  1.0000
  H   H9        1.0  0.2544  0.9097999999999999  0.4747999999999999  1.0000
  H   H10       1.0  0.979  0.9051999999999996  0.4703  1.0000
  H   H11       1.0  0.8593  0.5950999999999996  0.5212  1.0000
  H   H12       1.0  0.1381  0.7125  0.4315999999999999  1.0000
  H   H13       1.0  0.5473  0.13770000000000004  0.4757999999999999  1.0000
  H   H14       1.0  0.27459999999999996  0.10580000000000005  0.4688999999999999  1.0000
  H   H15       1.0  0.9098  0.2544000000000001  0.9747999999999998  1.0000
  H   H16       1.0  0.9051999999999999  0.9789999999999999  0.9702999999999998  1.0000
  H   H17       1.0  0.5951  0.8592999999999998  0.021199999999999993  1.0000
  H   H18       1.0  0.7125000000000001  0.13810000000000008  0.9315999999999998  1.0000
  H   H19       1.0  0.8623000000000001  0.4526999999999999  0.0242  1.0000
  H   H20       1.0  0.8942  0.7253999999999999  0.0311  1.0000
  H   H21       1.0  0.7456  0.09020000000000006  0.5251999999999998  1.0000
  H   H22       1.0  0.0210000000000001  0.09480000000000004  0.5296999999999997  1.0000
  H   H23       1.0  0.14069999999999996  0.4049  0.4788  1.0000
  H   H24       1.0  0.8619  0.2874999999999999  0.5683999999999998  1.0000
  C   C1        1.0  0.5612  0.9229999999999996  0.4106  1.0000
  C   C2        1.0  0.5194999999999999  0.8822999999999999  0.4973999999999999  1.0000
  C   C3        1.0  0.5819000000000001  0.8718999999999998  0.5440999999999998  1.0000
  C   C4        1.0  0.6828  0.8992000000000001  0.5018  1.0000
  C   C5        1.0  0.7167  0.9340999999999998  0.4135999999999999  1.0000
  C   C6        1.0  0.5042000000000001  0.9487999999999998  0.34899999999999987  1.0000
  C   C7        1.0  0.5386  0.8343999999999998  0.6397  1.0000
  C   C8        1.0  0.8236999999999999  0.9599000000000001  0.3577999999999999  1.0000
  C   C9        1.0  0.17210000000000011  0.8494999999999999  0.9166999999999997  1.0000
  C   C10       1.0  0.11170000000000009  0.8121  0.9989999999999998  1.0000
  C   C11       1.0  0.08279999999999997  0.8775999999999998  0.043  1.0000
  C   C12       1.0  0.1148  0.9765999999999998  0.0018999999999999996  1.0000
  C   C13       1.0  0.1774999999999999  0.007699999999999995  0.9185  1.0000
  C   C14       1.0  0.2116000000000001  0.7929999999999996  0.8583  1.0000
  C   C15       1.0  0.021400000000000027  0.8385999999999998  0.13549999999999995  1.0000
  C   C16       1.0  0.2234000000000001  0.11160000000000006  0.8642999999999997  1.0000
  C   C17       1.0  0.4668999999999999  0.06290000000000005  0.9042999999999998  1.0000
  C   C18       1.0  0.40329999999999994  0.07910000000000007  0.9741999999999997  1.0000
  C   C19       1.0  0.3360999999999999  0.0027000000000000023  0.0382  1.0000
  C   C20       1.0  0.3333  0.9132999999999998  0.0279  1.0000
  C   C21       1.0  0.40069999999999983  0.9015  0.9556  1.0000
  C   C22       1.0  0.5452999999999999  0.13830000000000006  0.8326999999999998  1.0000
  C   C23       1.0  0.2722999999999999  0.014900000000000004  0.12009999999999997  1.0000
  C   C24       1.0  0.41090000000000004  0.8057  0.9392999999999998  1.0000
  C   C25       1.0  0.07699999999999999  0.4387999999999999  0.0894  1.0000
  C   C26       1.0  0.11770000000000001  0.48049999999999987  0.002599999999999999  1.0000
  C   C27       1.0  0.12810000000000005  0.4181000000000001  0.9558999999999997  1.0000
  C   C28       1.0  0.10080000000000006  0.3171999999999999  0.9982  1.0000
  C   C29       1.0  0.06590000000000001  0.2833  0.08639999999999998  1.0000
  C   C30       1.0  0.05120000000000002  0.49579999999999985  0.151  1.0000
  C   C31       1.0  0.16559999999999994  0.46139999999999975  0.8603  1.0000
  C   C32       1.0  0.04010000000000001  0.17630000000000004  0.14219999999999994  1.0000
  C   C33       1.0  0.15050000000000008  0.8279  0.5832999999999998  1.0000
  C   C34       1.0  0.1879  0.8883  0.501  1.0000
  C   C35       1.0  0.12240000000000006  0.9171999999999999  0.4569999999999999  1.0000
  C   C36       1.0  0.02340000000000001  0.8851999999999998  0.4981  1.0000
  C   C37       1.0  0.9922999999999998  0.8225  0.5815  1.0000
  C   C38       1.0  0.20699999999999996  0.7883999999999998  0.6417  1.0000
  C   C39       1.0  0.16140000000000004  0.9786  0.3644999999999999  1.0000
  C   C40       1.0  0.8884  0.7765999999999998  0.6356999999999998  1.0000
  C   C41       1.0  0.9371000000000003  0.5331  0.5956999999999998  1.0000
  C   C42       1.0  0.9209000000000002  0.5966999999999998  0.5258  1.0000
  C   C43       1.0  0.9973  0.6638999999999998  0.4618  1.0000
  C   C44       1.0  0.08669999999999999  0.6666999999999997  0.4721  1.0000
  C   C45       1.0  0.09850000000000002  0.5992999999999998  0.5444  1.0000
  C   C46       1.0  0.8617  0.45469999999999994  0.6673  1.0000
  C   C47       1.0  0.9851000000000001  0.7276999999999998  0.3798999999999999  1.0000
  C   C48       1.0  0.19430000000000008  0.5890999999999997  0.5606999999999998  1.0000
  C   C49       1.0  0.4388000000000001  0.07700000000000007  0.5893999999999998  1.0000
  C   C50       1.0  0.4805  0.1177  0.5026  1.0000
  C   C51       1.0  0.4181000000000001  0.12809999999999996  0.4559  1.0000
  C   C52       1.0  0.3172  0.10080000000000003  0.49819999999999987  1.0000
  C   C53       1.0  0.28330000000000005  0.06590000000000007  0.5863999999999998  1.0000
  C   C54       1.0  0.4957999999999999  0.05120000000000002  0.651  1.0000
  C   C55       1.0  0.4614  0.16560000000000002  0.3602999999999999  1.0000
  C   C56       1.0  0.1763  0.0401  0.6422  1.0000
  C   C57       1.0  0.8278999999999997  0.1505  0.0833  1.0000
  C   C58       1.0  0.8882999999999999  0.18789999999999998  0.001  1.0000
  C   C59       1.0  0.9172  0.12240000000000008  0.9569999999999997  1.0000
  C   C60       1.0  0.8851999999999999  0.023400000000000122  0.9980999999999998  1.0000
  C   C61       1.0  0.8225  0.9922999999999997  0.0815  1.0000
  C   C62       1.0  0.7884  0.20699999999999996  0.14169999999999994  1.0000
  C   C63       1.0  0.9786000000000001  0.16139999999999988  0.8645  1.0000
  C   C64       1.0  0.7766  0.8883999999999997  0.1357  1.0000
  C   C65       1.0  0.5331  0.9370999999999998  0.0957  1.0000
  C   C66       1.0  0.5967  0.9209  0.025799999999999993  1.0000
  C   C67       1.0  0.6639000000000003  0.9972999999999999  0.9617999999999998  1.0000
  C   C68       1.0  0.6667000000000001  0.0867000000000001  0.9720999999999997  1.0000
  C   C69       1.0  0.5993  0.0985  0.04439999999999999  1.0000
  C   C70       1.0  0.45469999999999994  0.8616999999999998  0.16729999999999995  1.0000
  C   C71       1.0  0.7276999999999999  0.9851000000000001  0.8799  1.0000
  C   C72       1.0  0.5891  0.19429999999999994  0.06069999999999998  1.0000
  C   C73       1.0  0.9230000000000002  0.5611999999999999  0.9105999999999997  1.0000
  C   C74       1.0  0.8823000000000002  0.5195  0.9973999999999997  1.0000
  C   C75       1.0  0.8719  0.5819  0.044099999999999986  1.0000
  C   C76       1.0  0.8992  0.6828  0.0018  1.0000
  C   C77       1.0  0.9341000000000002  0.7167000000000002  0.9135999999999997  1.0000
  C   C78       1.0  0.9488000000000001  0.5042  0.849  1.0000
  C   C79       1.0  0.8344  0.5385999999999997  0.1397  1.0000
  C   C80       1.0  0.9598999999999999  0.8236999999999999  0.8578  1.0000
  C   C81       1.0  0.8494999999999998  0.1721  0.4166999999999999  1.0000
  C   C82       1.0  0.8121  0.11170000000000002  0.4989999999999999  1.0000
  C   C83       1.0  0.8776  0.08279999999999997  0.543  1.0000
  C   C84       1.0  0.9765999999999998  0.11480000000000004  0.5018999999999998  1.0000
  C   C85       1.0  0.007700000000000023  0.17750000000000005  0.41849999999999987  1.0000
  C   C86       1.0  0.793  0.21160000000000007  0.3582999999999999  1.0000
  C   C87       1.0  0.8385999999999999  0.02140000000000003  0.6355  1.0000
  C   C88       1.0  0.11159999999999999  0.22339999999999988  0.3643  1.0000
  C   C89       1.0  0.06290000000000004  0.4669  0.4042999999999999  1.0000
  C   C90       1.0  0.07910000000000003  0.4032999999999999  0.4742  1.0000
  C   C91       1.0  0.0027000000000000027  0.3360999999999998  0.5382  1.0000
  C   C92       1.0  0.9133  0.3333  0.5279  1.0000
  C   C93       1.0  0.9015000000000001  0.40070000000000006  0.4555999999999999  1.0000
  C   C94       1.0  0.1383  0.5453  0.3327  1.0000
  C   C95       1.0  0.014899999999999965  0.2723  0.6201  1.0000
  C   C96       1.0  0.8057  0.41090000000000004  0.4392999999999999  1.0000
  N   N1        1.0  0.6576999999999997  0.9487000000000001  0.3703999999999999  1.0000
  N   N2        1.0  0.20530000000000012  0.9449000000000001  0.8785999999999998  1.0000
  N   N3        1.0  0.4670000000000001  0.9748000000000001  0.8945999999999997  1.0000
  N   N4        1.0  0.051300000000000026  0.34229999999999994  0.12959999999999994  1.0000
  N   N5        1.0  0.055100000000000086  0.7947000000000001  0.6213999999999997  1.0000
  N   N6        1.0  0.025200000000000132  0.533  0.6053999999999998  1.0000
  N   N7        1.0  0.3423  0.05130000000000011  0.6295999999999998  1.0000
  N   N8        1.0  0.7946999999999999  0.0551  0.12139999999999997  1.0000
  N   N9        1.0  0.5329999999999999  0.025199999999999997  0.10539999999999997  1.0000
  N   N10       1.0  0.9487000000000002  0.6576999999999998  0.8703999999999997  1.0000
  N   N11       1.0  0.9449000000000001  0.20530000000000004  0.3785999999999999  1.0000
  N   N12       1.0  0.9748  0.467  0.3945999999999999  1.0000
  O   O1        1.0  0.5566  0.9968  0.2735  1.0000
  O   O2        1.0  0.4167  0.9274999999999998  0.3752999999999999  1.0000
  O   O3        1.0  0.4632  0.7785999999999997  0.6745  1.0000
  O   O4        1.0  0.5851  0.8602999999999997  0.6762999999999998  1.0000
  O   O5        1.0  0.8887000000000002  0.9510999999999996  0.3875  1.0000
  O   O6        1.0  0.8419999999999997  0.9902000000000001  0.2774999999999999  1.0000
  O   O7        1.0  0.2793000000000001  0.8379  0.7864999999999998  1.0000
  O   O8        1.0  0.1797000000000002  0.7066999999999999  0.8794999999999997  1.0000
  O   O9        1.0  0.0068999999999999955  0.7490999999999998  0.1689  1.0000
  O   O10       1.0  0.9887999999999998  0.8969999999999998  0.17179999999999995  1.0000
  O   O11       1.0  0.20620000000000008  0.17640000000000006  0.8934999999999997  1.0000
  O   O12       1.0  0.28239999999999993  0.12100000000000008  0.7895999999999997  1.0000
  O   O13       1.0  0.6013  0.10609999999999997  0.7754  1.0000
  O   O14       1.0  0.5521999999999998  0.22200000000000006  0.8336  1.0000
  O   O15       1.0  0.19050000000000003  0.9664999999999998  0.15929999999999994  1.0000
  O   O16       1.0  0.3115  0.07030000000000002  0.14259999999999995  1.0000
  O   O17       1.0  0.35380000000000006  0.7336000000000003  0.9883999999999997  1.0000
  O   O18       1.0  0.4813999999999999  0.8068000000000001  0.8717  1.0000
  O   O19       1.0  0.003200000000000022  0.4433999999999999  0.22649999999999995  1.0000
  O   O20       1.0  0.07250000000000001  0.5832999999999998  0.12469999999999998  1.0000
  O   O21       1.0  0.2214000000000001  0.5368000000000002  0.8254999999999998  1.0000
  O   O22       1.0  0.13970000000000005  0.4149000000000001  0.8236999999999998  1.0000
  O   O23       1.0  0.04889999999999998  0.11129999999999995  0.1125  1.0000
  O   O24       1.0  0.009800000000000024  0.15800000000000003  0.22249999999999995  1.0000
  O   O25       1.0  0.16210000000000013  0.7206999999999999  0.7134999999999998  1.0000
  O   O26       1.0  0.2933  0.8202999999999999  0.6205  1.0000
  O   O27       1.0  0.25089999999999996  0.9931  0.3311  1.0000
  O   O28       1.0  0.10300000000000002  0.011200000000000054  0.3281999999999999  1.0000
  O   O29       1.0  0.8235999999999998  0.7938  0.6064999999999998  1.0000
  O   O30       1.0  0.879  0.7175999999999999  0.7103999999999998  1.0000
  O   O31       1.0  0.8939000000000001  0.39869999999999994  0.7246  1.0000
  O   O32       1.0  0.7779999999999998  0.44779999999999975  0.6664  1.0000
  O   O33       1.0  0.0335  0.8094999999999998  0.3407  1.0000
  O   O34       1.0  0.9297000000000001  0.6884999999999996  0.3574  1.0000
  O   O35       1.0  0.2664  0.6461999999999998  0.5116  1.0000
  O   O36       1.0  0.19319999999999993  0.5186  0.6283  1.0000
  O   O37       1.0  0.4434  0.0032000000000000414  0.7265  1.0000
  O   O38       1.0  0.5833  0.07249999999999997  0.6247  1.0000
  O   O39       1.0  0.5368  0.2213999999999999  0.3255  1.0000
  O   O40       1.0  0.4149  0.13970000000000002  0.3237  1.0000
  O   O41       1.0  0.11130000000000008  0.04890000000000006  0.6124999999999998  1.0000
  O   O42       1.0  0.15800000000000003  0.009799999999999993  0.7225  1.0000
  O   O43       1.0  0.7207  0.16210000000000002  0.21349999999999994  1.0000
  O   O44       1.0  0.8203  0.2933  0.12049999999999997  1.0000
  O   O45       1.0  0.9931  0.2509  0.8311  1.0000
  O   O46       1.0  0.011200000000000095  0.10300000000000008  0.8281999999999998  1.0000
  O   O47       1.0  0.7938  0.8235999999999998  0.10649999999999997  1.0000
  O   O48       1.0  0.7176000000000001  0.879  0.21039999999999995  1.0000
  O   O49       1.0  0.3987  0.8938999999999997  0.2246  1.0000
  O   O50       1.0  0.4478  0.7779999999999998  0.16639999999999994  1.0000
  O   O51       1.0  0.8095  0.03350000000000007  0.8406999999999998  1.0000
  O   O52       1.0  0.6885  0.9297  0.8573999999999998  1.0000
  O   O53       1.0  0.6461999999999999  0.2664  0.011599999999999996  1.0000
  O   O54       1.0  0.5186  0.19319999999999998  0.12829999999999994  1.0000
  O   O55       1.0  0.9968  0.5566  0.7734999999999997  1.0000
  O   O56       1.0  0.9275  0.4166999999999999  0.8753  1.0000
  O   O57       1.0  0.7786  0.4631999999999999  0.17449999999999993  1.0000
  O   O58       1.0  0.8603  0.5851  0.17629999999999996  1.0000
  O   O59       1.0  0.9511000000000002  0.8887  0.8874999999999997  1.0000
  O   O60       1.0  0.9901999999999999  0.842  0.7775  1.0000
  O   O61       1.0  0.8379  0.2793  0.28649999999999987  1.0000
  O   O62       1.0  0.7067  0.1796999999999999  0.3795  1.0000
  O   O63       1.0  0.7490999999999998  0.006899999999999969  0.6689  1.0000
  O   O64       1.0  0.897  0.9887999999999997  0.6717999999999997  1.0000
  O   O65       1.0  0.17639999999999995  0.2062  0.3934999999999999  1.0000
  O   O66       1.0  0.12100000000000005  0.28239999999999993  0.2895999999999999  1.0000
  O   O67       1.0  0.10610000000000004  0.6012999999999997  0.27539999999999987  1.0000
  O   O68       1.0  0.222  0.5522  0.3335999999999999  1.0000
  O   O69       1.0  0.9665  0.19050000000000006  0.6592999999999998  1.0000
  O   O70       1.0  0.07030000000000002  0.31149999999999994  0.6426  1.0000
  O   O71       1.0  0.7336  0.3538  0.4883999999999999  1.0000
  O   O72       1.0  0.8067999999999999  0.48139999999999994  0.37169999999999986  1.0000
