data_image0
_chemical_formula_structural       PrO3FCOFCOF3C7OCFC2PrO3FCOFCOF3C7OCFC2PrO3FCOFCOF3C7OCFC2PrO3FCOFCOF3C7OCFC2
_chemical_formula_sum              "Pr4 O24 F24 C48"
_cell_length_a       10.212
_cell_length_b       21.288
_cell_length_c       7.905
_cell_angle_alpha    90.0
_cell_angle_beta     98.85100000000001
_cell_angle_gamma    90.0

_space_group_name_H-M_alt    "P 1"
_space_group_IT_number       1

loop_
  _space_group_symop_operation_xyz
  'x, y, z'

loop_
  _atom_site_type_symbol
  _atom_site_label
  _atom_site_symmetry_multiplicity
  _atom_site_fract_x
  _atom_site_fract_y
  _atom_site_fract_z
  _atom_site_occupancy
  Pr  Pr1       1.0  0.01055  0.21505000000000002  0.00493  1.0000
  O   O1        1.0  0.8709000000000001  0.24050000000000005  0.2485  1.0000
  O   O2        1.0  0.24640000000000004  0.3101  0.4703000000000001  1.0000
  O   O3        1.0  0.7755  0.1838  0.0338  1.0000
  F   F1        1.0  0.5894  0.12270000000000002  0.2416  1.0000
  C   C1        1.0  0.7691  0.21670000000000003  0.16170000000000007  1.0000
  O   O4        1.0  0.1522  0.24200000000000002  0.2829  1.0000
  F   F2        1.0  0.666  0.3388  0.1775  1.0000
  C   C2        1.0  0.2529  0.272  0.3570000000000001  1.0000
  O   O5        1.0  0.9898  0.1328  0.7911  1.0000
  F   F3        1.0  0.4319  0.3644  0.2725  1.0000
  F   F4        1.0  0.3563  0.1478  0.3378  1.0000
  F   F5        1.0  0.23020000000000002  0.059000000000000004  0.6123000000000002  1.0000
  C   C3        1.0  0.6363  0.2301  0.2116  1.0000
  C   C4        1.0  0.552  0.18290000000000003  0.2503  1.0000
  C   C5        1.0  0.00029999999999999455  0.0602  0.5667  1.0000
  C   C6        1.0  0.3874  0.2566  0.306  1.0000
  C   C7        1.0  0.0007000000000000054  0.1272  0.6364  1.0000
  C   C8        1.0  0.43099999999999994  0.19630000000000003  0.2948  1.0000
  C   C9        1.0  0.5911000000000001  0.292  0.22160000000000005  1.0000
  O   O6        1.0  0.014499999999999999  0.1698  0.5307  1.0000
  C   C10       1.0  0.1175  0.0296  0.5578  1.0000
  F   F6        1.0  0.7693000000000001  0.0592  0.5155  1.0000
  C   C11       1.0  0.8831000000000001  0.0299  0.5084  1.0000
  C   C12       1.0  0.4706  0.3036  0.2676  1.0000
  Pr  Pr2       1.0  0.9894500000000002  0.7150500000000001  0.49507  1.0000
  O   O7        1.0  0.1291  0.7405000000000002  0.2515  1.0000
  O   O8        1.0  0.7536  0.8101  0.0297  1.0000
  O   O9        1.0  0.2245  0.6838  0.4662  1.0000
  F   F7        1.0  0.4106000000000001  0.6227  0.2584  1.0000
  C   C13       1.0  0.2309  0.7167  0.3383000000000001  1.0000
  O   O10       1.0  0.8478000000000001  0.742  0.2171  1.0000
  F   F8        1.0  0.334  0.8388  0.3225000000000001  1.0000
  C   C14       1.0  0.7471  0.7720000000000001  0.14300000000000004  1.0000
  O   O11       1.0  0.010199999999999999  0.6328  0.7089  1.0000
  F   F9        1.0  0.5681  0.8644000000000001  0.2275  1.0000
  F   F10       1.0  0.6437  0.6478000000000002  0.16220000000000007  1.0000
  F   F11       1.0  0.7698  0.559  0.8877  1.0000
  C   C15       1.0  0.3637  0.7301000000000001  0.2884  1.0000
  C   C16       1.0  0.44800000000000006  0.6829  0.24970000000000006  1.0000
  C   C17       1.0  0.9997000000000001  0.5602  0.9333  1.0000
  C   C18       1.0  0.6126  0.7566000000000002  0.19400000000000006  1.0000
  C   C19       1.0  0.9993  0.6272  0.8636  1.0000
  C   C20       1.0  0.569  0.6963000000000001  0.20520000000000005  1.0000
  C   C21       1.0  0.4089  0.7920000000000001  0.2784000000000001  1.0000
  O   O12       1.0  0.9855  0.6698  0.9693  1.0000
  C   C22       1.0  0.8825  0.5296  0.9422  1.0000
  F   F12       1.0  0.2307  0.5592  0.9845000000000003  1.0000
  C   C23       1.0  0.1169  0.5299  0.9916  1.0000
  C   C24       1.0  0.5294  0.8036  0.23240000000000005  1.0000
  Pr  Pr3       1.0  0.9894500000000002  0.7849500000000001  0.99507  1.0000
  O   O13       1.0  0.1291  0.7595000000000001  0.7515  1.0000
  O   O14       1.0  0.7536000000000003  0.6899  0.5297000000000002  1.0000
  O   O15       1.0  0.2245  0.8162000000000001  0.9662  1.0000
  F   F13       1.0  0.4106000000000001  0.8773  0.7584  1.0000
  C   C25       1.0  0.2309  0.7833  0.8383  1.0000
  O   O16       1.0  0.8478000000000001  0.758  0.7171000000000002  1.0000
  F   F14       1.0  0.334  0.6612  0.8225  1.0000
  C   C26       1.0  0.7471000000000001  0.7280000000000001  0.6430000000000002  1.0000
  O   O17       1.0  0.010200000000000004  0.8672  0.20890000000000006  1.0000
  F   F15       1.0  0.5681  0.6356000000000002  0.7275  1.0000
  F   F16       1.0  0.6437  0.8522  0.6622  1.0000
  F   F17       1.0  0.7698  0.941  0.3877  1.0000
  C   C27       1.0  0.3637  0.7699  0.7884  1.0000
  C   C28       1.0  0.44800000000000006  0.8171000000000002  0.7497  1.0000
  C   C29       1.0  0.9997000000000001  0.9398000000000001  0.4333  1.0000
  C   C30       1.0  0.6126000000000001  0.7434  0.694  1.0000
  C   C31       1.0  0.9993000000000002  0.8728  0.3636000000000001  1.0000
  C   C32       1.0  0.569  0.8037000000000001  0.7052  1.0000
  C   C33       1.0  0.4089  0.7080000000000001  0.7784  1.0000
  O   O18       1.0  0.9855  0.8302  0.4693000000000001  1.0000
  C   C34       1.0  0.8825  0.9704  0.4422000000000001  1.0000
  F   F18       1.0  0.2307  0.9408  0.4845000000000001  1.0000
  C   C35       1.0  0.1169  0.9701  0.4916  1.0000
  C   C36       1.0  0.5294  0.6964  0.7324  1.0000
  Pr  Pr4       1.0  0.010550000000000007  0.28495000000000004  0.50493  1.0000
  O   O19       1.0  0.8709000000000001  0.2595  0.7485  1.0000
  O   O20       1.0  0.24640000000000004  0.1899  0.9703  1.0000
  O   O21       1.0  0.7755  0.3162  0.5338  1.0000
  F   F19       1.0  0.5893999999999999  0.3773000000000001  0.7416  1.0000
  C   C37       1.0  0.7691  0.2833  0.6617  1.0000
  O   O22       1.0  0.1522  0.258  0.7829  1.0000
  F   F20       1.0  0.666  0.1612  0.6775000000000002  1.0000
  C   C38       1.0  0.2529  0.228  0.857  1.0000
  O   O23       1.0  0.9898  0.3672  0.2911  1.0000
  F   F21       1.0  0.4319  0.1356  0.7725  1.0000
  F   F22       1.0  0.3563  0.3522  0.8378000000000002  1.0000
  F   F23       1.0  0.2302  0.44100000000000006  0.1123  1.0000
  C   C39       1.0  0.6363  0.2699  0.7116  1.0000
  C   C40       1.0  0.552  0.3171  0.7503  1.0000
  C   C41       1.0  0.0003  0.4398  0.0667  1.0000
  C   C42       1.0  0.3874  0.2434  0.8060000000000003  1.0000
  C   C43       1.0  0.0007000000000000054  0.3728  0.13640000000000005  1.0000
  C   C44       1.0  0.43099999999999994  0.3037  0.7948000000000002  1.0000
  C   C45       1.0  0.5911  0.208  0.7216000000000002  1.0000
  O   O24       1.0  0.014500000000000002  0.3302  0.0307  1.0000
  C   C46       1.0  0.1175  0.4704  0.0578  1.0000
  F   F24       1.0  0.7693000000000001  0.4408  0.0155  1.0000
  C   C47       1.0  0.8831000000000001  0.4701000000000001  0.0084  1.0000
  C   C48       1.0  0.4706  0.1964  0.7676  1.0000
