data_image0
_chemical_formula_structural       Co8H72C104O32
_chemical_formula_sum              "Co8 H72 C104 O32"
_cell_length_a       15.12012395
_cell_length_b       10.58790156
_cell_length_c       28.0577394
_cell_angle_alpha    90.02909886
_cell_angle_beta     89.99963228
_cell_angle_gamma    89.9996786

_space_group_name_H-M_alt    "P 1"
_space_group_IT_number       1

loop_
  _space_group_symop_operation_xyz
  'x, y, z'

loop_
  _atom_site_type_symbol
  _atom_site_label
  _atom_site_symmetry_multiplicity
  _atom_site_fract_x
  _atom_site_fract_y
  _atom_site_fract_z
  _atom_site_occupancy
  Co  Co1       1.0  0.7499988  0.17408253  0.27816602  1.0000
  Co  Co2       1.0  0.25000067  0.67421687  0.7780478  1.0000
  Co  Co3       1.0  0.7500019399999998  0.17511139  0.72236124  1.0000
  Co  Co4       1.0  0.24999927  0.6744097  0.22180199  1.0000
  Co  Co5       1.0  0.25000031  0.82578507  0.7219503  1.0000
  Co  Co6       1.0  0.74999971  0.32586728  0.22184008000000005  1.0000
  Co  Co7       1.0  0.24999719999999995  0.8256191499999999  0.27820699  1.0000
  Co  Co8       1.0  0.7499995099999998  0.32489595  0.7776365  1.0000
  H   H1        1.0  0.61101433  0.37169515999999997  0.39068906  1.0000
  H   H2        1.0  0.32929342  0.32372306  0.45116031000000006  1.0000
  H   H3        1.0  0.4126896899999999  0.2114121  0.46256852  1.0000
  H   H4        1.0  0.4172529  0.30441552  0.4100812500000001  1.0000
  H   H5        1.0  0.11072447999999999  0.8723630699999999  0.89109981  1.0000
  H   H6        1.0  0.8293902399999997  0.82354798  0.95091744  1.0000
  H   H7        1.0  0.9130239299999998  0.7116752999999999  0.9626090300000001  1.0000
  H   H8        1.0  0.9180922099999997  0.8051693499999999  0.91028144  1.0000
  H   H9        1.0  0.8886785  0.37230581  0.60883646  1.0000
  H   H10       1.0  0.17042843  0.32376567  0.54891191  1.0000
  H   H11       1.0  0.08707239999999998  0.21137360999999996  0.53731928  1.0000
  H   H12       1.0  0.08195724999999997  0.30497248  0.58966355  1.0000
  H   H13       1.0  0.3892459699999999  0.87242638  0.10934724  1.0000
  H   H14       1.0  0.67057219  0.82272355  0.04894771000000001  1.0000
  H   H15       1.0  0.58659814  0.71151627  0.03718591000000001  1.0000
  H   H16       1.0  0.58219919  0.80410529  0.08981441  1.0000
  H   H17       1.0  0.11073318  0.6276295  0.60889715  1.0000
  H   H18       1.0  0.82938715  0.6764777  0.54908384  1.0000
  H   H19       1.0  0.9130286999999998  0.78833399  0.537388  1.0000
  H   H20       1.0  0.9180936399999998  0.69484502  0.5897170200000001  1.0000
  H   H21       1.0  0.61099693  0.12833724  0.10932618  1.0000
  H   H22       1.0  0.32928386999999987  0.17628392  0.04883602  1.0000
  H   H23       1.0  0.4126816399999999  0.28858959  0.03742753  1.0000
  H   H24       1.0  0.4172394399999999  0.19559306999999998  0.08991692  1.0000
  H   H25       1.0  0.3892198099999999  0.62751891  0.39065686  1.0000
  H   H26       1.0  0.67058035  0.67728543  0.4510464100000001  1.0000
  H   H27       1.0  0.58659927  0.78848347  0.46280773000000003  1.0000
  H   H28       1.0  0.5822047399999998  0.69588858  0.41018081000000006  1.0000
  H   H29       1.0  0.88868563  0.12772087  0.89116172  1.0000
  H   H30       1.0  0.170426  0.17625529  0.95108411  1.0000
  H   H31       1.0  0.08706365999999997  0.2886358  0.9626818700000003  1.0000
  H   H32       1.0  0.0819482  0.19504023999999998  0.9103373200000002  1.0000
  H   H33       1.0  0.38926877  0.62762757  0.6088956600000001  1.0000
  H   H34       1.0  0.67061551  0.67647586  0.54908224  1.0000
  H   H35       1.0  0.58697334  0.7883310999999997  0.53738489  1.0000
  H   H36       1.0  0.5819075699999998  0.69484658  0.58971512  1.0000
  H   H37       1.0  0.8890021399999998  0.12833871  0.10932654000000003  1.0000
  H   H38       1.0  0.17071375999999994  0.17628010999999996  0.04883614  1.0000
  H   H39       1.0  0.08731658999999997  0.28858887  0.03742869  1.0000
  H   H40       1.0  0.08275799  0.19559027  0.0899176  1.0000
  H   H41       1.0  0.11077822999999998  0.6275142  0.3906549900000001  1.0000
  H   H42       1.0  0.8294193799999998  0.67727996  0.4510496900000001  1.0000
  H   H43       1.0  0.9133972599999998  0.7884819699999999  0.46280909  1.0000
  H   H44       1.0  0.9177923699999998  0.69588679  0.4101822100000001  1.0000
  H   H45       1.0  0.61131268  0.12771792999999998  0.8911606300000002  1.0000
  H   H46       1.0  0.32957341  0.17625804  0.9510831400000003  1.0000
  H   H47       1.0  0.4129372799999999  0.28863506  0.96268014  1.0000
  H   H48       1.0  0.4180525799999999  0.19503642  0.91033636  1.0000
  H   H49       1.0  0.8889857199999998  0.37169042  0.39069115  1.0000
  H   H50       1.0  0.17071039999999996  0.3237167  0.45116119  1.0000
  H   H51       1.0  0.08731334999999997  0.21140933999999997  0.46257047  1.0000
  H   H52       1.0  0.08275143  0.30440998  0.41008251  1.0000
  H   H53       1.0  0.3892761499999999  0.8723600299999998  0.89109874  1.0000
  H   H54       1.0  0.6706097899999998  0.82354667  0.9509164700000001  1.0000
  H   H55       1.0  0.58697816  0.71167126  0.962607  1.0000
  H   H56       1.0  0.5819092899999998  0.80516862  0.91028036  1.0000
  H   H57       1.0  0.6113262  0.37230448  0.60883516  1.0000
  H   H58       1.0  0.3295752799999999  0.32376747  0.54891005  1.0000
  H   H59       1.0  0.41293064  0.21137338999999997  0.5373165  1.0000
  H   H60       1.0  0.41804490999999994  0.30496785  0.58966193  1.0000
  H   H61       1.0  0.11075223  0.8724226199999999  0.10934605000000003  1.0000
  H   H62       1.0  0.8294275099999998  0.82272325  0.04894918000000001  1.0000
  H   H63       1.0  0.91340412  0.7115183899999998  0.037186470000000006  1.0000
  H   H64       1.0  0.9178014399999997  0.8041073499999999  0.08981498000000003  1.0000
  H   H65       1.0  0.50067559  0.50008394  0.25774339  1.0000
  H   H66       1.0  0.99966852  0.00025895000000000003  0.75818229  1.0000
  H   H67       1.0  0.9996760299999999  0.49973794  0.74181576  1.0000
  H   H68       1.0  0.5006558599999997  0.9998968399999998  0.24226297  1.0000
  H   H69       1.0  0.50032665  0.49974044999999995  0.7418142400000001  1.0000
  H   H70       1.0  0.9993435899999997  0.99989771  0.24226255000000002  1.0000
  H   H71       1.0  0.9993179999999998  0.5000811799999999  0.25774349  1.0000
  H   H72       1.0  0.50033191  0.00025905000000000025  0.7581811000000003  1.0000
  C   C1        1.0  0.5637949  0.43149223  0.32179347  1.0000
  C   C2        1.0  0.6334324399999998  0.3625971499999999  0.29538682  1.0000
  C   C3        1.0  0.56236959  0.42859869999999994  0.3716882  1.0000
  C   C4        1.0  0.45297435  0.40528068  0.47470977  1.0000
  C   C5        1.0  0.40096409999999993  0.30635643  0.44809246  1.0000
  C   C6        1.0  0.06344517  0.9316857499999998  0.8221024000000001  1.0000
  C   C7        1.0  0.13315633999999996  0.86272078  0.79557471  1.0000
  C   C8        1.0  0.06207256999999999  0.9290791699999998  0.87202166  1.0000
  C   C9        1.0  0.9526320999999998  0.9057527099999999  0.97503373  1.0000
  C   C10       1.0  0.9011633099999998  0.80666164  0.9482078600000002  1.0000
  C   C11       1.0  0.9361231999999998  0.43142423  0.67783795  1.0000
  C   C12       1.0  0.8665909099999998  0.36239893  0.70434397  1.0000
  C   C13       1.0  0.9374465799999998  0.42884403  0.6279339700000002  1.0000
  C   C14       1.0  0.046972529999999985  0.40529389  0.52494322  1.0000
  C   C15       1.0  0.09871439999999997  0.3064688  0.55171493  1.0000
  C   C16       1.0  0.4366103099999999  0.9318436699999999  0.17829404000000004  1.0000
  C   C17       1.0  0.3668401899999999  0.86300354  0.20471961  1.0000
  C   C18       1.0  0.4379524499999999  0.92920139  0.12837004  1.0000
  C   C19       1.0  0.54733716  0.90571428  0.025265330000000003  1.0000
  C   C20       1.0  0.5987835399999998  0.80619597  0.051842200000000005  1.0000
  C   C21       1.0  0.06345091999999997  0.56831205  0.6778957100000003  1.0000
  C   C22       1.0  0.13316014  0.63727734  0.70442352  1.0000
  C   C23       1.0  0.06207813999999998  0.57092088  0.62797559  1.0000
  C   C24       1.0  0.9526252899999997  0.59425224  0.52496552  1.0000
  C   C25       1.0  0.9011618199999998  0.6933513199999999  0.55179108  1.0000
  C   C26       1.0  0.5637927799999999  0.06848482999999998  0.17821294  1.0000
  C   C27       1.0  0.6334384399999998  0.13735739  0.20461783000000006  1.0000
  C   C28       1.0  0.5623574899999998  0.07140012  0.12831908  1.0000
  C   C29       1.0  0.4529661299999999  0.09471971999999998  0.025289900000000008  1.0000
  C   C30       1.0  0.4009545  0.19364763  0.05190542  1.0000
  C   C31       1.0  0.4366158  0.56815723  0.32170882  1.0000
  C   C32       1.0  0.3668533999999999  0.63702521  0.29528541  1.0000
  C   C33       1.0  0.4379459899999999  0.57077495  0.37163349  1.0000
  C   C34       1.0  0.54734864  0.5942841399999998  0.47473238  1.0000
  C   C35       1.0  0.59879037  0.69380336  0.44815287  1.0000
  C   C36       1.0  0.9361215399999998  0.06858473  0.82216089  1.0000
  C   C37       1.0  0.8665903399999998  0.13761188999999996  0.79565405  1.0000
  C   C38       1.0  0.93744934  0.07117227  0.87206409  1.0000
  C   C39       1.0  0.04697492  0.09471070999999999  0.9750573000000002  1.0000
  C   C40       1.0  0.09871031  0.19354293  0.9482851900000001  1.0000
  C   C41       1.0  0.43655114  0.56831196  0.67789429  1.0000
  C   C42       1.0  0.36684101  0.63727759  0.7044223000000001  1.0000
  C   C43       1.0  0.4379241599999999  0.57091953  0.62797418  1.0000
  C   C44       1.0  0.54737846  0.5942503  0.52496435  1.0000
  C   C45       1.0  0.5988406299999998  0.69334998  0.55178926  1.0000
  C   C46       1.0  0.9362083399999998  0.06848893  0.17821321  1.0000
  C   C47       1.0  0.8665643199999998  0.13736356  0.20461867  1.0000
  C   C48       1.0  0.9376421599999998  0.07140185  0.12831948  1.0000
  C   C49       1.0  0.047031799999999985  0.09472080999999997  0.02529037  1.0000
  C   C50       1.0  0.09904343999999997  0.19364627  0.051906090000000016  1.0000
  C   C51       1.0  0.06338173999999998  0.56815006  0.3217080200000001  1.0000
  C   C52       1.0  0.13314489  0.63701638  0.29528449  1.0000
  C   C53       1.0  0.062052219999999984  0.57076887  0.37163256  1.0000
  C   C54       1.0  0.9526536899999999  0.59428378  0.47473349  1.0000
  C   C55       1.0  0.90120878  0.6938010599999999  0.4481546500000001  1.0000
  C   C56       1.0  0.56387818  0.06858313  0.82215978  1.0000
  C   C57       1.0  0.6334091899999997  0.1376114  0.79565296  1.0000
  C   C58       1.0  0.56254972  0.07116940999999999  0.8720629400000002  1.0000
  C   C59       1.0  0.4530234099999999  0.09470861  0.9750566900000002  1.0000
  C   C60       1.0  0.40128952  0.19354182  0.9482842600000002  1.0000
  C   C61       1.0  0.93619939  0.43149209  0.32179473  1.0000
  C   C62       1.0  0.8665589999999997  0.36260148  0.29538882  1.0000
  C   C63       1.0  0.9376285999999998  0.4285955299999999  0.37168957000000014  1.0000
  C   C64       1.0  0.04702921  0.40527958  0.47471067  1.0000
  C   C65       1.0  0.09903946999999998  0.30635274  0.4480937  1.0000
  C   C66       1.0  0.4365554799999999  0.93168432  0.8221013400000001  1.0000
  C   C67       1.0  0.36684455  0.86272026  0.7955738000000001  1.0000
  C   C68       1.0  0.4379279199999999  0.92907665  0.87202051  1.0000
  C   C69       1.0  0.54736617  0.90574908  0.9750331400000002  1.0000
  C   C70       1.0  0.5988370899999997  0.80665902  0.9482068700000003  1.0000
  C   C71       1.0  0.5638799099999998  0.43142413  0.67783652  1.0000
  C   C72       1.0  0.63341213  0.36239922999999996  0.7043427  1.0000
  C   C73       1.0  0.56255722  0.42884265  0.62793259  1.0000
  C   C74       1.0  0.4530320299999999  0.40529305  0.52494225  1.0000
  C   C75       1.0  0.4012890799999999  0.30646787  0.55171329  1.0000
  C   C76       1.0  0.06338707  0.93183991  0.17829327000000006  1.0000
  C   C77       1.0  0.13315508999999995  0.86299626  0.20471903000000005  1.0000
  C   C78       1.0  0.06204611999999999  0.9291983399999999  0.12836918  1.0000
  C   C79       1.0  0.9526611099999998  0.90571672  0.02526584  1.0000
  C   C80       1.0  0.9012164699999998  0.80619744  0.05184299000000001  1.0000
  C   C81       1.0  0.50034436  0.49994734  0.29653802  1.0000
  C   C82       1.0  0.50014758  0.49973165  0.39703833  1.0000
  C   C83       1.0  0.5001701  0.49975747  0.45017984  1.0000
  C   C84       1.0  0.9997729099999998  0.00016493000000000012  0.79697026  1.0000
  C   C85       1.0  0.9997796299999998  0.00016586000000000004  0.89738641  1.0000
  C   C86       1.0  0.9997811299999998  0.0002405200000000001  0.9505294200000001  1.0000
  C   C87       1.0  0.99977809  0.49983573  0.70302715  1.0000
  C   C88       1.0  0.9997794299999999  0.49984443  0.60261241  1.0000
  C   C89       1.0  0.99977756  0.49976752  0.54946977  1.0000
  C   C90       1.0  0.50033571  3.8249999999999954e-05  0.20346887  1.0000
  C   C91       1.0  0.50014656  0.00026534  0.10296357000000003  1.0000
  C   C92       1.0  0.5001631099999999  0.00024287999999999998  0.0498206  1.0000
  C   C93       1.0  0.50022437  0.49983654999999994  0.70302563  1.0000
  C   C94       1.0  0.5002239799999998  0.49984245999999993  0.6026111500000001  1.0000
  C   C95       1.0  0.50022674  0.49976543  0.54946855  1.0000
  C   C96       1.0  0.9996638399999997  3.884e-05  0.20346848  1.0000
  C   C97       1.0  0.9998521099999997  0.00026498  0.10296359  1.0000
  C   C98       1.0  0.9998349399999997  0.00024385999999999999  0.04982094  1.0000
  C   C99       1.0  0.9996508299999998  0.49994417  0.29653809  1.0000
  C   C100      1.0  0.9998518899999997  0.49972692  0.39703889  1.0000
  C   C101      1.0  0.9998316799999998  0.4997551199999999  0.45018068  1.0000
  C   C102      1.0  0.5002274699999998  0.00016408000000000023  0.7969689800000003  1.0000
  C   C103      1.0  0.5002196899999998  0.00016250000000000005  0.89738547  1.0000
  C   C104      1.0  0.5002171399999997  0.00023689999999999996  0.9505285  1.0000
  O   O1        1.0  0.6625436799999999  0.25952151  0.3135326  1.0000
  O   O2        1.0  0.6604290999999998  0.41110317999999996  0.25613101  1.0000
  O   O3        1.0  0.16239967  0.75952544  0.81358052  1.0000
  O   O4        1.0  0.16023497  0.9111753799999999  0.75631684  1.0000
  O   O5        1.0  0.8373342799999998  0.25907649  0.68646334  1.0000
  O   O6        1.0  0.8394515099999997  0.41072352999999995  0.74362021  1.0000
  O   O7        1.0  0.33751727  0.7600961299999999  0.18649037000000002  1.0000
  O   O8        1.0  0.3398142099999999  0.911232  0.24404404000000002  1.0000
  O   O9        1.0  0.16240097999999997  0.74047469  0.6864179900000001  1.0000
  O   O10       1.0  0.16023712  0.58882493  0.74368182  1.0000
  O   O11       1.0  0.6625525599999997  0.24042413  0.18647215000000003  1.0000
  O   O12       1.0  0.6604389099999998  0.08884015  0.24387259  1.0000
  O   O13       1.0  0.33753189  0.7399352999999999  0.3135173  1.0000
  O   O14       1.0  0.33982364999999987  0.5888073199999999  0.25596143  1.0000
  O   O15       1.0  0.8373310999999998  0.24093400999999998  0.81353451  1.0000
  O   O16       1.0  0.83945332  0.08928756999999998  0.75637758  1.0000
  O   O17       1.0  0.33760149  0.7404775399999999  0.6864175400000002  1.0000
  O   O18       1.0  0.3397622  0.58882329  0.74367993  1.0000
  O   O19       1.0  0.8374485099999998  0.24042932999999997  0.18647272  1.0000
  O   O20       1.0  0.8395658399999999  0.08884864  0.24387453  1.0000
  O   O21       1.0  0.16246323  0.73992902  0.31351593  1.0000
  O   O22       1.0  0.16017853999999995  0.5887972499999999  0.25596144  1.0000
  O   O23       1.0  0.66266551  0.24093415  0.8135334300000001  1.0000
  O   O24       1.0  0.6605489299999998  0.08928739  0.7563767100000002  1.0000
  O   O25       1.0  0.8374451499999997  0.25952866  0.31353489  1.0000
  O   O26       1.0  0.8395636899999998  0.41110807999999993  0.2561329  1.0000
  O   O27       1.0  0.33760326  0.7595233299999999  0.81357924  1.0000
  O   O28       1.0  0.3397641199999999  0.91117684  0.75631676  1.0000
  O   O29       1.0  0.66267136  0.25907728  0.68646209  1.0000
  O   O30       1.0  0.6605487199999999  0.41072346  0.74361927  1.0000
  O   O31       1.0  0.16247519999999993  0.76008504  0.18649119000000003  1.0000
  O   O32       1.0  0.16018233  0.9112281699999999  0.24404232000000006  1.0000
