data_image0
_chemical_formula_structural       C32F20H32N16Nb4Ni4O4
_chemical_formula_sum              "C32 F20 H32 N16 Nb4 Ni4 O4"
_cell_length_a       9.904
_cell_length_b       9.904
_cell_length_c       15.721
_cell_angle_alpha    90.0
_cell_angle_beta     90.0
_cell_angle_gamma    90.0

_space_group_name_H-M_alt    "P 1"
_space_group_IT_number       1

loop_
  _space_group_symop_operation_xyz
  'x, y, z'

loop_
  _atom_site_type_symbol
  _atom_site_label
  _atom_site_symmetry_multiplicity
  _atom_site_fract_x
  _atom_site_fract_y
  _atom_site_fract_z
  _atom_site_occupancy
  C   C1        1.0  0.67644  0.7226900000000002  0.42964000000000013  1.0000
  C   C2        1.0  0.3262900000000001  0.2672  0.56876  1.0000
  C   C3        1.0  0.72547  0.32348  0.4310100000000001  1.0000
  C   C4        1.0  0.27091000000000004  0.66618  0.5671900000000002  1.0000
  C   C5        1.0  0.6737100000000001  0.2672  0.06876  1.0000
  C   C6        1.0  0.32356000000000007  0.7226900000000002  0.9296400000000002  1.0000
  C   C7        1.0  0.72909  0.66618  0.06719  1.0000
  C   C8        1.0  0.27453  0.32349000000000006  0.9310100000000002  1.0000
  C   C9        1.0  0.17644000000000007  0.22269  0.9296400000000002  1.0000
  C   C10       1.0  0.82629  0.7672000000000002  0.06876  1.0000
  C   C11       1.0  0.22547000000000003  0.8234900000000002  0.9310100000000002  1.0000
  C   C12       1.0  0.77092  0.16618000000000002  0.06719  1.0000
  C   C13       1.0  0.17371  0.7672000000000002  0.56876  1.0000
  C   C14       1.0  0.8235600000000002  0.22269  0.42964000000000013  1.0000
  C   C15       1.0  0.22909000000000002  0.16618000000000002  0.5671900000000002  1.0000
  C   C16       1.0  0.7745300000000003  0.82348  0.4310100000000001  1.0000
  C   C17       1.0  0.7314100000000001  0.66389  0.5669200000000002  1.0000
  C   C18       1.0  0.27202000000000004  0.32586  0.4312900000000001  1.0000
  C   C19       1.0  0.67118  0.26478  0.5684500000000002  1.0000
  C   C20       1.0  0.3260100000000001  0.7249900000000001  0.4299100000000001  1.0000
  C   C21       1.0  0.7279800000000002  0.32586  0.93128  1.0000
  C   C22       1.0  0.26858000000000004  0.66389  0.06692  1.0000
  C   C23       1.0  0.6739900000000002  0.7249900000000001  0.9299100000000002  1.0000
  C   C24       1.0  0.32882  0.26479  0.06845000000000002  1.0000
  C   C25       1.0  0.23141000000000003  0.16389  0.06692  1.0000
  C   C26       1.0  0.77202  0.82586  0.93129  1.0000
  C   C27       1.0  0.17118  0.76479  0.06845000000000002  1.0000
  C   C28       1.0  0.8260100000000001  0.22499  0.9299100000000002  1.0000
  C   C29       1.0  0.22798000000000002  0.82586  0.4312900000000001  1.0000
  C   C30       1.0  0.76859  0.16389  0.5669200000000002  1.0000
  C   C31       1.0  0.17399000000000003  0.22499  0.4299100000000001  1.0000
  C   C32       1.0  0.8288200000000001  0.76478  0.5684500000000002  1.0000
  F   F1        1.0  0.49995000000000006  0.49388  0.3746400000000001  1.0000
  F   F2        1.0  0.49997  0.49389  0.8746400000000002  1.0000
  F   F3        1.0  0.99998  0.99387  0.8746400000000002  1.0000
  F   F4        1.0  3e-05  0.99387  0.3746500000000001  1.0000
  F   F5        1.0  0.50001  0.30539  0.25391000000000014  1.0000
  F   F6        1.0  0.49998  0.69389  0.7544800000000003  1.0000
  F   F7        1.0  0.50001  0.69389  0.25447  1.0000
  F   F8        1.0  0.49998  0.3054  0.7539000000000002  1.0000
  F   F9        1.0  0.69419  0.5001300000000001  0.25419000000000014  1.0000
  F   F10       1.0  0.30581  0.50012  0.75422  1.0000
  F   F11       1.0  0.3057  0.50012  0.25421  1.0000
  F   F12       1.0  0.6943000000000003  0.50012  0.75423  1.0000
  F   F13       1.0  1.0000000000000004e-05  0.8053900000000003  0.7539200000000003  1.0000
  F   F14       1.0  0.99999  0.19388000000000005  0.25447  1.0000
  F   F15       1.0  1.0000000000000004e-05  0.19388000000000005  0.7544800000000003  1.0000
  F   F16       1.0  0.99999  0.8053900000000003  0.2539200000000001  1.0000
  F   F17       1.0  0.19419000000000003  0.00012  0.7542  1.0000
  F   F18       1.0  0.8058100000000002  0.00013  0.25419000000000014  1.0000
  F   F19       1.0  0.8057  0.00012  0.75423  1.0000
  F   F20       1.0  0.1943  0.00012  0.25422  1.0000
  H   H1        1.0  0.61657  0.7056  0.3727300000000001  1.0000
  H   H2        1.0  0.3858900000000001  0.28411  0.62578  1.0000
  H   H3        1.0  0.70836  0.3873200000000001  0.37574000000000013  1.0000
  H   H4        1.0  0.2866000000000001  0.60169  0.62227  1.0000
  H   H5        1.0  0.61412  0.28412  0.12578000000000006  1.0000
  H   H6        1.0  0.38343  0.70561  0.8727300000000002  1.0000
  H   H7        1.0  0.7133900000000001  0.6017000000000001  0.12227000000000003  1.0000
  H   H8        1.0  0.2916400000000001  0.38733  0.8757300000000002  1.0000
  H   H9        1.0  0.11657  0.2056  0.8727200000000003  1.0000
  H   H10       1.0  0.8858800000000002  0.78411  0.12579  1.0000
  H   H11       1.0  0.20837  0.8873300000000001  0.8757400000000002  1.0000
  H   H12       1.0  0.78661  0.10170000000000001  0.12227000000000003  1.0000
  H   H13       1.0  0.11411  0.78411  0.62578  1.0000
  H   H14       1.0  0.8834300000000002  0.2056  0.3727300000000001  1.0000
  H   H15       1.0  0.21340000000000003  0.10169  0.62227  1.0000
  H   H16       1.0  0.7916400000000001  0.8873200000000002  0.3757300000000001  1.0000
  H   H17       1.0  0.7156100000000001  0.59949  0.62203  1.0000
  H   H18       1.0  0.2891900000000001  0.38968000000000014  0.376  1.0000
  H   H19       1.0  0.61151  0.2816  0.6254700000000002  1.0000
  H   H20       1.0  0.38594  0.70789  0.3730100000000001  1.0000
  H   H21       1.0  0.7108100000000002  0.38968000000000014  0.8760000000000002  1.0000
  H   H22       1.0  0.28439  0.59949  0.12203000000000003  1.0000
  H   H23       1.0  0.61405  0.7079  0.87301  1.0000
  H   H24       1.0  0.38849  0.2816  0.12547000000000005  1.0000
  H   H25       1.0  0.21561  0.09949  0.12203000000000003  1.0000
  H   H26       1.0  0.78919  0.8896900000000001  0.8760000000000002  1.0000
  H   H27       1.0  0.11151000000000003  0.7816000000000001  0.12547000000000005  1.0000
  H   H28       1.0  0.8859400000000001  0.20789  0.87301  1.0000
  H   H29       1.0  0.21081  0.8896800000000002  0.376  1.0000
  H   H30       1.0  0.78439  0.09949  0.62203  1.0000
  H   H31       1.0  0.11406  0.20789  0.3730100000000001  1.0000
  H   H32       1.0  0.8884900000000002  0.7816000000000001  0.6254700000000002  1.0000
  N   N1        1.0  0.34833  0.34740000000000004  0.5009200000000003  1.0000
  N   N2        1.0  0.6537  0.64326  0.4977800000000001  1.0000
  N   N3        1.0  0.64925  0.3451600000000001  0.50067  1.0000
  N   N4        1.0  0.34846000000000005  0.6453900000000001  0.4980100000000001  1.0000
  N   N5        1.0  0.6516700000000001  0.34740000000000004  0.0009200000000000002  1.0000
  N   N6        1.0  0.3463  0.6432700000000002  0.9977800000000001  1.0000
  N   N7        1.0  0.35076  0.3451600000000001  0.0006700000000000002  1.0000
  N   N8        1.0  0.65154  0.6453900000000001  0.9980100000000001  1.0000
  N   N9        1.0  0.8483300000000001  0.8474000000000003  0.0009200000000000002  1.0000
  N   N10       1.0  0.1537  0.14327  0.9977700000000002  1.0000
  N   N11       1.0  0.14925  0.84516  0.0006700000000000002  1.0000
  N   N12       1.0  0.84846  0.14539000000000002  0.9980000000000001  1.0000
  N   N13       1.0  0.15167  0.8473900000000001  0.5009200000000003  1.0000
  N   N14       1.0  0.8463000000000003  0.14326  0.4977800000000001  1.0000
  N   N15       1.0  0.85075  0.84516  0.50067  1.0000
  N   N16       1.0  0.15154  0.14539000000000002  0.4980100000000001  1.0000
  Nb  Nb1       1.0  0.4999  0.49933  0.23964  1.0000
  Nb  Nb2       1.0  0.5001  0.49934  0.7396400000000002  1.0000
  Nb  Nb3       1.0  0.9999000000000001  0.9993300000000002  0.7396300000000002  1.0000
  Nb  Nb4       1.0  0.0001  0.9993300000000002  0.23964  1.0000
  Ni  Ni1       1.0  0.49982  0.49624  0.5018800000000002  1.0000
  Ni  Ni2       1.0  0.50018  0.49624  0.0018900000000000004  1.0000
  Ni  Ni3       1.0  0.9998200000000002  0.9962400000000001  0.0018800000000000004  1.0000
  Ni  Ni4       1.0  0.00018  0.9962400000000001  0.5018900000000002  1.0000
  O   O1        1.0  0.5000900000000001  0.49916000000000005  0.62598  1.0000
  O   O2        1.0  0.49991000000000013  0.49916000000000005  0.12599  1.0000
  O   O3        1.0  9e-05  0.9991700000000001  0.12598  1.0000
  O   O4        1.0  0.99991  0.99916  0.62598  1.0000
