data_image0
_chemical_formula_structural       MnCo3H48C66O24
_chemical_formula_sum              "Mn1 Co3 H48 C66 O24"
_cell_length_a       12.16511715
_cell_length_b       15.14941368
_cell_length_c       17.14411803
_cell_angle_alpha    108.80377999000001
_cell_angle_beta     99.71035627
_cell_angle_gamma    107.94132786000002

_space_group_name_H-M_alt    "P 1"
_space_group_IT_number       1

loop_
  _space_group_symop_operation_xyz
  'x, y, z'

loop_
  _atom_site_type_symbol
  _atom_site_label
  _atom_site_symmetry_multiplicity
  _atom_site_fract_x
  _atom_site_fract_y
  _atom_site_fract_z
  _atom_site_occupancy
  Mn  Mn1       1.0  0.50000217  0.5000018000000003  0.50000039  1.0000
  Co  Co1       1.0  0.20737706000000006  0.3661150700000001  0.42080889  1.0000
  Co  Co2       1.0  0.79262411  0.63388598  0.57919144  1.0000
  Co  Co3       1.0  3.170000000003701e-06  0.50000096  0.50000182  1.0000
  H   H1        1.0  0.20406294000000005  0.6362749200000002  0.66507638  1.0000
  H   H2        1.0  0.29969141  0.8102088  0.77620899  1.0000
  H   H3        1.0  0.55831492  0.8829100500000001  0.6391232999999997  1.0000
  H   H4        1.0  0.45804653  0.70676282  0.52634513  1.0000
  H   H5        1.0  0.16217151999999996  0.18460850999999995  0.5726749699999998  1.0000
  H   H6        1.0  0.19947645  0.10138129999999998  0.67387837  1.0000
  H   H7        1.0  0.57644609  0.12952024000000006  0.78074232  1.0000
  H   H8        1.0  0.56731817  0.23953251  0.8556739199999998  1.0000
  H   H9        1.0  0.6825286  0.09545689999999998  0.89985027  1.0000
  H   H10       1.0  0.6178508899999998  0.08854446  0.98512996  1.0000
  H   H11       1.0  0.76242958  0.41347158000000006  0.09669844  1.0000
  H   H12       1.0  0.89393593  0.48524518000000005  0.24932501  1.0000
  H   H13       1.0  0.94725418  0.2072707  0.20214426  1.0000
  H   H14       1.0  0.8092033400000002  0.13230844000000005  0.05256502  1.0000
  H   H15       1.0  0.34487827  0.13385958  0.89848939  1.0000
  H   H16       1.0  0.48337773  0.23166369000000006  0.97333348  1.0000
  H   H17       1.0  0.58430681  0.26108098  0.73355474  1.0000
  H   H18       1.0  0.54579656  0.3421103900000001  0.63286052  1.0000
  H   H19       1.0  0.55029416  0.3931773  0.24718771  1.0000
  H   H20       1.0  0.57209339  0.29273963  0.10813049  1.0000
  H   H21       1.0  0.24176535999999996  0.04652787  0.06372891  1.0000
  H   H22       1.0  0.22013864999999996  0.14930372  0.20386789  1.0000
  H   H23       1.0  0.3423304999999999  0.9748489200000002  0.8031310999999998  1.0000
  H   H24       1.0  0.43837513000000006  0.95366535  0.88048676  1.0000
  H   H25       1.0  0.79593742  0.36372592  0.33492491  1.0000
  H   H26       1.0  0.7003094999999998  0.18979116000000004  0.22379001  1.0000
  H   H27       1.0  0.44168428  0.11709006  0.36087842  1.0000
  H   H28       1.0  0.54195461  0.29323774  0.47365607  1.0000
  H   H29       1.0  0.83782819  0.81539264  0.42732541  1.0000
  H   H30       1.0  0.80052317  0.8986189700000002  0.3261211699999999  1.0000
  H   H31       1.0  0.4235537700000001  0.8704792900000002  0.21925753  1.0000
  H   H32       1.0  0.43268216  0.76046754  0.14432681  1.0000
  H   H33       1.0  0.31747005  0.90454291  0.10015004999999998  1.0000
  H   H34       1.0  0.38214705  0.91145402  0.01486951  1.0000
  H   H35       1.0  0.23756912000000002  0.5865269500000002  0.90330139  1.0000
  H   H36       1.0  0.10606355999999993  0.51475464  0.75067489  1.0000
  H   H37       1.0  0.05274531999999999  0.79272837  0.79785543  1.0000
  H   H38       1.0  0.19079500000000002  0.8676905900000003  0.94743488  1.0000
  H   H39       1.0  0.65512007  0.86613958  0.10150905  1.0000
  H   H40       1.0  0.51662197  0.7683365400000002  0.02666649  1.0000
  H   H41       1.0  0.41569291000000014  0.7389203100000002  0.26644444999999994  1.0000
  H   H42       1.0  0.45420151  0.6578908700000001  0.3671387  1.0000
  H   H43       1.0  0.4497073999999999  0.6068227  0.7528129099999997  1.0000
  H   H44       1.0  0.42790551999999993  0.70726042  0.8918691  1.0000
  H   H45       1.0  0.7582350000000001  0.9534729400000003  0.93627093  1.0000
  H   H46       1.0  0.7798628300000001  0.8506961200000001  0.79613273  1.0000
  H   H47       1.0  0.6576689699999998  0.02515078999999998  0.19686840999999994  1.0000
  H   H48       1.0  0.56162417  0.04633427000000001  0.11951367  1.0000
  C   C1        1.0  0.32002516  0.6613799000000002  0.58689518  1.0000
  C   C2        1.0  0.2780005  0.6920786  0.65802519  1.0000
  C   C3        1.0  0.3330439900000001  0.7898475800000002  0.72078431  1.0000
  C   C4        1.0  0.4785263  0.82841235  0.6427690299999997  1.0000
  C   C5        1.0  0.4220853500000002  0.7306486300000002  0.58001255  1.0000
  C   C6        1.0  0.5063277  0.10583715999999999  0.88390844  1.0000
  C   C7        1.0  0.35193139999999995  0.26883883  0.59691785  1.0000
  C   C8        1.0  0.2539670500000001  0.20057103000000012  0.60837183  1.0000
  C   C9        1.0  0.27408155  0.1546884  0.66431885  1.0000
  C   C10       1.0  0.39305893999999997  0.17730526  0.71060916  1.0000
  C   C11       1.0  0.52174008  0.15685939  0.82016991  1.0000
  C   C12       1.0  0.63072235  0.12610190999999998  0.94020456  1.0000
  C   C13       1.0  0.7753998099999999  0.26847111  0.06632726999999997  1.0000
  C   C14       1.0  0.8033501100000001  0.3691824900000001  0.12103789  1.0000
  C   C15       1.0  0.87712386  0.4089073500000001  0.20529324  1.0000
  C   C16       1.0  0.92822714  0.35011589  0.23548036  1.0000
  C   C17       1.0  0.90566364  0.25173059  0.17865509  1.0000
  C   C18       1.0  0.8283781400000001  0.20990789000000007  0.09477772  1.0000
  C   C19       1.0  0.43432201999999986  0.14935178999999987  0.9396352799999997  1.0000
  C   C20       1.0  0.4917154100000001  0.2440743200000001  0.69899347  1.0000
  C   C21       1.0  0.47023927  0.2892233000000001  0.64209749  1.0000
  C   C22       1.0  0.36859072  0.33739425  0.31636544  1.0000
  C   C23       1.0  0.38307021  0.27763335000000006  0.23348438  1.0000
  C   C24       1.0  0.48203257  0.3178301000000001  0.20610938999999995  1.0000
  C   C25       1.0  0.49380383999999994  0.26164921000000013  0.12816721  1.0000
  C   C26       1.0  0.40691843  0.16397376000000005  0.07734337  1.0000
  C   C27       1.0  0.30859566  0.12254851000000003  0.10450695  1.0000
  C   C28       1.0  0.29679329  0.1795988  0.18199952  1.0000
  C   C29       1.0  0.43357997  0.8585059300000001  0.7129373  1.0000
  C   C30       1.0  0.43702736000000003  0.9914831900000002  0.8353692  1.0000
  C   C31       1.0  0.9953524499999999  0.38594831  0.32798732  1.0000
  C   C32       1.0  0.26225163  0.5555060700000002  0.52620337  1.0000
  C   C33       1.0  0.33030854  0.31893729  0.5380287699999998  1.0000
  C   C34       1.0  0.67997536  0.3386190200000001  0.41310547  1.0000
  C   C35       1.0  0.7219998999999999  0.30792108000000007  0.3419752799999999  1.0000
  C   C36       1.0  0.66695544  0.21015238000000006  0.27921606  1.0000
  C   C37       1.0  0.52147396  0.17158716999999996  0.3572309099999999  1.0000
  C   C38       1.0  0.5779157600000001  0.26935065000000014  0.41998778  1.0000
  C   C39       1.0  0.49367223000000005  0.8941620100000002  0.11609074  1.0000
  C   C40       1.0  0.64806811  0.7311623200000003  0.40308257  1.0000
  C   C41       1.0  0.74603159  0.79942976  0.39162814  1.0000
  C   C42       1.0  0.7259172100000001  0.8453119000000002  0.3356810399999999  1.0000
  C   C43       1.0  0.60693952  0.8226949500000003  0.28939077  1.0000
  C   C44       1.0  0.47825801000000007  0.8431407300000002  0.17982804  1.0000
  C   C45       1.0  0.3692772900000001  0.8738981200000002  0.05979563  1.0000
  C   C46       1.0  0.22459662000000005  0.7315266600000002  0.9336725  1.0000
  C   C47       1.0  0.19664786999999995  0.63081592  0.8789623899999998  1.0000
  C   C48       1.0  0.12287525000000003  0.5910921500000003  0.7947068799999998  1.0000
  C   C49       1.0  0.07177160000000007  0.6498827100000002  0.76451823  1.0000
  C   C50       1.0  0.0943349400000001  0.7482679900000002  0.82134423  1.0000
  C   C51       1.0  0.17161955999999992  0.79009075  0.9052224999999998  1.0000
  C   C52       1.0  0.5656762800000001  0.8506469800000002  0.06036525999999998  1.0000
  C   C53       1.0  0.50828507  0.7559266500000003  0.3010072099999999  1.0000
  C   C54       1.0  0.52976052  0.7107774  0.35790317999999993  1.0000
  C   C55       1.0  0.63141499  0.6626097800000003  0.68363714  1.0000
  C   C56       1.0  0.6169321  0.72236753  0.7665159899999998  1.0000
  C   C57       1.0  0.5179686899999999  0.68216867  0.79388866  1.0000
  C   C58       1.0  0.50619762  0.7383495600000002  0.87183156  1.0000
  C   C59       1.0  0.59308049  0.8360248000000002  0.92265734  1.0000
  C   C60       1.0  0.6914042599999999  0.87745061  0.89549393  1.0000
  C   C61       1.0  0.70320715  0.8204009900000002  0.8180005199999999  1.0000
  C   C62       1.0  0.56641977  0.14149427000000006  0.28706244  1.0000
  C   C63       1.0  0.56297211  0.008515049999999988  0.16462994  1.0000
  C   C64       1.0  0.00464855000000012  0.6140524800000002  0.67201351  1.0000
  C   C65       1.0  0.73774885  0.4444923800000001  0.4737968  1.0000
  C   C66       1.0  0.6696936099999998  0.6810653100000003  0.46197037  1.0000
  O   O1        1.0  0.31917447  0.51437456  0.47810638  1.0000
  O   O2        1.0  0.42035098  0.3698814800000001  0.52036012  1.0000
  O   O3        1.0  0.98784123  0.46484787999999994  0.3810807999999999  1.0000
  O   O4        1.0  0.40343314  0.13087535000000006  0.7661627  1.0000
  O   O5        1.0  0.6936731599999999  0.23363493  0.98726429  1.0000
  O   O6        1.0  0.04821589000000005  0.33198165000000013  0.34774382  1.0000
  O   O7        1.0  0.22096413999999998  0.30771509  0.50641791  1.0000
  O   O8        1.0  0.45621462  0.4193124400000001  0.36802264  1.0000
  O   O9        1.0  0.266301  0.3010241800000001  0.32906024  1.0000
  O   O10       1.0  0.15640824000000003  0.4963768400000001  0.52043633  1.0000
  O   O11       1.0  0.4168894799999999  0.10372807000000002  0.00092618  1.0000
  O   O12       1.0  0.4936467600000001  0.9558029800000002  0.77178337  1.0000
  O   O13       1.0  0.6808260199999999  0.48562587  0.52189289  1.0000
  O   O14       1.0  0.57965039  0.630119  0.47963857999999987  1.0000
  O   O15       1.0  0.012159540000000014  0.53515174  0.61891919  1.0000
  O   O16       1.0  0.59656644  0.8691249700000001  0.23383776999999994  1.0000
  O   O17       1.0  0.30632420000000005  0.7663633800000003  0.0127361  1.0000
  O   O18       1.0  0.9517864600000001  0.6680184600000001  0.6522552699999999  1.0000
  O   O19       1.0  0.77903638  0.6922888500000002  0.49358167  1.0000
  O   O20       1.0  0.5437898200000001  0.5806902500000001  0.6319779  1.0000
  O   O21       1.0  0.7337001300000001  0.6989768000000002  0.6709396  1.0000
  O   O22       1.0  0.84359209  0.50362201  0.4795624  1.0000
  O   O23       1.0  0.5831103699999999  0.8962715700000002  0.9990732999999999  1.0000
  O   O24       1.0  0.50635319  0.04419746999999999  0.22821788999999995  1.0000
