data_image0
_chemical_formula_structural       Cu4H36C56N4O16
_chemical_formula_sum              "Cu4 H36 C56 N4 O16"
_cell_length_a       10.90937599
_cell_length_b       10.943958550000001
_cell_length_c       16.27051053
_cell_angle_alpha    90.1408185
_cell_angle_beta     97.32446299
_cell_angle_gamma    90.13848004

_symmetry_space_group_name_H-M    'P 1'
_symmetry_Int_Tables_number       1

loop_
  _symmetry_equiv_pos_as_xyz
  'x,y,z'

loop_
  _atom_site_type_symbol
  _atom_site_label
  _atom_site_symmetry_multiplicity
  _atom_site_fract_x
  _atom_site_fract_y
  _atom_site_fract_z
  _atom_site_occupancy
  Cu  Cu1       1.0  0.31589891  0.8393025599999998  0.77562952  1.0000
  Cu  Cu2       1.0  0.28433182  0.83884232  0.61425047  1.0000
  Cu  Cu3       1.0  0.6840683800000001  0.16063978  0.22435885  1.0000
  Cu  Cu4       1.0  0.7156991500000001  0.16119162  0.38564021  1.0000
  H   H1        1.0  0.5117346  0.88703785  0.92738608  1.0000
  H   H2        1.0  0.5267530300000001  0.89075318  0.08259713  1.0000
  H   H3        1.0  0.15245898  0.75084565  0.05672616  1.0000
  H   H4        1.0  0.15331226000000003  0.7576220899999999  0.9038526  1.0000
  H   H5        1.0  0.65797935  0.83792295  0.56239983  1.0000
  H   H6        1.0  0.88713252  0.83562913  0.56048447  1.0000
  H   H7        1.0  0.71260612  0.84589474  0.82823147  1.0000
  H   H8        1.0  0.94253178  0.8448884399999999  0.82644773  1.0000
  H   H9        1.0  0.27364898000000004  0.22176792  0.56446299  1.0000
  H   H10       1.0  0.15657746  0.80814186  0.18431851  1.0000
  H   H11       1.0  0.32058718  0.45753094999999994  0.82809086  1.0000
  H   H12       1.0  0.31744238  0.22882584999999997  0.83055085  1.0000
  H   H13       1.0  0.4587011  0.8422699799999999  0.33314897  1.0000
  H   H14       1.0  0.4385494400000001  0.85125988  0.2055072  1.0000
  H   H15       1.0  0.27557916  0.45047631999999993  0.56200704  1.0000
  H   H16       1.0  0.07754641000000001  0.8295969099999999  0.46408265  1.0000
  H   H17       1.0  0.05897671000000001  0.81937269  0.30944579  1.0000
  H   H18       1.0  0.45827989  0.85297847  0.484921  1.0000
  H   H19       1.0  0.48827279000000007  0.11296888999999999  0.07260462  1.0000
  H   H20       1.0  0.4732398600000001  0.10924913999999998  0.91739151  1.0000
  H   H21       1.0  0.84754406  0.24915546999999996  0.94326566  1.0000
  H   H22       1.0  0.84667648  0.24237828999999994  0.09613395  1.0000
  H   H23       1.0  0.34201628000000006  0.16207799  0.43760534  1.0000
  H   H24       1.0  0.11287478  0.16437119999999997  0.43952051  1.0000
  H   H25       1.0  0.2873887  0.15410711  0.17176632  1.0000
  H   H26       1.0  0.05747275  0.15511435  0.17354936  1.0000
  H   H27       1.0  0.7263516  0.77822613  0.43554336  1.0000
  H   H28       1.0  0.84342362  0.1918576  0.81568113  1.0000
  H   H29       1.0  0.6794130000000002  0.54247477  0.17190558  1.0000
  H   H30       1.0  0.68255875  0.77116781  0.16944641999999993  1.0000
  H   H31       1.0  0.54129447  0.15772947  0.66685694  1.0000
  H   H32       1.0  0.56144715  0.14873936  0.79449279  1.0000
  H   H33       1.0  0.72442131  0.54952885  0.4379982  1.0000
  H   H34       1.0  0.9224477200000002  0.17040095  0.53593236  1.0000
  H   H35       1.0  0.9410288800000001  0.18062642  0.69056025  1.0000
  H   H36       1.0  0.54173206  0.14702139999999997  0.51509861  1.0000
  C   C1        1.0  0.43420397  0.8586458799999999  0.95910757  1.0000
  C   C2        1.0  0.4422847300000001  0.8596781699999998  0.04511158  1.0000
  C   C3        1.0  0.3394883000000001  0.8242562099999999  0.08360809  1.0000
  C   C4        1.0  0.23404210000000003  0.78408616  0.0313566  1.0000
  C   C5        1.0  0.23394001000000006  0.78641401  0.94615258  1.0000
  C   C6        1.0  0.7208955  0.83837111  0.61996142  1.0000
  C   C7        1.0  0.67218734  0.84090623  0.69556277  1.0000
  C   C8        1.0  0.84812415  0.83731925  0.61883366  1.0000
  C   C9        1.0  0.29997114  0.60442735  0.69403574  1.0000
  C   C10       1.0  0.29836752  0.46732917  0.69498692  1.0000
  C   C11       1.0  0.7520012500000002  0.8432179099999999  0.77005653  1.0000
  C   C12       1.0  0.9280026800000001  0.83922631  0.69340247  1.0000
  C   C13       1.0  0.87930496  0.8425559099999997  0.76898619  1.0000
  C   C14       1.0  0.06501107000000003  0.8384305499999999  0.69250966  1.0000
  C   C15       1.0  0.28361460000000005  0.27412617  0.6219001  1.0000
  C   C16       1.0  0.29588142  0.21151514  0.69753841  1.0000
  C   C17       1.0  0.24955385  0.8221178099999998  0.21698151  1.0000
  C   C18       1.0  0.31009415000000007  0.40500027999999993  0.77068364  1.0000
  C   C19       1.0  0.29750328000000004  0.07449909  0.69833245  1.0000
  C   C20       1.0  0.53532224  0.8417044499999999  0.69697376  1.0000
  C   C21       1.0  0.30865613000000003  0.27784198  0.77195176  1.0000
  C   C22       1.0  0.37096975  0.84027985  0.35833879  1.0000
  C   C23       1.0  0.34642356  0.83199387  0.17325464  1.0000
  C   C24       1.0  0.28483731  0.40125336999999994  0.62053145  1.0000
  C   C25       1.0  0.15929779  0.83264229  0.43188127  1.0000
  C   C26       1.0  0.14989694  0.82686391  0.34585769  1.0000
  C   C27       1.0  0.25765045  0.83023571  0.30676317  1.0000
  C   C28       1.0  0.3719361  0.8457738099999998  0.44340578  1.0000
  C   C29       1.0  0.56581473  0.14136352  0.0408601  1.0000
  C   C30       1.0  0.55770048  0.14031129  0.95487258  1.0000
  C   C31       1.0  0.66051196  0.17574361999999996  0.91638937  1.0000
  C   C32       1.0  0.7659699900000001  0.21591924  0.96862974  1.0000
  C   C33       1.0  0.7660370900000001  0.21358225  0.05381198  1.0000
  C   C34       1.0  0.2791152700000001  0.16162843  0.3800388  1.0000
  C   C35       1.0  0.32784253  0.15908985  0.30443243  1.0000
  C   C36       1.0  0.15186578  0.16268145  0.38116685  1.0000
  C   C37       1.0  0.70002821  0.39551732  0.30597172  1.0000
  C   C38       1.0  0.70162903  0.53263458  0.30501135  1.0000
  C   C39       1.0  0.24799416  0.15678439  0.2299356  1.0000
  C   C40       1.0  0.07196586000000002  0.16077481  0.30659441  1.0000
  C   C41       1.0  0.12069596000000002  0.15744483999999997  0.23100551  1.0000
  C   C42       1.0  0.93494085  0.16157168999999996  0.30749718  1.0000
  C   C43       1.0  0.7163856400000002  0.7258842499999999  0.37810216  1.0000
  C   C44       1.0  0.7041198400000003  0.78851948  0.30245929  1.0000
  C   C45       1.0  0.75044591  0.17788179999999998  0.78301951  1.0000
  C   C46       1.0  0.68990436  0.5950015399999999  0.22930803  1.0000
  C   C47       1.0  0.7025035  0.92555132  0.30168685  1.0000
  C   C48       1.0  0.4647332  0.15829413999999997  0.30304785  1.0000
  C   C49       1.0  0.6913406800000002  0.72215576  0.22804046  1.0000
  C   C50       1.0  0.62901243  0.15972185  0.6416765  1.0000
  C   C51       1.0  0.6535728900000001  0.16800582999999997  0.8267430699999998  1.0000
  C   C52       1.0  0.7151637300000001  0.5987364299999999  0.37946975  1.0000
  C   C53       1.0  0.84069784  0.16735596999999997  0.56815733  1.0000
  C   C54       1.0  0.85012132  0.17313902  0.65415978  1.0000
  C   C55       1.0  0.7423489800000002  0.16976358  0.69323371  1.0000
  C   C56       1.0  0.6280753800000001  0.15422583  0.55663495  1.0000
  N   N1        1.0  0.26827139  0.84161917  0.48037843  1.0000
  N   N2        1.0  0.3315078900000001  0.82480325  0.9098685  1.0000
  N   N3        1.0  0.73173926  0.15836549  0.51968865  1.0000
  N   N4        1.0  0.66848137  0.17522124  0.09007661  1.0000
  O   O1        1.0  0.10342706  0.8341996499999998  0.62190523  1.0000
  O   O2        1.0  0.31124279000000005  0.65738969  0.7644127199999998  1.0000
  O   O3        1.0  0.28976723  0.65557986  0.62345067  1.0000
  O   O4        1.0  0.31747475000000003  0.02300474  0.7690466  1.0000
  O   O5        1.0  0.13147916  0.8424080999999999  0.76281658  1.0000
  O   O6        1.0  0.2803428399999999  0.021759509999999996  0.6280615899999997  1.0000
  O   O7        1.0  0.4971695200000001  0.84099601  0.76781327  1.0000
  O   O8        1.0  0.46842261  0.84314014  0.62690316  1.0000
  O   O9        1.0  0.8963300900000001  0.16579193  0.37810354  1.0000
  O   O10       1.0  0.6887523000000001  0.34245082  0.23559218  1.0000
  O   O11       1.0  0.7102482500000001  0.34410659999999993  0.37655978  1.0000
  O   O12       1.0  0.68253538  0.97717057  0.23096494  1.0000
  O   O13       1.0  0.8683994300000001  0.15759301999999997  0.23718839  1.0000
  O   O14       1.0  0.7196400200000002  0.9785303799999999  0.37195115  1.0000
  O   O15       1.0  0.50296866  0.15901106  0.23219478  1.0000
  O   O16       1.0  0.5318002400000001  0.15687646  0.3731069  1.0000
