data_image0
_chemical_formula_structural       Er4H8C20O24
_chemical_formula_sum              "Er4 H8 C20 O24"
_cell_length_a       9.2021
_cell_length_b       9.2021
_cell_length_c       14.1973
_cell_angle_alpha    79.839
_cell_angle_beta     79.8393
_cell_angle_gamma    117.10600000000001

_space_group_name_H-M_alt    "P 1"
_space_group_IT_number       1

loop_
  _space_group_symop_operation_xyz
  'x, y, z'

loop_
  _atom_site_type_symbol
  _atom_site_label
  _atom_site_symmetry_multiplicity
  _atom_site_fract_x
  _atom_site_fract_y
  _atom_site_fract_z
  _atom_site_occupancy
  Er  Er1       1.0  0.008680000000000193  0.7586800000000005  0.98264  1.0000
  Er  Er2       1.0  0.24131999999999998  0.99132  0.51736  1.0000
  Er  Er3       1.0  0.99132  0.24132  0.01736  1.0000
  Er  Er4       1.0  0.7586799999999998  0.008679999999999985  0.48264  1.0000
  H   H1        1.0  0.3948999999999999  0.8169  0.0696  1.0000
  H   H2        1.0  0.5355  0.6135  0.0696  1.0000
  H   H3        1.0  0.1831000000000001  0.6051000000000002  0.4304  1.0000
  H   H4        1.0  0.3864999999999999  0.46449999999999997  0.4304  1.0000
  H   H5        1.0  0.6050999999999999  0.18309999999999993  0.9304000000000001  1.0000
  H   H6        1.0  0.46449999999999997  0.38649999999999995  0.9304000000000001  1.0000
  H   H7        1.0  0.8169000000000001  0.3949  0.5696  1.0000
  H   H8        1.0  0.6134999999999999  0.5354999999999999  0.5696  1.0000
  C   C1        1.0  0.24005999999999997  0.5720600000000001  0.059480000000000005  1.0000
  C   C2        1.0  0.39741999999999994  0.71822  0.06556  1.0000
  C   C3        1.0  0.7004600000000001  0.8684600000000002  0.059480000000000005  1.0000
  C   C4        1.0  0.53702  0.71622  0.06556  1.0000
  C   C5        1.0  0.4279400000000002  0.7599400000000003  0.44052  1.0000
  C   C6        1.0  0.28178  0.6025800000000001  0.43444000000000005  1.0000
  C   C7        1.0  0.13154000000000005  0.29954000000000014  0.44052  1.0000
  C   C8        1.0  0.2837799999999999  0.46298  0.43444000000000005  1.0000
  C   C9        1.0  0.7599400000000002  0.4279400000000002  0.94052  1.0000
  C   C10       1.0  0.6025799999999998  0.28177999999999986  0.9344400000000003  1.0000
  C   C11       1.0  0.29954000000000003  0.13154000000000005  0.94052  1.0000
  C   C12       1.0  0.46298  0.2837799999999998  0.9344400000000003  1.0000
  C   C13       1.0  0.5720599999999999  0.24006000000000002  0.55948  1.0000
  C   C14       1.0  0.7182199999999999  0.3974200000000001  0.56556  1.0000
  C   C15       1.0  0.8684599999999999  0.70046  0.55948  1.0000
  C   C16       1.0  0.7162199999999999  0.53702  0.56556  1.0000
  C   C17       1.0  0.07559999999999999  0.9244  0.75  1.0000
  C   C18       1.0  0.17439999999999997  0.8256  0.75  1.0000
  C   C19       1.0  0.9244000000000001  0.07560000000000004  0.25  1.0000
  C   C20       1.0  0.8256  0.17440000000000003  0.25  1.0000
  O   O1        1.0  0.13197999999999993  0.60682  0.0348  1.0000
  O   O2        1.0  0.22028999999999999  0.42449  0.07462  1.0000
  O   O3        1.0  0.007009999999999987  0.92683  0.83336  1.0000
  O   O4        1.0  0.83322  0.85838  0.0348  1.0000
  O   O5        1.0  0.70509  0.0008899999999999954  0.07462  1.0000
  O   O6        1.0  0.1596300000000001  0.7398100000000001  0.83336  1.0000
  O   O7        1.0  0.3931799999999999  0.8680199999999999  0.46520000000000006  1.0000
  O   O8        1.0  0.5755100000000003  0.7797100000000005  0.42538  1.0000
  O   O9        1.0  0.07316999999999992  0.99299  0.66664  1.0000
  O   O10       1.0  0.14162  0.16678  0.46520000000000006  1.0000
  O   O11       1.0  0.99911  0.29491  0.42538  1.0000
  O   O12       1.0  0.26019  0.84037  0.66664  1.0000
  O   O13       1.0  0.8680199999999999  0.39318  0.9652  1.0000
  O   O14       1.0  0.7797099999999997  0.5755099999999997  0.9253800000000002  1.0000
  O   O15       1.0  0.99299  0.07317  0.16664  1.0000
  O   O16       1.0  0.16677999999999998  0.14161999999999997  0.9652  1.0000
  O   O17       1.0  0.2949099999999998  0.9991099999999998  0.9253800000000002  1.0000
  O   O18       1.0  0.84037  0.26019000000000003  0.16664  1.0000
  O   O19       1.0  0.60682  0.13198  0.5348  1.0000
  O   O20       1.0  0.4244899999999998  0.22029  0.57462  1.0000
  O   O21       1.0  0.9268299999999996  0.007009999999999979  0.33336000000000005  1.0000
  O   O22       1.0  0.85838  0.83322  0.5348  1.0000
  O   O23       1.0  0.0008900000000000681  0.7050900000000001  0.57462  1.0000
  O   O24       1.0  0.7398099999999999  0.15962999999999997  0.33336000000000005  1.0000
