data_image0
_chemical_formula_structural       Co4H12C24S4N4O8
_chemical_formula_sum              "Co4 H12 C24 S4 N4 O8"
_cell_length_a       8.74051284
_cell_length_b       8.74051252
_cell_length_c       11.91452204
_cell_angle_alpha    90.0
_cell_angle_beta     90.0
_cell_angle_gamma    103.26107846

_symmetry_space_group_name_H-M    'P 1'
_symmetry_Int_Tables_number       1

loop_
  _symmetry_equiv_pos_as_xyz
  'x,y,z'

loop_
  _atom_site_type_symbol
  _atom_site_label
  _atom_site_symmetry_multiplicity
  _atom_site_fract_x
  _atom_site_fract_y
  _atom_site_fract_z
  _atom_site_occupancy
  Co  Co1       1.0  0.11252848  0.11252847999999997  0.0  1.0000
  Co  Co2       1.0  0.88747152  0.88747152  0.5  1.0000
  Co  Co3       1.0  0.10301093999999994  0.8969890599999998  0.25  1.0000
  Co  Co4       1.0  0.89698906  0.10301093999999998  0.75  1.0000
  H   H1        1.0  0.48589887000000004  0.13806625  0.30436119  1.0000
  H   H2        1.0  0.7297807500000001  0.11716219  0.19734980000000002  1.0000
  H   H3        1.0  0.47622979  0.14075820999999997  0.89006152  1.0000
  H   H4        1.0  0.51410113  0.86193375  0.80436119  1.0000
  H   H5        1.0  0.27021924999999997  0.8828378099999998  0.6973498  1.0000
  H   H6        1.0  0.52377021  0.8592417899999998  0.39006152  1.0000
  H   H7        1.0  0.86193375  0.51410113  0.19563881000000002  1.0000
  H   H8        1.0  0.8828378100000002  0.27021925  0.30265020000000004  1.0000
  H   H9        1.0  0.85924179  0.52377021  0.60993848  1.0000
  H   H10       1.0  0.13806625  0.4858988699999999  0.6956388100000002  1.0000
  H   H11       1.0  0.11716219000000001  0.72978075  0.8026502000000001  1.0000
  H   H12       1.0  0.14075821  0.47622979  0.10993848000000002  1.0000
  C   C1        1.0  0.35357000000000005  0.14591485  0.15182295  1.0000
  C   C2        1.0  0.48873917000000006  0.13859328999999998  0.21308054  1.0000
  C   C3        1.0  0.6229107  0.12828138  0.15410195  1.0000
  C   C4        1.0  0.62269387  0.13135337  0.0364104  1.0000
  C   C5        1.0  0.4832491  0.13934611  0.98147493  1.0000
  C   C6        1.0  0.76618751  0.12236835  0.97224104  1.0000
  C   C7        1.0  0.64643  0.8540851499999997  0.6518229500000001  1.0000
  C   C8        1.0  0.51126083  0.86140671  0.71308054  1.0000
  C   C9        1.0  0.3770893  0.87171862  0.65410195  1.0000
  C   C10       1.0  0.37730613  0.86864663  0.5364104  1.0000
  C   C11       1.0  0.5167509  0.86065389  0.48147493  1.0000
  C   C12       1.0  0.23381249  0.8776316499999998  0.47224104000000006  1.0000
  C   C13       1.0  0.8540851499999998  0.6464299999999997  0.34817705  1.0000
  C   C14       1.0  0.86140671  0.51126083  0.28691946  1.0000
  C   C15       1.0  0.87171862  0.3770893  0.34589805  1.0000
  C   C16       1.0  0.86864663  0.37730613  0.46358960000000005  1.0000
  C   C17       1.0  0.8606538900000001  0.5167509  0.51852507  1.0000
  C   C18       1.0  0.87763165  0.23381249  0.52775896  1.0000
  C   C19       1.0  0.14591485  0.35357  0.84817705  1.0000
  C   C20       1.0  0.13859329  0.48873917  0.78691946  1.0000
  C   C21       1.0  0.12828138  0.6229107  0.8458980500000001  1.0000
  C   C22       1.0  0.13135337  0.62269387  0.9635896000000002  1.0000
  C   C23       1.0  0.13934610999999997  0.48324909999999993  0.01852507  1.0000
  C   C24       1.0  0.12236835000000001  0.76618751  0.02775896  1.0000
  S   S1        1.0  0.16939737  0.15292306  0.20806706000000005  1.0000
  S   S2        1.0  0.83060263  0.84707694  0.70806706  1.0000
  S   S3        1.0  0.8470769400000001  0.83060263  0.29193294  1.0000
  S   S4        1.0  0.15292306  0.16939737  0.79193294  1.0000
  N   N1        1.0  0.3519441  0.14307844  0.0380939  1.0000
  N   N2        1.0  0.6480559  0.85692156  0.5380939  1.0000
  N   N3        1.0  0.85692156  0.6480558999999999  0.4619061  1.0000
  N   N4        1.0  0.14307844  0.35194409999999987  0.9619061  1.0000
  O   O1        1.0  0.8816192600000002  0.09386139  0.025834760000000002  1.0000
  O   O2        1.0  0.23992171999999998  0.85562144  0.36583072  1.0000
  O   O3        1.0  0.11838073999999989  0.9061386099999997  0.52583476  1.0000
  O   O4        1.0  0.76007828  0.14437856  0.8658307200000002  1.0000
  O   O5        1.0  0.90613861  0.11838074  0.47416524  1.0000
  O   O6        1.0  0.14437855999999993  0.7600782799999998  0.13416928  1.0000
  O   O7        1.0  0.09386139  0.88161926  0.97416524  1.0000
  O   O8        1.0  0.85562144  0.23992172  0.63416928  1.0000
