data_image0
_chemical_formula_structural       ONHCONHCONHCONHCONHCONHCONHCONHCONHCONHCONHCONHCONHCONHCONHCONHCMg4SC2HSC2HSC2HSC2HSC2HSC2HSC2HSC2H
_chemical_formula_sum              "O16 N16 H24 C32 Mg4 S8"
_cell_length_a       16.9643
_cell_length_b       16.9643
_cell_length_c       7.6067
_cell_angle_alpha    90.0
_cell_angle_beta     90.0
_cell_angle_gamma    90.0

_symmetry_space_group_name_H-M    'P 1'
_symmetry_Int_Tables_number       1

loop_
  _symmetry_equiv_pos_as_xyz
  'x,y,z'

loop_
  _atom_site_type_symbol
  _atom_site_label
  _atom_site_symmetry_multiplicity
  _atom_site_fract_x
  _atom_site_fract_y
  _atom_site_fract_z
  _atom_site_occupancy
  O   O1        1.0  0.5348  0.3807  0.0169  1.0000
  N   N1        1.0  0.4229999999999999  0.3135  0.0777  1.0000
  H   H1        1.0  0.398  0.3556  0.0486  1.0000
  C   C1        1.0  0.5038  0.3168  0.072  1.0000
  O   O2        1.0  0.0348  0.8807  0.5169  1.0000
  N   N2        1.0  0.923  0.8135  0.5776999999999999  1.0000
  H   H2        1.0  0.8979999999999999  0.8556  0.5485999999999999  1.0000
  C   C2        1.0  0.0038  0.8168  0.5719999999999997  1.0000
  O   O3        1.0  0.4652  0.6193  0.0169  1.0000
  N   N3        1.0  0.577  0.6865  0.0777  1.0000
  H   H3        1.0  0.602  0.6444  0.0486  1.0000
  C   C3        1.0  0.4962  0.6832  0.072  1.0000
  O   O4        1.0  0.9652  0.11929999999999999  0.5169  1.0000
  N   N4        1.0  0.077  0.1865  0.5776999999999999  1.0000
  H   H4        1.0  0.102  0.1444  0.5485999999999999  1.0000
  C   C4        1.0  0.9962  0.1832  0.5719999999999997  1.0000
  O   O5        1.0  0.3807  0.4652  0.9830999999999998  1.0000
  N   N5        1.0  0.3135  0.577  0.9223  1.0000
  H   H5        1.0  0.3556  0.602  0.9514  1.0000
  C   C5        1.0  0.3168  0.4962  0.928  1.0000
  O   O6        1.0  0.8807  0.9652  0.4831  1.0000
  N   N6        1.0  0.8135  0.077  0.4223  1.0000
  H   H6        1.0  0.8556  0.102  0.4514  1.0000
  C   C6        1.0  0.8168  0.9962  0.4279999999999999  1.0000
  O   O7        1.0  0.6193  0.5348  0.9830999999999998  1.0000
  N   N7        1.0  0.6865  0.4229999999999999  0.9223  1.0000
  H   H7        1.0  0.6444  0.398  0.9514  1.0000
  C   C7        1.0  0.6832  0.5038  0.928  1.0000
  O   O8        1.0  0.11929999999999999  0.0348  0.4831  1.0000
  N   N8        1.0  0.1865  0.923  0.4223  1.0000
  H   H8        1.0  0.1444  0.8979999999999999  0.4514  1.0000
  C   C8        1.0  0.1832  0.0038  0.4279999999999999  1.0000
  O   O9        1.0  0.9652  0.3807  0.7330999999999998  1.0000
  N   N9        1.0  0.077  0.3135  0.6723  1.0000
  H   H9        1.0  0.102  0.3556  0.7014  1.0000
  C   C9        1.0  0.9962  0.3168  0.678  1.0000
  O   O10       1.0  0.4652  0.8807  0.23309999999999995  1.0000
  N   N10       1.0  0.577  0.8135  0.1723  1.0000
  H   H10       1.0  0.602  0.8556  0.2014  1.0000
  C   C10       1.0  0.4962  0.8168  0.178  1.0000
  O   O11       1.0  0.0348  0.6193  0.7330999999999998  1.0000
  N   N11       1.0  0.923  0.6865  0.6723  1.0000
  H   H11       1.0  0.8979999999999999  0.6444  0.7014  1.0000
  C   C11       1.0  0.0038  0.6832  0.678  1.0000
  O   O12       1.0  0.5348  0.11929999999999999  0.23309999999999995  1.0000
  N   N12       1.0  0.4229999999999999  0.1865  0.1723  1.0000
  H   H12       1.0  0.398  0.1444  0.2014  1.0000
  C   C12       1.0  0.5038  0.1832  0.178  1.0000
  O   O13       1.0  0.11929999999999999  0.4652  0.7669  1.0000
  N   N13       1.0  0.1865  0.577  0.8276999999999999  1.0000
  H   H13       1.0  0.1444  0.602  0.7985999999999999  1.0000
  C   C13       1.0  0.1832  0.4962  0.8219999999999997  1.0000
  O   O14       1.0  0.6193  0.9652  0.2669  1.0000
  N   N14       1.0  0.6865  0.077  0.3277  1.0000
  H   H14       1.0  0.6444  0.102  0.2986  1.0000
  C   C14       1.0  0.6832  0.9962  0.322  1.0000
  O   O15       1.0  0.8807  0.5348  0.7669  1.0000
  N   N15       1.0  0.8135  0.4229999999999999  0.8276999999999999  1.0000
  H   H15       1.0  0.8556  0.398  0.7985999999999999  1.0000
  C   C15       1.0  0.8168  0.5038  0.8219999999999997  1.0000
  O   O16       1.0  0.3807  0.0348  0.2669  1.0000
  N   N16       1.0  0.3135  0.923  0.3277  1.0000
  H   H16       1.0  0.3556  0.8979999999999999  0.2986  1.0000
  C   C16       1.0  0.3168  0.0038  0.322  1.0000
  Mg  Mg1       1.0  0.5  0.5  0.0  1.0000
  Mg  Mg2       1.0  0.0  0.0  0.5  1.0000
  Mg  Mg3       1.0  0.0  0.5  0.75  1.0000
  Mg  Mg4       1.0  0.5  0.0  0.25  1.0000
  S   S1        1.0  0.28243  0.25  0.125  1.0000
  C   C17       1.0  0.3784  0.25  0.125  1.0000
  C   C18       1.0  0.5458  0.25  0.125  1.0000
  H   H17       1.0  0.6006  0.25  0.125  1.0000
  S   S2        1.0  0.71757  0.75  0.125  1.0000
  C   C19       1.0  0.6216  0.75  0.125  1.0000
  C   C20       1.0  0.4542  0.75  0.125  1.0000
  H   H18       1.0  0.3994  0.75  0.125  1.0000
  S   S3        1.0  0.21757  0.25  0.625  1.0000
  C   C21       1.0  0.1216  0.25  0.625  1.0000
  C   C22       1.0  0.9542  0.25  0.625  1.0000
  H   H19       1.0  0.8994  0.25  0.625  1.0000
  S   S4        1.0  0.25  0.71757  0.8749999999999999  1.0000
  C   C23       1.0  0.25  0.6216  0.8749999999999999  1.0000
  C   C24       1.0  0.25  0.4542  0.8749999999999999  1.0000
  H   H20       1.0  0.25  0.3994  0.8749999999999999  1.0000
  S   S5        1.0  0.75  0.21757  0.375  1.0000
  C   C25       1.0  0.75  0.1216  0.375  1.0000
  C   C26       1.0  0.75  0.9542  0.375  1.0000
  H   H21       1.0  0.75  0.8994  0.375  1.0000
  S   S6        1.0  0.75  0.28243  0.8749999999999999  1.0000
  C   C27       1.0  0.75  0.3784  0.8749999999999999  1.0000
  C   C28       1.0  0.75  0.5458  0.8749999999999999  1.0000
  H   H22       1.0  0.75  0.6006  0.8749999999999999  1.0000
  S   S7        1.0  0.25  0.78243  0.375  1.0000
  C   C29       1.0  0.25  0.8784  0.375  1.0000
  C   C30       1.0  0.25  0.0458  0.375  1.0000
  H   H23       1.0  0.25  0.1006  0.375  1.0000
  S   S8        1.0  0.78243  0.75  0.625  1.0000
  C   C31       1.0  0.8784  0.75  0.625  1.0000
  C   C32       1.0  0.0458  0.75  0.625  1.0000
  H   H24       1.0  0.1006  0.75  0.625  1.0000
