data_image0
_chemical_formula_structural       Ca6H24C48O24
_chemical_formula_sum              "Ca6 H24 C48 O24"
_cell_length_a       10.684
_cell_length_b       13.848200000000002
_cell_length_c       14.9604
_cell_angle_alpha    76.4666
_cell_angle_beta     69.0792
_cell_angle_gamma    67.3094

_space_group_name_H-M_alt    "P 1"
_space_group_IT_number       1

loop_
  _space_group_symop_operation_xyz
  'x, y, z'

loop_
  _atom_site_type_symbol
  _atom_site_label
  _atom_site_symmetry_multiplicity
  _atom_site_fract_x
  _atom_site_fract_y
  _atom_site_fract_z
  _atom_site_occupancy
  Ca  Ca1       1.0  0.5066499999999999  0.9680999999999998  0.3832600000000001  1.0000
  Ca  Ca2       1.0  0.8580100000000003  0.5319  0.11674  1.0000
  Ca  Ca3       1.0  0.49334999999999996  0.031900000000000005  0.61674  1.0000
  Ca  Ca4       1.0  0.14198999999999998  0.4681  0.88326  1.0000
  Ca  Ca5       1.0  0.7830600000000001  0.75  0.25  1.0000
  Ca  Ca6       1.0  0.21693999999999988  0.2499999999999999  0.7500000000000002  1.0000
  H   H1        1.0  0.7294  0.18049999999999994  0.24570000000000006  1.0000
  H   H2        1.0  0.8171  0.3121  0.14910000000000007  1.0000
  H   H3        1.0  0.13870000000000002  0.0944  0.984  1.0000
  H   H4        1.0  0.054100000000000106  0.9624999999999999  0.0847  1.0000
  H   H5        1.0  0.6306000000000002  0.8378  0.0646  1.0000
  H   H6        1.0  0.3692  0.1379  0.0951  1.0000
  H   H7        1.0  0.15560000000000015  0.31949999999999995  0.2543  1.0000
  H   H8        1.0  0.2783  0.18789999999999996  0.3509000000000001  1.0000
  H   H9        1.0  0.21709999999999993  0.40559999999999996  0.5160000000000001  1.0000
  H   H10       1.0  0.10129999999999996  0.5375  0.4153000000000001  1.0000
  H   H11       1.0  0.5330000000000001  0.6621999999999999  0.4354  1.0000
  H   H12       1.0  0.6022000000000001  0.36209999999999987  0.4049  1.0000
  H   H13       1.0  0.2705999999999999  0.8195  0.7543  1.0000
  H   H14       1.0  0.18289999999999992  0.6879  0.8509  1.0000
  H   H15       1.0  0.8613  0.9055999999999998  0.016000000000000004  1.0000
  H   H16       1.0  0.9459000000000001  0.03749999999999996  0.9153000000000002  1.0000
  H   H17       1.0  0.36939999999999984  0.1622  0.9354000000000001  1.0000
  H   H18       1.0  0.6308000000000007  0.8620999999999998  0.9049  1.0000
  H   H19       1.0  0.8444  0.6805  0.7457  1.0000
  H   H20       1.0  0.7217000000000001  0.8121  0.6491  1.0000
  H   H21       1.0  0.7829000000000004  0.5943999999999998  0.484  1.0000
  H   H22       1.0  0.8986999999999998  0.4625  0.5847000000000001  1.0000
  H   H23       1.0  0.46700000000000014  0.3378  0.5646  1.0000
  H   H24       1.0  0.3978000000000001  0.6378999999999999  0.5951  1.0000
  C   C1        1.0  0.8216000000000002  0.9750999999999999  0.2367  1.0000
  C   C2        1.0  0.8826  0.05859999999999999  0.17440000000000005  1.0000
  C   C3        1.0  0.8132  0.16289999999999996  0.19290000000000002  1.0000
  C   C4        1.0  0.8647  0.24109999999999995  0.1353  1.0000
  C   C5        1.0  0.987  0.21589999999999998  0.0567  1.0000
  C   C6        1.0  0.0405999999999999  0.3023  0.9937000000000002  1.0000
  C   C7        1.0  0.0563  0.1119  0.0377  1.0000
  C   C8        1.0  0.004999999999999992  0.03379999999999999  0.09700000000000003  1.0000
  C   C9        1.0  0.4986000000000003  0.9717  0.1985  1.0000
  C   C10       1.0  0.49830000000000013  0.9852999999999997  0.0957  1.0000
  C   C11       1.0  0.5769999999999998  0.9038  0.0386  1.0000
  C   C12       1.0  0.42230000000000006  0.0815  0.0565  1.0000
  C   C13       1.0  0.03339999999999998  0.5249  0.2633  1.0000
  C   C14       1.0  0.11559999999999998  0.4414  0.32560000000000006  1.0000
  C   C15       1.0  0.169  0.3371  0.3071  1.0000
  C   C16       1.0  0.24110000000000012  0.25889999999999996  0.36470000000000014  1.0000
  C   C17       1.0  0.2596000000000001  0.2841  0.4433  1.0000
  C   C18       1.0  0.3366  0.1977  0.5063  1.0000
  C   C19       1.0  0.2059  0.3881  0.4623  1.0000
  C   C20       1.0  0.1358  0.4662  0.40300000000000014  1.0000
  C   C21       1.0  0.6687999999999998  0.5283  0.3015  1.0000
  C   C22       1.0  0.5793  0.5146999999999999  0.4043000000000001  1.0000
  C   C23       1.0  0.5194000000000001  0.5962  0.46140000000000003  1.0000
  C   C24       1.0  0.5603000000000001  0.4184999999999999  0.4435000000000001  1.0000
  C   C25       1.0  0.17839999999999995  0.024900000000000005  0.7633  1.0000
  C   C26       1.0  0.11740000000000007  0.9413999999999999  0.8256  1.0000
  C   C27       1.0  0.18679999999999986  0.8370999999999998  0.8071000000000002  1.0000
  C   C28       1.0  0.13529999999999984  0.7589  0.8647000000000002  1.0000
  C   C29       1.0  0.01299999999999994  0.7841  0.9433000000000001  1.0000
  C   C30       1.0  0.9594  0.6977  0.006300000000000001  1.0000
  C   C31       1.0  0.9437000000000005  0.8881  0.9623000000000002  1.0000
  C   C32       1.0  0.995  0.9662  0.903  1.0000
  C   C33       1.0  0.5014  0.028299999999999957  0.8015000000000002  1.0000
  C   C34       1.0  0.5017000000000001  0.01469999999999996  0.9043000000000002  1.0000
  C   C35       1.0  0.42299999999999993  0.09619999999999995  0.9614000000000003  1.0000
  C   C36       1.0  0.5776999999999999  0.9185000000000001  0.9435  1.0000
  C   C37       1.0  0.9666000000000006  0.4751  0.7367000000000001  1.0000
  C   C38       1.0  0.8843999999999999  0.5586  0.6744  1.0000
  C   C39       1.0  0.8310000000000001  0.6629  0.6929000000000002  1.0000
  C   C40       1.0  0.7589000000000002  0.7410999999999998  0.6353000000000002  1.0000
  C   C41       1.0  0.7404000000000001  0.7158999999999999  0.5567  1.0000
  C   C42       1.0  0.6634000000000001  0.8022999999999999  0.49370000000000014  1.0000
  C   C43       1.0  0.7941  0.6118999999999999  0.5377  1.0000
  C   C44       1.0  0.8642  0.5338  0.597  1.0000
  C   C45       1.0  0.3311999999999999  0.4716999999999999  0.6985000000000002  1.0000
  C   C46       1.0  0.4206999999999997  0.4853  0.5957000000000001  1.0000
  C   C47       1.0  0.48060000000000025  0.4037999999999999  0.5386000000000001  1.0000
  C   C48       1.0  0.4397  0.5815  0.5565  1.0000
  O   O1        1.0  0.7112600000000001  0.005989999999999995  0.30709  1.0000
  O   O2        1.0  0.87973  0.8830699999999998  0.21387000000000003  1.0000
  O   O3        1.0  0.13202999999999993  0.28498999999999997  0.9133500000000002  1.0000
  O   O4        1.0  0.99317  0.39136  0.024900000000000005  1.0000
  O   O5        1.0  0.57412  0.8849099999999998  0.23285000000000006  1.0000
  O   O6        1.0  0.42305  0.04755  0.24755  1.0000
  O   O7        1.0  0.02433999999999996  0.49401  0.19291  1.0000
  O   O8        1.0  0.9766699999999999  0.61693  0.28613  1.0000
  O   O9        1.0  0.33037000000000005  0.21501  0.5866500000000001  1.0000
  O   O10       1.0  0.40943  0.10863999999999997  0.47510000000000013  1.0000
  O   O11       1.0  0.6918800000000002  0.6150899999999999  0.26715  1.0000
  O   O12       1.0  0.71815  0.45245  0.25245000000000006  1.0000
  O   O13       1.0  0.28874000000000016  0.9940099999999995  0.69291  1.0000
  O   O14       1.0  0.12026999999999996  0.11692999999999995  0.7861300000000001  1.0000
  O   O15       1.0  0.86797  0.71501  0.08665  1.0000
  O   O16       1.0  0.006830000000000081  0.60864  0.9751  1.0000
  O   O17       1.0  0.4258799999999999  0.11508999999999994  0.7671500000000001  1.0000
  O   O18       1.0  0.5769500000000001  0.95245  0.75245  1.0000
  O   O19       1.0  0.97566  0.50599  0.80709  1.0000
  O   O20       1.0  0.02332999999999993  0.38306999999999997  0.7138700000000002  1.0000
  O   O21       1.0  0.66963  0.7849899999999999  0.4133500000000001  1.0000
  O   O22       1.0  0.5905700000000002  0.8913599999999999  0.5249  1.0000
  O   O23       1.0  0.30811999999999995  0.38491  0.7328500000000002  1.0000
  O   O24       1.0  0.28185  0.54755  0.74755  1.0000
