data_image0
_chemical_formula_structural       Mg8H32C64O32
_chemical_formula_sum              "Mg8 H32 C64 O32"
_cell_length_a       9.941
_cell_length_b       13.627
_cell_length_c       17.686
_cell_angle_alpha    92.732
_cell_angle_beta     90.0
_cell_angle_gamma    90.0

_space_group_name_H-M_alt    "P 1"
_space_group_IT_number       1

loop_
  _space_group_symop_operation_xyz
  'x, y, z'

loop_
  _atom_site_type_symbol
  _atom_site_label
  _atom_site_symmetry_multiplicity
  _atom_site_fract_x
  _atom_site_fract_y
  _atom_site_fract_z
  _atom_site_occupancy
  Mg  Mg1       1.0  0.06872  0.8958399999999999  0.96419  1.0000
  Mg  Mg2       1.0  0.92959  0.6576  0.9764999999999999  1.0000
  Mg  Mg3       1.0  0.56872  0.10416  0.5358099999999998  1.0000
  Mg  Mg4       1.0  0.42958999999999997  0.34239999999999987  0.5235  1.0000
  Mg  Mg5       1.0  0.93128  0.10416  0.03580999999999999  1.0000
  Mg  Mg6       1.0  0.07040999999999999  0.34239999999999987  0.0235  1.0000
  Mg  Mg7       1.0  0.43128  0.8958399999999999  0.46419  1.0000
  Mg  Mg8       1.0  0.57041  0.6576  0.4764999999999999  1.0000
  H   H1        1.0  0.8077  0.9804999999999998  0.7886999999999998  1.0000
  H   H2        1.0  0.6976999999999999  0.002399999999999998  0.6741  1.0000
  H   H3        1.0  0.6258  0.7091999999999998  0.6516999999999997  1.0000
  H   H4        1.0  0.7204999999999999  0.6892  0.7710999999999998  1.0000
  H   H5        1.0  0.28269999999999995  0.8124  0.7557999999999998  1.0000
  H   H6        1.0  0.3774  0.739  0.646  1.0000
  H   H7        1.0  0.28889999999999993  0.4711  0.7239  1.0000
  H   H8        1.0  0.1981  0.544  0.8339999999999997  1.0000
  H   H9        1.0  0.3077  0.019500000000000007  0.7113  1.0000
  H   H10       1.0  0.1977  0.9975999999999999  0.8258999999999999  1.0000
  H   H11       1.0  0.1258  0.29079999999999995  0.8483  1.0000
  H   H12       1.0  0.2205  0.3108  0.7289  1.0000
  H   H13       1.0  0.7827  0.1876  0.7442  1.0000
  H   H14       1.0  0.8774  0.261  0.8539999999999998  1.0000
  H   H15       1.0  0.7888999999999999  0.5289  0.7760999999999998  1.0000
  H   H16       1.0  0.6981  0.4559999999999999  0.666  1.0000
  H   H17       1.0  0.1923  0.019499999999999997  0.21129999999999996  1.0000
  H   H18       1.0  0.3023  0.9975999999999998  0.3258999999999999  1.0000
  H   H19       1.0  0.3742  0.2908  0.3483  1.0000
  H   H20       1.0  0.2795  0.31079999999999997  0.22889999999999996  1.0000
  H   H21       1.0  0.7172999999999998  0.1876  0.2442  1.0000
  H   H22       1.0  0.6226  0.261  0.354  1.0000
  H   H23       1.0  0.7111  0.5289  0.2761  1.0000
  H   H24       1.0  0.8019  0.4559999999999999  0.166  1.0000
  H   H25       1.0  0.6923  0.9804999999999998  0.2886999999999999  1.0000
  H   H26       1.0  0.8023  0.002399999999999996  0.17409999999999995  1.0000
  H   H27       1.0  0.8742  0.7091999999999998  0.1517  1.0000
  H   H28       1.0  0.7795  0.6892  0.2711  1.0000
  H   H29       1.0  0.2173  0.8124  0.2558  1.0000
  H   H30       1.0  0.1226  0.739  0.146  1.0000
  H   H31       1.0  0.2111  0.4710999999999999  0.22389999999999996  1.0000
  H   H32       1.0  0.30189999999999995  0.544  0.334  1.0000
  C   C1        1.0  0.8456999999999999  0.8185999999999999  0.8651999999999999  1.0000
  C   C2        1.0  0.7749  0.8327999999999998  0.79  1.0000
  C   C3        1.0  0.7686  0.9258999999999997  0.7614  1.0000
  C   C4        1.0  0.7049999999999998  0.9385  0.693  1.0000
  C   C5        1.0  0.6518  0.8580999999999998  0.6516  1.0000
  C   C6        1.0  0.6602  0.7644999999999997  0.6803  1.0000
  C   C7        1.0  0.7186999999999998  0.7521999999999998  0.7503  1.0000
  C   C8        1.0  0.5854  0.8722999999999999  0.5777  1.0000
  C   C9        1.0  0.1701  0.7349  0.8758  1.0000
  C   C10       1.0  0.2322  0.686  0.8053  1.0000
  C   C11       1.0  0.2849999999999999  0.7427999999999999  0.7492999999999997  1.0000
  C   C12       1.0  0.3409  0.6995999999999999  0.6838999999999997  1.0000
  C   C13       1.0  0.3426999999999999  0.5966  0.6747  1.0000
  C   C14       1.0  0.2884  0.5406  0.7307  1.0000
  C   C15       1.0  0.2339  0.5835  0.7958999999999999  1.0000
  C   C16       1.0  0.40269999999999995  0.5483  0.6030999999999997  1.0000
  C   C17       1.0  0.3457  0.18139999999999995  0.6348  1.0000
  C   C18       1.0  0.2748999999999999  0.1672  0.7099999999999997  1.0000
  C   C19       1.0  0.2686  0.07409999999999999  0.7385999999999998  1.0000
  C   C20       1.0  0.20499999999999996  0.06149999999999999  0.807  1.0000
  C   C21       1.0  0.15179999999999996  0.14189999999999997  0.8483999999999998  1.0000
  C   C22       1.0  0.1602  0.2354999999999999  0.8196999999999998  1.0000
  C   C23       1.0  0.2187  0.24779999999999994  0.7496999999999998  1.0000
  C   C24       1.0  0.0854  0.12769999999999998  0.9222999999999999  1.0000
  C   C25       1.0  0.6701  0.2651  0.6241999999999998  1.0000
  C   C26       1.0  0.7322  0.314  0.6946999999999999  1.0000
  C   C27       1.0  0.7849999999999999  0.25719999999999993  0.7507  1.0000
  C   C28       1.0  0.8409  0.3003999999999999  0.8161  1.0000
  C   C29       1.0  0.8426999999999999  0.4033999999999999  0.8253  1.0000
  C   C30       1.0  0.7883999999999998  0.4593999999999999  0.7692999999999998  1.0000
  C   C31       1.0  0.7339  0.41649999999999987  0.7041  1.0000
  C   C32       1.0  0.9027  0.45169999999999993  0.8969  1.0000
  C   C33       1.0  0.1543  0.18139999999999995  0.13479999999999998  1.0000
  C   C34       1.0  0.22509999999999994  0.1672  0.21  1.0000
  C   C35       1.0  0.2314  0.07409999999999999  0.23859999999999998  1.0000
  C   C36       1.0  0.295  0.0615  0.307  1.0000
  C   C37       1.0  0.34819999999999995  0.14189999999999994  0.3483999999999999  1.0000
  C   C38       1.0  0.3397999999999999  0.23549999999999993  0.3197  1.0000
  C   C39       1.0  0.2813  0.24779999999999994  0.24969999999999998  1.0000
  C   C40       1.0  0.4146  0.12769999999999998  0.4223  1.0000
  C   C41       1.0  0.8299  0.2651  0.1242  1.0000
  C   C42       1.0  0.7678  0.314  0.1947  1.0000
  C   C43       1.0  0.715  0.25719999999999993  0.2507  1.0000
  C   C44       1.0  0.6591  0.3003999999999999  0.3161  1.0000
  C   C45       1.0  0.6572999999999999  0.40339999999999987  0.3253  1.0000
  C   C46       1.0  0.7116  0.4593999999999999  0.2693  1.0000
  C   C47       1.0  0.7660999999999999  0.41649999999999987  0.2041  1.0000
  C   C48       1.0  0.5972999999999999  0.45169999999999993  0.3969  1.0000
  C   C49       1.0  0.6543  0.8185999999999999  0.3651999999999999  1.0000
  C   C50       1.0  0.7250999999999999  0.8327999999999998  0.29  1.0000
  C   C51       1.0  0.7314  0.9258999999999997  0.2614  1.0000
  C   C52       1.0  0.795  0.9385  0.193  1.0000
  C   C53       1.0  0.8482  0.8580999999999998  0.15159999999999996  1.0000
  C   C54       1.0  0.8398  0.7644999999999997  0.1803  1.0000
  C   C55       1.0  0.7813  0.7521999999999998  0.25029999999999997  1.0000
  C   C56       1.0  0.9146  0.8722999999999999  0.0777  1.0000
  C   C57       1.0  0.32989999999999997  0.7349  0.3758  1.0000
  C   C58       1.0  0.2678  0.686  0.3053  1.0000
  C   C59       1.0  0.21499999999999994  0.7427999999999999  0.24929999999999997  1.0000
  C   C60       1.0  0.1591  0.6995999999999999  0.1839  1.0000
  C   C61       1.0  0.1573  0.5966  0.1747  1.0000
  C   C62       1.0  0.21159999999999998  0.5406  0.23069999999999996  1.0000
  C   C63       1.0  0.26609999999999995  0.5835  0.2959  1.0000
  C   C64       1.0  0.0973  0.5483  0.10309999999999998  1.0000
  O   O1        1.0  0.9181  0.8883999999999997  0.889  1.0000
  O   O2        1.0  0.8262  0.7395999999999999  0.8972  1.0000
  O   O3        1.0  0.5802  0.9582999999999998  0.553  1.0000
  O   O4        1.0  0.5318  0.8016  0.5397  1.0000
  O   O5        1.0  0.1893  0.8263  0.8874  1.0000
  O   O6        1.0  0.1036  0.6832999999999999  0.9191999999999998  1.0000
  O   O7        1.0  0.3762  0.4601999999999999  0.5902999999999998  1.0000
  O   O8        1.0  0.4778999999999999  0.6006  0.5641  1.0000
  O   O9        1.0  0.41809999999999997  0.11159999999999998  0.6109999999999998  1.0000
  O   O10       1.0  0.3262  0.2604  0.6027999999999998  1.0000
  O   O11       1.0  0.0802  0.0417  0.947  1.0000
  O   O12       1.0  0.0318  0.1983999999999999  0.9602999999999999  1.0000
  O   O13       1.0  0.6892999999999998  0.1737  0.6126  1.0000
  O   O14       1.0  0.6036  0.31669999999999987  0.5808  1.0000
  O   O15       1.0  0.8762  0.5398  0.9096999999999998  1.0000
  O   O16       1.0  0.9778999999999998  0.39939999999999987  0.9359  1.0000
  O   O17       1.0  0.0819  0.11159999999999999  0.11099999999999997  1.0000
  O   O18       1.0  0.1738  0.2604  0.1028  1.0000
  O   O19       1.0  0.41979999999999995  0.0417  0.447  1.0000
  O   O20       1.0  0.4682  0.19840000000000002  0.4603  1.0000
  O   O21       1.0  0.8107  0.1737  0.1126  1.0000
  O   O22       1.0  0.8963999999999998  0.31669999999999987  0.08079999999999997  1.0000
  O   O23       1.0  0.6238  0.5398  0.4096999999999999  1.0000
  O   O24       1.0  0.5221  0.39939999999999987  0.4359  1.0000
  O   O25       1.0  0.5819  0.8883999999999997  0.38899999999999996  1.0000
  O   O26       1.0  0.6738  0.7395999999999999  0.3971999999999999  1.0000
  O   O27       1.0  0.9197999999999998  0.9582999999999998  0.052999999999999985  1.0000
  O   O28       1.0  0.9682  0.8016  0.0397  1.0000
  O   O29       1.0  0.3107  0.8263  0.38739999999999997  1.0000
  O   O30       1.0  0.3964  0.6832999999999999  0.4191999999999999  1.0000
  O   O31       1.0  0.1238  0.4601999999999999  0.0903  1.0000
  O   O32       1.0  0.0221  0.6006  0.0641  1.0000
