data_image0
_chemical_formula_structural       Sr4Zn2H18C42N6O24
_chemical_formula_sum              "Sr4 Zn2 H18 C42 N6 O24"
_cell_length_a       7.875
_cell_length_b       13.898
_cell_length_c       13.909999999999998
_cell_angle_alpha    107.624
_cell_angle_beta     97.416
_cell_angle_gamma    97.31

_symmetry_space_group_name_H-M    'P 1'
_symmetry_Int_Tables_number       1

loop_
  _symmetry_equiv_pos_as_xyz
  'x,y,z'

loop_
  _atom_site_type_symbol
  _atom_site_label
  _atom_site_symmetry_multiplicity
  _atom_site_fract_x
  _atom_site_fract_y
  _atom_site_fract_z
  _atom_site_occupancy
  Sr  Sr1       1.0  0.95328  0.37371  0.87354  1.0000
  Sr  Sr2       1.0  0.39481  0.2966  0.79673  1.0000
  Sr  Sr3       1.0  0.04671999999999997  0.62629  0.12646  1.0000
  Sr  Sr4       1.0  0.60519  0.7034  0.20327  1.0000
  Zn  Zn1       1.0  0.0012000000000000016  0.24081999999999998  0.25914  1.0000
  Zn  Zn2       1.0  0.9988  0.75918  0.7408599999999999  1.0000
  H   H1        1.0  0.72  0.824  0.975  1.0000
  H   H2        1.0  0.39409999999999995  0.598  0.9025  1.0000
  H   H3        1.0  0.4276999999999999  0.2265  0.2581  1.0000
  H   H4        1.0  0.2799999999999999  0.176  0.025  1.0000
  H   H5        1.0  0.26329999999999987  0.53  0.6615  1.0000
  H   H6        1.0  0.732  0.5549  0.6369  1.0000
  H   H7        1.0  0.3651  0.0243  0.0617  1.0000
  H   H8        1.0  0.26949999999999996  0.8625  0.946  1.0000
  H   H9        1.0  0.6348999999999998  0.9757  0.9382999999999999  1.0000
  H   H10       1.0  0.7305  0.1375  0.054  1.0000
  H   H11       1.0  0.5723  0.7734999999999997  0.7419  1.0000
  H   H12       1.0  0.6541  0.2943  0.19319999999999996  1.0000
  H   H13       1.0  0.7367  0.47  0.3385  1.0000
  H   H14       1.0  0.3617  0.5626  0.5224  1.0000
  H   H15       1.0  0.268  0.44510000000000005  0.3631  1.0000
  H   H16       1.0  0.6383  0.43739999999999996  0.4775999999999999  1.0000
  H   H17       1.0  0.6059  0.40199999999999997  0.0975  1.0000
  H   H18       1.0  0.3459  0.7057  0.8068  1.0000
  C   C1        1.0  0.6494999999999996  0.6012  0.895  1.0000
  C   C2        1.0  0.879  0.2473  0.4491  1.0000
  C   C3        1.0  0.9124999999999998  0.9202999999999998  0.0957  1.0000
  C   C4        1.0  0.7851  0.6417999999999999  0.8561  1.0000
  C   C5        1.0  0.5151  0.37479999999999997  0.12349999999999997  1.0000
  C   C6        1.0  0.7189999999999998  0.9862999999999998  0.9958  1.0000
  C   C7        1.0  0.4083999999999999  0.2697  0.2197  1.0000
  C   C8        1.0  0.9726  0.827  0.1111  1.0000
  C   C9        1.0  0.21489999999999998  0.3582  0.1439  1.0000
  C   C10       1.0  0.281  0.0137  0.0042  1.0000
  C   C11       1.0  0.9749  0.6117  0.3274  1.0000
  C   C12       1.0  0.21800000000000003  0.4866  0.5952  1.0000
  C   C13       1.0  0.782  0.5134  0.4048  1.0000
  C   C14       1.0  0.48490000000000005  0.6252  0.8765  1.0000
  C   C15       1.0  0.027400000000000004  0.173  0.8889  1.0000
  C   C16       1.0  0.5916  0.7302999999999998  0.7803  1.0000
  C   C17       1.0  0.72  0.49549999999999994  0.487  1.0000
  C   C18       1.0  0.45599999999999996  0.6897  0.8190999999999999  1.0000
  C   C19       1.0  0.8796999999999999  0.9491  0.7475999999999999  1.0000
  C   C20       1.0  0.9704999999999996  0.6268  0.8736  1.0000
  C   C21       1.0  0.2799999999999999  0.5045  0.513  1.0000
  C   C22       1.0  0.025099999999999966  0.38829999999999987  0.6726  1.0000
  C   C23       1.0  0.784  0.9063  0.0135  1.0000
  C   C24       1.0  0.029499999999999988  0.3731999999999999  0.1264  1.0000
  C   C25       1.0  0.6729999999999998  0.5264  0.952  1.0000
  C   C26       1.0  0.216  0.09369999999999996  0.9865  1.0000
  C   C27       1.0  0.0252  0.3378999999999999  0.479  1.0000
  C   C28       1.0  0.9736  0.020200000000000006  0.1619  1.0000
  C   C29       1.0  0.12029999999999998  0.05090000000000001  0.2524  1.0000
  C   C30       1.0  0.9747999999999996  0.6620999999999998  0.521  1.0000
  C   C31       1.0  0.22200000000000006  0.9174  0.9361  1.0000
  C   C32       1.0  0.21999999999999995  0.4355  0.418  1.0000
  C   C33       1.0  0.026399999999999996  0.9797999999999999  0.8381  1.0000
  C   C34       1.0  0.3505  0.3988  0.10499999999999998  1.0000
  C   C35       1.0  0.32699999999999996  0.4736  0.048  1.0000
  C   C36       1.0  0.544  0.3103  0.1809  1.0000
  C   C37       1.0  0.08749999999999994  0.0797  0.9043  1.0000
  C   C38       1.0  0.12099999999999998  0.7527  0.5509  1.0000
  C   C39       1.0  0.778  0.0826  0.0639  1.0000
  C   C40       1.0  0.78  0.5645  0.582  1.0000
  C   C41       1.0  0.08729999999999999  0.4034  0.5784  1.0000
  C   C42       1.0  0.9126999999999995  0.5965999999999999  0.4216  1.0000
  N   N1        1.0  0.7562  0.7064  0.7988  1.0000
  N   N2        1.0  0.9056999999999997  0.0997  0.1455  1.0000
  N   N3        1.0  0.2438  0.2936  0.2012  1.0000
  N   N4        1.0  0.096  0.355  0.4006  1.0000
  N   N5        1.0  0.9039999999999999  0.645  0.5994  1.0000
  N   N6        1.0  0.09429999999999998  0.9003  0.8544999999999999  1.0000
  O   O1        1.0  0.8709999999999998  0.6472999999999999  0.2756  1.0000
  O   O2        1.0  0.3383  0.5824  0.08049999999999999  1.0000
  O   O3        1.0  0.1877  0.7731  0.4825  1.0000
  O   O4        1.0  0.8691999999999999  0.7745  0.1462  1.0000
  O   O5        1.0  0.129  0.3527  0.7244  1.0000
  O   O6        1.0  0.8317  0.2046  0.3547999999999999  1.0000
  O   O7        1.0  0.8112999999999998  0.01710000000000002  0.7263  1.0000
  O   O8        1.0  0.1669  0.1454  0.298  1.0000
  O   O9        1.0  0.10720000000000003  0.5811  0.2995  1.0000
  O   O10       1.0  0.10709999999999999  0.7997999999999998  0.08049999999999999  1.0000
  O   O11       1.0  0.9989999999999998  0.5730999999999999  0.9263999999999999  1.0000
  O   O12       1.0  0.2963  0.4432  0.9432  1.0000
  O   O13       1.0  0.1683  0.7954  0.6452  1.0000
  O   O14       1.0  0.0009999999999999955  0.4269  0.0736  1.0000
  O   O15       1.0  0.7037  0.5568  0.056799999999999996  1.0000
  O   O16       1.0  0.8928999999999999  0.20019999999999993  0.9195  1.0000
  O   O17       1.0  0.8927999999999998  0.4189  0.7005  1.0000
  O   O18       1.0  0.9362999999999996  0.3364  0.1776  1.0000
  O   O19       1.0  0.06369999999999994  0.6636  0.8223999999999999  1.0000
  O   O20       1.0  0.18869999999999992  0.9828999999999999  0.2737  1.0000
  O   O21       1.0  0.8330999999999996  0.8546  0.7019999999999998  1.0000
  O   O22       1.0  0.13079999999999994  0.2255  0.8538  1.0000
  O   O23       1.0  0.6616999999999997  0.4176  0.9195  1.0000
  O   O24       1.0  0.8123  0.2269  0.5175  1.0000
