data_image0
_chemical_formula_structural       O3HC3HCO3HC3HCO3HC3HCO3HC3HCO3HC3HCO3HC3HCO3HC3HCO3HC3HCMg4
_chemical_formula_sum              "O24 H16 C32 Mg4"
_cell_length_a       13.741
_cell_length_b       13.972
_cell_length_c       8.8045
_cell_angle_alpha    90.0
_cell_angle_beta     113.75999999999999
_cell_angle_gamma    90.0

_space_group_name_H-M_alt    "P 1"
_space_group_IT_number       1

loop_
  _space_group_symop_operation_xyz
  'x, y, z'

loop_
  _atom_site_type_symbol
  _atom_site_label
  _atom_site_symmetry_multiplicity
  _atom_site_fract_x
  _atom_site_fract_y
  _atom_site_fract_z
  _atom_site_occupancy
  O   O1        1.0  0.09191  0.5769899999999999  0.11563999999999998  1.0000
  O   O2        1.0  0.10205999999999994  0.52614  0.8848899999999997  1.0000
  O   O3        1.0  0.18938000000000005  0.62701  0.73276  1.0000
  H   H1        1.0  0.14720000000000003  0.5869  0.7379  1.0000
  C   C1        1.0  0.12089  0.58576  0.001  1.0000
  C   C2        1.0  0.18695  0.6707699999999998  0.9985  1.0000
  C   C3        1.0  0.22013  0.7345599999999999  0.1304  1.0000
  H   H2        1.0  0.20020000000000004  0.7244  0.2182  1.0000
  C   C4        1.0  0.21765999999999996  0.68704  0.8663999999999997  1.0000
  O   O4        1.0  0.5919100000000002  0.07699  0.11563999999999998  1.0000
  O   O5        1.0  0.6020599999999999  0.02614  0.8848899999999997  1.0000
  O   O6        1.0  0.68938  0.12701  0.73276  1.0000
  H   H3        1.0  0.6472000000000002  0.0869  0.7379  1.0000
  C   C5        1.0  0.6208900000000002  0.08576  0.001  1.0000
  C   C6        1.0  0.6869500000000002  0.17076999999999995  0.9985  1.0000
  C   C7        1.0  0.72013  0.23456  0.1304  1.0000
  H   H4        1.0  0.7002  0.22439999999999993  0.2182  1.0000
  C   C8        1.0  0.71766  0.18704  0.8663999999999997  1.0000
  O   O7        1.0  0.90809  0.5769899999999999  0.38435999999999987  1.0000
  O   O8        1.0  0.89794  0.52614  0.61511  1.0000
  O   O9        1.0  0.8106200000000001  0.62701  0.76724  1.0000
  H   H5        1.0  0.8528  0.5869  0.7621  1.0000
  C   C9        1.0  0.87911  0.58576  0.49899999999999994  1.0000
  C   C10       1.0  0.81305  0.6707699999999998  0.5015  1.0000
  C   C11       1.0  0.7798700000000002  0.7345599999999999  0.3695999999999999  1.0000
  H   H6        1.0  0.7998000000000001  0.7244  0.2817999999999999  1.0000
  C   C12       1.0  0.7823400000000001  0.68704  0.6336  1.0000
  O   O10       1.0  0.4080900000000001  0.07699  0.38435999999999987  1.0000
  O   O11       1.0  0.39794  0.02614  0.61511  1.0000
  O   O12       1.0  0.31062  0.12701  0.76724  1.0000
  H   H7        1.0  0.3528  0.0869  0.7621  1.0000
  C   C13       1.0  0.3791100000000001  0.08576  0.49899999999999994  1.0000
  C   C14       1.0  0.31305  0.17076999999999995  0.5015  1.0000
  C   C15       1.0  0.27987000000000006  0.23456  0.3695999999999999  1.0000
  H   H8        1.0  0.2998  0.22439999999999993  0.2817999999999999  1.0000
  C   C16       1.0  0.28234  0.18704  0.6336  1.0000
  O   O13       1.0  0.90809  0.42301  0.8843599999999998  1.0000
  O   O14       1.0  0.8979400000000002  0.47386  0.11511  1.0000
  O   O15       1.0  0.8106200000000001  0.37299  0.26724  1.0000
  H   H9        1.0  0.8528  0.4131  0.2621  1.0000
  C   C17       1.0  0.87911  0.41424  0.999  1.0000
  C   C18       1.0  0.81305  0.32923  0.0015  1.0000
  C   C19       1.0  0.7798700000000002  0.26544  0.8695999999999998  1.0000
  H   H10       1.0  0.7998000000000001  0.2756  0.7818  1.0000
  C   C20       1.0  0.78234  0.31295999999999996  0.13359999999999994  1.0000
  O   O16       1.0  0.40809000000000006  0.92301  0.8843599999999998  1.0000
  O   O17       1.0  0.39794  0.9738599999999998  0.11511  1.0000
  O   O18       1.0  0.31062  0.87299  0.26724  1.0000
  H   H11       1.0  0.3528  0.9131  0.2621  1.0000
  C   C21       1.0  0.3791100000000001  0.91424  0.999  1.0000
  C   C22       1.0  0.31305  0.82923  0.0015  1.0000
  C   C23       1.0  0.27987  0.76544  0.8695999999999998  1.0000
  H   H12       1.0  0.2998  0.7756  0.7818  1.0000
  C   C24       1.0  0.28234  0.8129599999999998  0.13359999999999994  1.0000
  O   O19       1.0  0.09191  0.42301  0.61564  1.0000
  O   O20       1.0  0.10206  0.47386  0.38489  1.0000
  O   O21       1.0  0.18938000000000005  0.37299  0.23276  1.0000
  H   H13       1.0  0.14720000000000003  0.4131  0.23789999999999994  1.0000
  C   C25       1.0  0.12089  0.41424  0.501  1.0000
  C   C26       1.0  0.18695  0.32923  0.4985  1.0000
  C   C27       1.0  0.22013  0.26544  0.6304  1.0000
  H   H14       1.0  0.2002  0.2756  0.7181999999999997  1.0000
  C   C28       1.0  0.21766  0.31295999999999996  0.3664  1.0000
  O   O22       1.0  0.5919100000000002  0.92301  0.61564  1.0000
  O   O23       1.0  0.60206  0.9738599999999998  0.38489  1.0000
  O   O24       1.0  0.68938  0.87299  0.23276  1.0000
  H   H15       1.0  0.6472000000000002  0.9131  0.23789999999999994  1.0000
  C   C29       1.0  0.6208900000000002  0.91424  0.501  1.0000
  C   C30       1.0  0.6869500000000002  0.82923  0.4985  1.0000
  C   C31       1.0  0.72013  0.76544  0.6304  1.0000
  H   H16       1.0  0.7002  0.7756  0.7181999999999997  1.0000
  C   C32       1.0  0.7176600000000001  0.8129599999999998  0.3664  1.0000
  Mg  Mg1       1.0  0.0  0.5777999999999998  0.25  1.0000
  Mg  Mg2       1.0  0.5  0.0778  0.25  1.0000
  Mg  Mg3       1.0  0.0  0.4221999999999999  0.75  1.0000
  Mg  Mg4       1.0  0.5  0.9222  0.75  1.0000
