data_image0
_chemical_formula_structural       Co4H4C20O16
_chemical_formula_sum              "Co4 H4 C20 O16"
_cell_length_a       9.4098
_cell_length_b       9.4098
_cell_length_c       11.742
_cell_angle_alpha    90.3182
_cell_angle_beta     90.3182
_cell_angle_gamma    110.041

_space_group_name_H-M_alt    "P 1"
_space_group_IT_number       1

loop_
  _space_group_symop_operation_xyz
  'x, y, z'

loop_
  _atom_site_type_symbol
  _atom_site_label
  _atom_site_symmetry_multiplicity
  _atom_site_fract_x
  _atom_site_fract_y
  _atom_site_fract_z
  _atom_site_occupancy
  Co  Co1       1.0  0.11278  0.88722  0.5  1.0000
  Co  Co2       1.0  0.8585  0.8687  0.6884799999999999  1.0000
  Co  Co3       1.0  0.8872199999999999  0.11278  0.0  1.0000
  Co  Co4       1.0  0.8687  0.8585  0.18847999999999998  1.0000
  H   H1        1.0  0.931  0.4348  0.2346  1.0000
  H   H2        1.0  0.8777  0.3309  0.6178  1.0000
  H   H3        1.0  0.4348000000000001  0.931  0.7346  1.0000
  H   H4        1.0  0.3309  0.8777  0.1178  1.0000
  C   C1        1.0  0.8616  0.5966  0.5903999999999999  1.0000
  C   C2        1.0  0.9083  0.6657  0.3298  1.0000
  C   C3        1.0  0.9182  0.1578  0.2608  1.0000
  C   C4        1.0  0.9344  0.11  0.5201  1.0000
  C   C5        1.0  0.891  0.4932  0.504  1.0000
  C   C6        1.0  0.9078  0.5238  0.3872999999999999  1.0000
  C   C7        1.0  0.922  0.4142  0.3121  1.0000
  C   C8        1.0  0.923  0.275  0.35039999999999993  1.0000
  C   C9        1.0  0.913  0.24540000000000003  0.4683  1.0000
  C   C10       1.0  0.8919  0.3533  0.5408  1.0000
  C   C11       1.0  0.5966  0.8616  0.0904  1.0000
  C   C12       1.0  0.6656999999999998  0.9082999999999999  0.8297999999999998  1.0000
  C   C13       1.0  0.15779999999999994  0.9182  0.7608  1.0000
  C   C14       1.0  0.11000000000000001  0.9344  0.0201  1.0000
  C   C15       1.0  0.4932  0.891  0.004  1.0000
  C   C16       1.0  0.5238  0.9078  0.8872999999999998  1.0000
  C   C17       1.0  0.41420000000000007  0.9220000000000002  0.8120999999999999  1.0000
  C   C18       1.0  0.275  0.9229999999999999  0.8503999999999998  1.0000
  C   C19       1.0  0.24540000000000003  0.913  0.9683  1.0000
  C   C20       1.0  0.3533  0.8919  0.0408  1.0000
  O   O1        1.0  0.9017  0.7407  0.5651  1.0000
  O   O2        1.0  0.7995000000000001  0.5479  0.6776  1.0000
  O   O3        1.0  0.005699999999999998  0.7937  0.34579999999999994  1.0000
  O   O4        1.0  0.8053  0.6483  0.2531  1.0000
  O   O5        1.0  0.9599  0.2029  0.1629  1.0000
  O   O6        1.0  0.8641999999999999  0.021799999999999996  0.29139999999999994  1.0000
  O   O7        1.0  0.04379999999999999  0.071  0.4856  1.0000
  O   O8        1.0  0.847  0.0442  0.5989  1.0000
  O   O9        1.0  0.7407  0.9016999999999998  0.0651  1.0000
  O   O10       1.0  0.5479  0.7995  0.1776  1.0000
  O   O11       1.0  0.7937  0.0057  0.8458  1.0000
  O   O12       1.0  0.6483  0.8053  0.7531  1.0000
  O   O13       1.0  0.2029  0.9599  0.6629  1.0000
  O   O14       1.0  0.021799999999999962  0.8642  0.7913999999999999  1.0000
  O   O15       1.0  0.071  0.0438  0.9855999999999998  1.0000
  O   O16       1.0  0.04420000000000001  0.847  0.09889999999999997  1.0000
