data_image0
_chemical_formula_structural       Nd4H16C20O32
_chemical_formula_sum              "Nd4 H16 C20 O32"
_cell_length_a       6.1092
_cell_length_b       7.6866
_cell_length_c       22.6987
_cell_angle_alpha    90.0
_cell_angle_beta     91.657
_cell_angle_gamma    90.0

_symmetry_space_group_name_H-M    'P 1'
_symmetry_Int_Tables_number       1

loop_
  _symmetry_equiv_pos_as_xyz
  'x,y,z'

loop_
  _atom_site_type_symbol
  _atom_site_label
  _atom_site_symmetry_multiplicity
  _atom_site_fract_x
  _atom_site_fract_y
  _atom_site_fract_z
  _atom_site_occupancy
  Nd  Nd1       1.0  0.45527  0.5032  0.85402  1.0000
  Nd  Nd2       1.0  0.54473  0.003200000000000001  0.64598  1.0000
  Nd  Nd3       1.0  0.54473  0.49680000000000013  0.14598  1.0000
  Nd  Nd4       1.0  0.45527  0.9968  0.35402  1.0000
  H   H1        1.0  0.30199999999999994  0.723  0.7610000000000001  1.0000
  H   H2        1.0  0.4229999999999999  0.633  0.612  1.0000
  H   H3        1.0  0.04309999999999999  0.4784  0.7175  1.0000
  H   H4        1.0  0.1225  0.5691000000000003  0.6244  1.0000
  H   H5        1.0  0.6979999999999997  0.22300000000000006  0.739  1.0000
  H   H6        1.0  0.577  0.13300000000000006  0.888  1.0000
  H   H7        1.0  0.9568999999999999  0.9784000000000003  0.7825  1.0000
  H   H8        1.0  0.8774999999999997  0.06910000000000002  0.8756  1.0000
  H   H9        1.0  0.6979999999999997  0.277  0.239  1.0000
  H   H10       1.0  0.577  0.367  0.388  1.0000
  H   H11       1.0  0.9568999999999999  0.5216  0.2825  1.0000
  H   H12       1.0  0.8774999999999997  0.4309  0.3756  1.0000
  H   H13       1.0  0.30199999999999994  0.7770000000000002  0.261  1.0000
  H   H14       1.0  0.4229999999999999  0.8670000000000002  0.112  1.0000
  H   H15       1.0  0.04309999999999999  0.0216  0.21749999999999997  1.0000
  H   H16       1.0  0.1225  0.9309  0.1244  1.0000
  C   C1        1.0  0.3663  0.3948  0.7111000000000001  1.0000
  C   C2        1.0  0.1849  0.5371  0.7147  1.0000
  C   C3        1.0  0.18379999999999994  0.6423  0.6562  1.0000
  C   C4        1.0  0.0467  0.8115  0.6595  1.0000
  C   C5        1.0  0.5836999999999998  0.5759  0.9988  1.0000
  C   C6        1.0  0.6337  0.8948  0.7889  1.0000
  C   C7        1.0  0.8150999999999998  0.0371  0.7853  1.0000
  C   C8        1.0  0.8161999999999999  0.1423  0.8438  1.0000
  C   C9        1.0  0.9532999999999998  0.3115  0.8404999999999999  1.0000
  C   C10       1.0  0.4163  0.0759  0.5012  1.0000
  C   C11       1.0  0.6337  0.6052  0.2889  1.0000
  C   C12       1.0  0.8150999999999998  0.4629  0.2853  1.0000
  C   C13       1.0  0.8161999999999999  0.3577  0.3438  1.0000
  C   C14       1.0  0.9532999999999998  0.18850000000000006  0.3405  1.0000
  C   C15       1.0  0.4163  0.4241000000000001  0.0012  1.0000
  C   C16       1.0  0.3663  0.1052  0.21109999999999998  1.0000
  C   C17       1.0  0.1849  0.9629  0.2147  1.0000
  C   C18       1.0  0.18379999999999994  0.8577  0.1562  1.0000
  C   C19       1.0  0.0467  0.6885  0.1595  1.0000
  C   C20       1.0  0.5836999999999999  0.9241  0.49879999999999997  1.0000
  O   O1        1.0  0.5150999999999999  0.4011000000000001  0.7516  1.0000
  O   O2        1.0  0.3579  0.2858  0.6704  1.0000
  O   O3        1.0  0.21889999999999998  0.6408  0.7668000000000001  1.0000
  O   O4        1.0  0.4049999999999999  0.6914  0.6417  1.0000
  O   O5        1.0  0.1488  0.9532000000000003  0.6539  1.0000
  O   O6        1.0  0.8453  0.7956  0.6662  1.0000
  O   O7        1.0  0.6234  0.6326  0.9472  1.0000
  O   O8        1.0  0.6644  0.6311  0.0471  1.0000
  O   O9        1.0  0.4849  0.9011  0.7484000000000001  1.0000
  O   O10       1.0  0.6421  0.7858  0.8296  1.0000
  O   O11       1.0  0.7810999999999999  0.1408  0.7332  1.0000
  O   O12       1.0  0.595  0.19140000000000004  0.8583000000000001  1.0000
  O   O13       1.0  0.8511999999999998  0.4532  0.8461  1.0000
  O   O14       1.0  0.15469999999999998  0.2956000000000001  0.8337999999999999  1.0000
  O   O15       1.0  0.3766  0.1326  0.5528  1.0000
  O   O16       1.0  0.3355999999999999  0.1311  0.4529  1.0000
  O   O17       1.0  0.4849  0.5989  0.24839999999999998  1.0000
  O   O18       1.0  0.6421  0.7142  0.3296  1.0000
  O   O19       1.0  0.7810999999999999  0.3592  0.2332  1.0000
  O   O20       1.0  0.595  0.3086  0.3583  1.0000
  O   O21       1.0  0.8511999999999998  0.0468  0.3461  1.0000
  O   O22       1.0  0.15469999999999998  0.20440000000000005  0.3338  1.0000
  O   O23       1.0  0.3766  0.3674000000000001  0.0528  1.0000
  O   O24       1.0  0.3355999999999999  0.3689  0.9529  1.0000
  O   O25       1.0  0.5150999999999999  0.0989  0.2516  1.0000
  O   O26       1.0  0.3579  0.2142  0.1704  1.0000
  O   O27       1.0  0.21889999999999996  0.8592000000000001  0.2668  1.0000
  O   O28       1.0  0.4049999999999999  0.8086  0.1417  1.0000
  O   O29       1.0  0.1488  0.5468  0.1539  1.0000
  O   O30       1.0  0.8453  0.7044000000000002  0.1662  1.0000
  O   O31       1.0  0.6234  0.8674000000000002  0.4472  1.0000
  O   O32       1.0  0.6644  0.8689  0.5471  1.0000
