data_image0
_chemical_formula_structural       Zn3P2O5HO2HO5HZn3P2O5HO2HO5HZn3P2O5HO2HO5HZn3P2O5HO2HO5HZn3P2O5HO2HO5HZn3P2O5HO2HO5HZn3P2O5HO2HO5HZn3P2O5HO2HO5HP8
_chemical_formula_sum              "Zn24 P24 O96 H24"
_cell_length_a       10.4787
_cell_length_b       20.0091
_cell_length_c       14.9594
_cell_angle_alpha    90.0
_cell_angle_beta     90.0
_cell_angle_gamma    90.0

_symmetry_space_group_name_H-M    'P 1'
_symmetry_Int_Tables_number       1

loop_
  _symmetry_equiv_pos_as_xyz
  'x,y,z'

loop_
  _atom_site_type_symbol
  _atom_site_label
  _atom_site_symmetry_multiplicity
  _atom_site_fract_x
  _atom_site_fract_y
  _atom_site_fract_z
  _atom_site_occupancy
  Zn  Zn1       1.0  0.07352  0.75628  0.3865799999999999  1.0000
  Zn  Zn2       1.0  0.90568  0.5889300000000001  0.43416  1.0000
  Zn  Zn3       1.0  0.3674  0.08386  0.9821  1.0000
  P   P1        1.0  0.30773  0.7656900000000001  0.52151  1.0000
  P   P2        1.0  0.1364  0.44127000000000005  0.07896  1.0000
  O   O1        1.0  0.0753  0.8384  0.314  1.0000
  O   O2        1.0  0.92  0.6791000000000001  0.1888  1.0000
  O   O3        1.0  0.24500000000000005  0.7458000000000001  0.4348  1.0000
  O   O4        1.0  0.9458  0.7580000000000001  0.4796  1.0000
  O   O5        1.0  0.087  0.9311  0.2019  1.0000
  H   H1        1.0  0.1418  0.9110000000000001  0.17339999999999997  1.0000
  O   O6        1.0  0.9079000000000002  0.5932  0.302  1.0000
  O   O7        1.0  0.7358  0.7671  0.3977  1.0000
  H   H2        1.0  0.7379  0.8079000000000001  0.4026  1.0000
  O   O8        1.0  0.29280000000000006  0.84  0.5397  1.0000
  O   O9        1.0  0.1907  0.5063  0.0505  1.0000
  O   O10       1.0  0.2441  0.39350000000000007  0.103  1.0000
  O   O11       1.0  0.05290000000000001  0.4086  0.0119  1.0000
  O   O12       1.0  0.9434  0.544  0.8378  1.0000
  H   H3        1.0  0.9184  0.5672  0.7962  1.0000
  Zn  Zn4       1.0  0.42648  0.74372  0.88658  1.0000
  Zn  Zn5       1.0  0.59432  0.9110700000000002  0.9341599999999999  1.0000
  Zn  Zn6       1.0  0.1326  0.41614  0.4821  1.0000
  P   P3        1.0  0.19227000000000002  0.73431  0.02151  1.0000
  P   P4        1.0  0.3636  0.05873  0.57896  1.0000
  O   O13       1.0  0.4247  0.6616  0.814  1.0000
  O   O14       1.0  0.58  0.8209  0.6888  1.0000
  O   O15       1.0  0.255  0.7542  0.9348  1.0000
  O   O16       1.0  0.5542  0.742  0.9796  1.0000
  O   O17       1.0  0.41300000000000003  0.5689  0.7019  1.0000
  H   H4        1.0  0.3582  0.589  0.6734  1.0000
  O   O18       1.0  0.5921  0.9068000000000002  0.802  1.0000
  O   O19       1.0  0.7642  0.7329  0.8977  1.0000
  H   H5        1.0  0.7621  0.6921000000000002  0.9026  1.0000
  O   O20       1.0  0.2072  0.66  0.0397  1.0000
  O   O21       1.0  0.3093  0.9937000000000001  0.5505  1.0000
  O   O22       1.0  0.2559  0.1065  0.603  1.0000
  O   O23       1.0  0.44710000000000005  0.0914  0.5119  1.0000
  O   O24       1.0  0.5566  0.9560000000000001  0.3378  1.0000
  H   H6        1.0  0.5816  0.9328  0.2962  1.0000
  Zn  Zn7       1.0  0.9264800000000001  0.75628  0.11342  1.0000
  Zn  Zn8       1.0  0.09432  0.5889300000000001  0.06584  1.0000
  Zn  Zn9       1.0  0.6326  0.08386  0.5179  1.0000
  P   P5        1.0  0.6922700000000002  0.7656900000000001  0.97849  1.0000
  P   P6        1.0  0.8636  0.44127000000000005  0.42104  1.0000
  O   O25       1.0  0.9247  0.8384  0.186  1.0000
  O   O26       1.0  0.08  0.6791000000000001  0.3112  1.0000
  O   O27       1.0  0.755  0.7458000000000001  0.0652  1.0000
  O   O28       1.0  0.0542  0.7580000000000001  0.0204  1.0000
  O   O29       1.0  0.9130000000000001  0.9311  0.2981  1.0000
  H   H7        1.0  0.8582  0.9110000000000001  0.3266  1.0000
  O   O30       1.0  0.0921  0.5932  0.198  1.0000
  O   O31       1.0  0.2642  0.7671  0.1023  1.0000
  H   H8        1.0  0.2621  0.8079000000000001  0.0974  1.0000
  O   O32       1.0  0.7072  0.84  0.9603  1.0000
  O   O33       1.0  0.8093000000000001  0.5063  0.4495  1.0000
  O   O34       1.0  0.7559  0.39350000000000007  0.397  1.0000
  O   O35       1.0  0.9471  0.4086  0.4881  1.0000
  O   O36       1.0  0.056600000000000004  0.544  0.6622  1.0000
  H   H9        1.0  0.0816  0.5672  0.7038  1.0000
  Zn  Zn10      1.0  0.5735200000000001  0.74372  0.61342  1.0000
  Zn  Zn11      1.0  0.40568  0.9110700000000002  0.56584  1.0000
  Zn  Zn12      1.0  0.8674  0.41614  0.0179  1.0000
  P   P7        1.0  0.80773  0.73431  0.47849  1.0000
  P   P8        1.0  0.6364  0.05873  0.92104  1.0000
  O   O37       1.0  0.5753  0.6616  0.686  1.0000
  O   O38       1.0  0.42  0.8209  0.8112  1.0000
  O   O39       1.0  0.745  0.7542  0.5652  1.0000
  O   O40       1.0  0.4458  0.742  0.5204  1.0000
  O   O41       1.0  0.5870000000000001  0.5689  0.7981  1.0000
  H   H10       1.0  0.6418  0.589  0.8266  1.0000
  O   O42       1.0  0.40790000000000004  0.9068000000000002  0.698  1.0000
  O   O43       1.0  0.2358  0.7329  0.6023  1.0000
  H   H11       1.0  0.2379  0.6921000000000002  0.5974  1.0000
  O   O44       1.0  0.7928000000000001  0.66  0.4603  1.0000
  O   O45       1.0  0.6907  0.9937000000000001  0.9495  1.0000
  O   O46       1.0  0.7441  0.1065  0.897  1.0000
  O   O47       1.0  0.5529  0.0914  0.9881  1.0000
  O   O48       1.0  0.4434  0.9560000000000001  0.1622  1.0000
  H   H12       1.0  0.41840000000000005  0.9328  0.2038  1.0000
  Zn  Zn13      1.0  0.9264800000000001  0.24372  0.61342  1.0000
  Zn  Zn14      1.0  0.09432  0.41107000000000005  0.56584  1.0000
  Zn  Zn15      1.0  0.6326  0.91614  0.0179  1.0000
  P   P9        1.0  0.6922700000000002  0.23431  0.47849  1.0000
  P   P10       1.0  0.8636  0.55873  0.92104  1.0000
  O   O49       1.0  0.9247  0.1616  0.686  1.0000
  O   O50       1.0  0.08  0.3209  0.8112  1.0000
  O   O51       1.0  0.755  0.25420000000000004  0.5652  1.0000
  O   O52       1.0  0.0542  0.24200000000000002  0.5204  1.0000
  O   O53       1.0  0.9130000000000001  0.0689  0.7981  1.0000
  H   H13       1.0  0.8582  0.089  0.8266  1.0000
  O   O54       1.0  0.0921  0.40680000000000005  0.698  1.0000
  O   O55       1.0  0.2642  0.23290000000000002  0.6023  1.0000
  H   H14       1.0  0.2621  0.1921  0.5974  1.0000
  O   O56       1.0  0.7072  0.16000000000000003  0.4603  1.0000
  O   O57       1.0  0.8093000000000001  0.4937  0.9495  1.0000
  O   O58       1.0  0.7559  0.6065  0.897  1.0000
  O   O59       1.0  0.9471  0.5914  0.9881  1.0000
  O   O60       1.0  0.056600000000000004  0.45600000000000007  0.1622  1.0000
  H   H15       1.0  0.0816  0.4328000000000001  0.2038  1.0000
  Zn  Zn16      1.0  0.5735200000000001  0.25628  0.11342  1.0000
  Zn  Zn17      1.0  0.40568  0.08893000000000001  0.06584  1.0000
  Zn  Zn18      1.0  0.8674  0.5838600000000002  0.5179  1.0000
  P   P11       1.0  0.80773  0.26569  0.97849  1.0000
  P   P12       1.0  0.6364  0.9412700000000002  0.42104  1.0000
  O   O61       1.0  0.5753  0.3384  0.186  1.0000
  O   O62       1.0  0.42  0.1791  0.3112  1.0000
  O   O63       1.0  0.745  0.24580000000000002  0.0652  1.0000
  O   O64       1.0  0.4458  0.258  0.0204  1.0000
  O   O65       1.0  0.5870000000000001  0.4311  0.2981  1.0000
  H   H16       1.0  0.6418  0.411  0.3266  1.0000
  O   O66       1.0  0.40790000000000004  0.09320000000000002  0.198  1.0000
  O   O67       1.0  0.2358  0.2671  0.1023  1.0000
  H   H17       1.0  0.2379  0.3079  0.0974  1.0000
  O   O68       1.0  0.7928000000000001  0.34  0.9603  1.0000
  O   O69       1.0  0.6907  0.0063  0.4495  1.0000
  O   O70       1.0  0.7441  0.8935  0.397  1.0000
  O   O71       1.0  0.5529  0.9086  0.4881  1.0000
  O   O72       1.0  0.4434  0.044  0.6622  1.0000
  H   H18       1.0  0.41840000000000005  0.0672  0.7038  1.0000
  Zn  Zn19      1.0  0.07352  0.24372  0.88658  1.0000
  Zn  Zn20      1.0  0.90568  0.41107000000000005  0.9341599999999999  1.0000
  Zn  Zn21      1.0  0.3674  0.91614  0.4821  1.0000
  P   P13       1.0  0.30773  0.23431  0.02151  1.0000
  P   P14       1.0  0.1364  0.55873  0.57896  1.0000
  O   O73       1.0  0.0753  0.1616  0.814  1.0000
  O   O74       1.0  0.92  0.3209  0.6888  1.0000
  O   O75       1.0  0.24500000000000005  0.25420000000000004  0.9348  1.0000
  O   O76       1.0  0.9458  0.24200000000000002  0.9796  1.0000
  O   O77       1.0  0.087  0.0689  0.7019  1.0000
  H   H19       1.0  0.1418  0.089  0.6734  1.0000
  O   O78       1.0  0.9079000000000002  0.40680000000000005  0.802  1.0000
  O   O79       1.0  0.7358  0.23290000000000002  0.8977  1.0000
  H   H20       1.0  0.7379  0.1921  0.9026  1.0000
  O   O80       1.0  0.29280000000000006  0.16000000000000003  0.0397  1.0000
  O   O81       1.0  0.1907  0.4937  0.5505  1.0000
  O   O82       1.0  0.2441  0.6065  0.603  1.0000
  O   O83       1.0  0.05290000000000001  0.5914  0.5119  1.0000
  O   O84       1.0  0.9434  0.45600000000000007  0.3378  1.0000
  H   H21       1.0  0.9184  0.4328000000000001  0.2962  1.0000
  Zn  Zn22      1.0  0.42648  0.25628  0.3865799999999999  1.0000
  Zn  Zn23      1.0  0.59432  0.08893000000000001  0.43416  1.0000
  Zn  Zn24      1.0  0.1326  0.5838600000000002  0.9821  1.0000
  P   P15       1.0  0.19227000000000002  0.26569  0.52151  1.0000
  P   P16       1.0  0.3636  0.9412700000000002  0.07896  1.0000
  O   O85       1.0  0.4247  0.3384  0.314  1.0000
  O   O86       1.0  0.58  0.1791  0.1888  1.0000
  O   O87       1.0  0.255  0.24580000000000002  0.4348  1.0000
  O   O88       1.0  0.5542  0.258  0.4796  1.0000
  O   O89       1.0  0.41300000000000003  0.4311  0.2019  1.0000
  H   H22       1.0  0.3582  0.411  0.17339999999999997  1.0000
  O   O90       1.0  0.5921  0.09320000000000002  0.302  1.0000
  O   O91       1.0  0.7642  0.2671  0.3977  1.0000
  H   H23       1.0  0.7621  0.3079  0.4026  1.0000
  O   O92       1.0  0.2072  0.34  0.5397  1.0000
  O   O93       1.0  0.3093  0.0063  0.0505  1.0000
  O   O94       1.0  0.2559  0.8935  0.103  1.0000
  O   O95       1.0  0.44710000000000005  0.9086  0.0119  1.0000
  O   O96       1.0  0.5566  0.044  0.8378  1.0000
  H   H24       1.0  0.5816  0.0672  0.7962  1.0000
  P   P17       1.0  0.0  0.88021  0.25  1.0000
  P   P18       1.0  0.0  0.63798  0.25  1.0000
  P   P19       1.0  0.5  0.61979  0.75  1.0000
  P   P20       1.0  0.5  0.86202  0.75  1.0000
  P   P21       1.0  0.0  0.11979  0.75  1.0000
  P   P22       1.0  0.0  0.36202  0.75  1.0000
  P   P23       1.0  0.5  0.38021  0.25  1.0000
  P   P24       1.0  0.5  0.13798  0.25  1.0000
