data_image0
_chemical_formula_structural       Cu12H48C120O48
_chemical_formula_sum              "Cu12 H48 C120 O48"
_cell_length_a       22.38629
_cell_length_b       22.49681
_cell_length_c       13.037630000000002
_cell_angle_alpha    89.69313
_cell_angle_beta     89.81117
_cell_angle_gamma    120.04452

_symmetry_space_group_name_H-M    'P 1'
_symmetry_Int_Tables_number       1

loop_
  _symmetry_equiv_pos_as_xyz
  'x,y,z'

loop_
  _atom_site_type_symbol
  _atom_site_label
  _atom_site_symmetry_multiplicity
  _atom_site_fract_x
  _atom_site_fract_y
  _atom_site_fract_z
  _atom_site_occupancy
  Cu  Cu1       1.0  0.38058  0.38151  0.24352  1.0000
  Cu  Cu2       1.0  9.999999999979382e-06  0.37836  0.74591  1.0000
  Cu  Cu3       1.0  0.62137  0.99962  0.25365  1.0000
  Cu  Cu4       1.0  0.62262  0.62168  0.7555  1.0000
  Cu  Cu5       1.0  0.0001399999999999891  0.61878  0.24969999999999998  1.0000
  Cu  Cu6       1.0  0.37592  0.0009200000000000001  0.74213  1.0000
  Cu  Cu7       1.0  0.27041  0.27355  0.24640999999999996  1.0000
  Cu  Cu8       1.0  0.0012799999999999995  0.27024  0.74655  1.0000
  Cu  Cu9       1.0  0.73137  0.0009700000000000003  0.25094  1.0000
  Cu  Cu10      1.0  0.73257  0.72998  0.75567  1.0000
  Cu  Cu11      1.0  0.99861  0.72695  0.24921  1.0000
  Cu  Cu12      1.0  0.2660699999999999  0.99983  0.74098  1.0000
  H   H1        1.0  0.17787  0.51085  0.8953299999999998  1.0000
  H   H2        1.0  0.6669999999999999  0.17656  0.40639999999999993  1.0000
  H   H3        1.0  0.49356  0.6722  0.90282  1.0000
  H   H4        1.0  0.82616  0.49045  0.41424  1.0000
  H   H5        1.0  0.33116999999999996  0.82746  0.89828  1.0000
  H   H6        1.0  0.51143  0.33718  0.40762  1.0000
  H   H7        1.0  0.33775  0.51153  0.4081599999999999  1.0000
  H   H8        1.0  0.82131  0.32827  0.89646  1.0000
  H   H9        1.0  0.49563000000000007  0.8261400000000001  0.41202  1.0000
  H   H10       1.0  0.6645799999999998  0.48935999999999996  0.90956  1.0000
  H   H11       1.0  0.17906  0.66851  0.40147999999999995  1.0000
  H   H12       1.0  0.50315  0.17374  0.89945  1.0000
  H   H13       1.0  0.82184  0.4871  0.0972  1.0000
  H   H14       1.0  0.3300600000000001  0.8237200000000001  0.59906  1.0000
  H   H15       1.0  0.5029599999999999  0.32636  0.0977  1.0000
  H   H16       1.0  0.17794999999999994  0.5075  0.59882  1.0000
  H   H17       1.0  0.66585  0.17216  0.09269  1.0000
  H   H18       1.0  0.49677999999999994  0.67046  0.6048  1.0000
  H   H19       1.0  0.6743399999999999  0.49345  0.6147799999999999  1.0000
  H   H20       1.0  0.17645  0.67085  0.09460999999999999  1.0000
  H   H21       1.0  0.50394  0.17661  0.59882  1.0000
  H   H22       1.0  0.33135999999999993  0.51055  0.09392  1.0000
  H   H23       1.0  0.8211899999999998  0.32588  0.60685  1.0000
  H   H24       1.0  0.49386  0.82522  0.10071  1.0000
  H   H25       1.0  0.15944  0.31963  0.9943  1.0000
  H   H26       1.0  0.84229  0.15818  0.49332  1.0000
  H   H27       1.0  0.68574  0.8410600000000001  0.00669  1.0000
  H   H28       1.0  0.8464099999999999  0.68309  0.50552  1.0000
  H   H29       1.0  0.15379  0.84054  0.99246  1.0000
  H   H30       1.0  0.31596  0.16117  0.48815  1.0000
  H   H31       1.0  0.16153  0.31853  0.49642  1.0000
  H   H32       1.0  0.84165  0.15689  0.99718  1.0000
  H   H33       1.0  0.68824  0.84413  0.50404  1.0000
  H   H34       1.0  0.8382599999999999  0.67921  0.00846  1.0000
  H   H35       1.0  0.1568  0.8397300000000001  0.49368  1.0000
  H   H36       1.0  0.31114  0.15877  0.99078  1.0000
  H   H37       1.0  0.398  0.60629  0.99858  1.0000
  H   H38       1.0  0.7951  0.3943  0.51618  1.0000
  H   H39       1.0  0.39809  0.79753  0.9993299999999999  1.0000
  H   H40       1.0  0.60606  0.4  0.51277  1.0000
  H   H41       1.0  0.20587  0.60616  0.99392  1.0000
  H   H42       1.0  0.60031  0.20608  0.50201  1.0000
  H   H43       1.0  0.20827  0.60343  0.49856999999999996  1.0000
  H   H44       1.0  0.5990999999999999  0.20144999999999996  0.99389  1.0000
  H   H45       1.0  0.40123  0.60556  0.51072  1.0000
  H   H46       1.0  0.7913199999999998  0.39278  0.99505  1.0000
  H   H47       1.0  0.39927999999999997  0.79582  0.50809  1.0000
  H   H48       1.0  0.5992799999999999  0.39264  0.00559  1.0000
  C   C1        1.0  0.19833999999999996  0.48418  0.9399  1.0000
  C   C2        1.0  0.7144699999999999  0.19629  0.44986  1.0000
  C   C3        1.0  0.52035  0.71859  0.94818  1.0000
  C   C4        1.0  0.8064899999999998  0.51779  0.4586399999999999  1.0000
  C   C5        1.0  0.28318  0.8056  0.94176  1.0000
  C   C6        1.0  0.48301  0.28859  0.44869999999999993  1.0000
  C   C7        1.0  0.28931  0.48394000000000004  0.45030999999999993  1.0000
  C   C8        1.0  0.8007299999999999  0.28087  0.94067  1.0000
  C   C9        1.0  0.52261  0.8055  0.45536  1.0000
  C   C10       1.0  0.71231  0.51542  0.95265  1.0000
  C   C11       1.0  0.1986  0.71555  0.44523999999999997  1.0000
  C   C12       1.0  0.47635000000000005  0.19439  0.9431899999999999  1.0000
  C   C13       1.0  0.8005  0.51419  0.05574  1.0000
  C   C14       1.0  0.28342  0.80269  0.55344  1.0000
  C   C15       1.0  0.47644999999999993  0.28012  0.05197  1.0000
  C   C16       1.0  0.19973  0.48182  0.55502  1.0000
  C   C17       1.0  0.7134999999999999  0.19337  0.04848  1.0000
  C   C18       1.0  0.52316  0.71809  0.56096  1.0000
  C   C19       1.0  0.72124  0.5195  0.56886  1.0000
  C   C20       1.0  0.19635000000000005  0.71779  0.04947  1.0000
  C   C21       1.0  0.4788399999999999  0.19851  0.55371  1.0000
  C   C22       1.0  0.28448  0.4841  0.04903  1.0000
  C   C23       1.0  0.80123  0.28031  0.55963  1.0000
  C   C24       1.0  0.52047  0.80443  0.05681  1.0000
  C   C25       1.0  0.09897000000000004  0.37693  0.87507  1.0000
  C   C26       1.0  0.72269  0.09818  0.3806599999999999  1.0000
  C   C27       1.0  0.6273199999999998  0.72445  0.88444  1.0000
  C   C28       1.0  0.9045999999999998  0.62391  0.38606  1.0000
  C   C29       1.0  0.27381  0.90395  0.8752499999999999  1.0000
  C   C30       1.0  0.37741  0.28136  0.37515  1.0000
  C   C31       1.0  0.28096999999999994  0.37765  0.38028  1.0000
  C   C32       1.0  0.90272  0.27563  0.8784599999999999  1.0000
  C   C33       1.0  0.6293599999999999  0.90486  0.38725  1.0000
  C   C34       1.0  0.72069  0.62357  0.88969  1.0000
  C   C35       1.0  0.09800999999999992  0.7214  0.37824  1.0000
  C   C36       1.0  0.36948999999999993  0.09771  0.87247  1.0000
  C   C37       1.0  0.90018  0.62136  0.12181  1.0000
  C   C38       1.0  0.2744499999999999  0.90196  0.61393  1.0000
  C   C39       1.0  0.36962999999999996  0.27572  0.11218  1.0000
  C   C40       1.0  0.09837999999999997  0.37379  0.61487  1.0000
  C   C41       1.0  0.7228699999999998  0.09567  0.11722  1.0000
  C   C42       1.0  0.6309099999999999  0.72488  0.62211  1.0000
  C   C43       1.0  0.72859  0.62699  0.62893  1.0000
  C   C44       1.0  0.09494999999999999  0.72252  0.11424  1.0000
  C   C45       1.0  0.36961  0.09685  0.60882  1.0000
  C   C46       1.0  0.27679999999999993  0.37719  0.11519  1.0000
  C   C47       1.0  0.9029199999999998  0.27405  0.61711  1.0000
  C   C48       1.0  0.6277299999999999  0.9023000000000001  0.12364  1.0000
  C   C49       1.0  0.16269  0.41214  0.9387299999999998  1.0000
  C   C50       1.0  0.75133  0.16107  0.44511  1.0000
  C   C51       1.0  0.59271  0.75348  0.94873  1.0000
  C   C52       1.0  0.84255  0.58979  0.45454  1.0000
  C   C53       1.0  0.24546  0.84008  0.93952  1.0000
  C   C54       1.0  0.41078  0.25221  0.44185  1.0000
  C   C55       1.0  0.25267000000000006  0.41198  0.44635  1.0000
  C   C56       1.0  0.83776  0.24572  0.9408999999999998  1.0000
  C   C57       1.0  0.59497  0.84138  0.45237999999999995  1.0000
  C   C58       1.0  0.74859  0.58745  0.95286  1.0000
  C   C59       1.0  0.16167999999999993  0.75077  0.44226  1.0000
  C   C60       1.0  0.40396  0.15990999999999997  0.93922  1.0000
  C   C61       1.0  0.8360199999999998  0.58621  0.05903  1.0000
  C   C62       1.0  0.2466  0.83805  0.55164  1.0000
  C   C63       1.0  0.40412999999999993  0.24570000000000003  0.04991999999999999  1.0000
  C   C64       1.0  0.16368999999999995  0.40985  0.55377  1.0000
  C   C65       1.0  0.75073  0.15847  0.05082  1.0000
  C   C66       1.0  0.5955499999999999  0.75411  0.55999  1.0000
  C   C67       1.0  0.75753  0.59152  0.56675  1.0000
  C   C68       1.0  0.15886  0.75241  0.04943  1.0000
  C   C69       1.0  0.40657  0.16251  0.54921  1.0000
  C   C70       1.0  0.24857999999999994  0.41211  0.04991999999999999  1.0000
  C   C71       1.0  0.83837  0.24538999999999997  0.55547  1.0000
  C   C72       1.0  0.5928500000000001  0.8391800000000001  0.0594  1.0000
  C   C73       1.0  0.29751999999999995  0.59731  0.99605  1.0000
  C   C74       1.0  0.7018999999999999  0.29556  0.50976  1.0000
  C   C75       1.0  0.40673  0.70615  0.99969  1.0000
  C   C76       1.0  0.70516  0.4057  0.5148  1.0000
  C   C77       1.0  0.29761  0.70608  0.99665  1.0000
  C   C78       1.0  0.59445  0.29885  0.5083  1.0000
  C   C79       1.0  0.30054999999999993  0.59588  0.50531  1.0000
  C   C80       1.0  0.69949  0.29286  0.99493  1.0000
  C   C81       1.0  0.40909999999999996  0.70513  0.50931  1.0000
  C   C82       1.0  0.69971  0.40155  0.0007799999999999999  1.0000
  C   C83       1.0  0.29927  0.70389  0.50352  1.0000
  C   C84       1.0  0.5902399999999999  0.29266  0.99957  1.0000
  C   C85       1.0  0.25975  0.52123  0.99481  1.0000
  C   C86       1.0  0.73916  0.2567  0.50669  1.0000
  C   C87       1.0  0.4831699999999999  0.74356  0.0015799999999999996  1.0000
  C   C88       1.0  0.74499  0.48168  0.51497  1.0000
  C   C89       1.0  0.25890999999999986  0.74365  0.99588  1.0000
  C   C90       1.0  0.51808  0.26201  0.50403  1.0000
  C   C91       1.0  0.26308  0.51987  0.5039  1.0000
  C   C92       1.0  0.73804  0.25518  0.99398  1.0000
  C   C93       1.0  0.48556  0.74336  0.5093  1.0000
  C   C94       1.0  0.73789  0.4777  0.00321  1.0000
  C   C95       1.0  0.26013  0.741  0.50058  1.0000
  C   C96       1.0  0.51371  0.2551  0.99887  1.0000
  C   C97       1.0  0.18736  0.37545  0.9943399999999999  1.0000
  C   C98       1.0  0.81373  0.18545  0.49762  1.0000
  C   C99       1.0  0.62964  0.81406  0.00506  1.0000
  C   C100      1.0  0.81844  0.62728  0.5089  1.0000
  C   C101      1.0  0.18290999999999996  0.81374  0.99358  1.0000
  C   C102      1.0  0.37194  0.1891  0.49291  1.0000
  C   C103      1.0  0.18972999999999998  0.37431  0.4989  1.0000
  C   C104      1.0  0.8129599999999999  0.18413  0.99622  1.0000
  C   C105      1.0  0.6321500000000001  0.81617  0.50541  1.0000
  C   C106      1.0  0.81048  0.6234  0.00697  1.0000
  C   C107      1.0  0.18540999999999996  0.81243  0.49565  1.0000
  C   C108      1.0  0.3672  0.18526  0.9932099999999999  1.0000
  C   C109      1.0  0.36986999999999987  0.63411  0.99823  1.0000
  C   C110      1.0  0.7390199999999998  0.36753  0.51412  1.0000
  C   C111      1.0  0.37002  0.74163  0.99871  1.0000
  C   C112      1.0  0.63278  0.37078  0.51241  1.0000
  C   C113      1.0  0.26200000000000007  0.63397  0.99543  1.0000
  C   C114      1.0  0.62963  0.26184  0.50651  1.0000
  C   C115      1.0  0.26436  0.63185  0.50218  1.0000
  C   C116      1.0  0.62706  0.25731  0.99603  1.0000
  C   C117      1.0  0.37281999999999993  0.6331  0.50895  1.0000
  C   C118      1.0  0.73518  0.36492  0.99672  1.0000
  C   C119      1.0  0.37169999999999986  0.73994  0.50717  1.0000
  C   C120      1.0  0.62729  0.36473  0.00243  1.0000
  O   O1        1.0  0.07523999999999999  0.31385  0.8519499999999999  1.0000
  O   O2        1.0  0.7630899999999999  0.0761  0.35363  1.0000
  O   O3        1.0  0.69123  0.76264  0.86162  1.0000
  O   O4        1.0  0.9282199999999999  0.6869  0.36102  1.0000
  O   O5        1.0  0.23287  0.92483  0.84582  1.0000
  O   O6        1.0  0.31410000000000005  0.24248000000000003  0.3508899999999999  1.0000
  O   O7        1.0  0.24035  0.3152  0.35463  1.0000
  O   O8        1.0  0.92646  0.23653000000000002  0.85269  1.0000
  O   O9        1.0  0.6924  0.92876  0.36057999999999996  1.0000
  O   O10       1.0  0.76214  0.68565  0.8616  1.0000
  O   O11       1.0  0.07537000000000002  0.76108  0.35015  1.0000
  O   O12       1.0  0.30581  0.07251  0.8497899999999999  1.0000
  O   O13       1.0  0.92161  0.68334  0.14924  1.0000
  O   O14       1.0  0.23548000000000005  0.92692  0.6342  1.0000
  O   O15       1.0  0.30667  0.2369  0.13959  1.0000
  O   O16       1.0  0.07542  0.311  0.64042  1.0000
  O   O17       1.0  0.76253  0.07195  0.14024  1.0000
  O   O18       1.0  0.6932  0.76495  0.6499999999999999  1.0000
  O   O19       1.0  0.7671699999999998  0.69064  0.64965  1.0000
  O   O20       1.0  0.06890000000000002  0.76011  0.13663  1.0000
  O   O21       1.0  0.30675  0.07448  0.6354099999999999  1.0000
  O   O22       1.0  0.23698999999999995  0.31421  0.1402  1.0000
  O   O23       1.0  0.9277499999999999  0.23546  0.64009  1.0000
  O   O24       1.0  0.69067  0.9253900000000002  0.14907  1.0000
  O   O25       1.0  0.07387000000000003  0.41456  0.8465699999999999  1.0000
  O   O26       1.0  0.6590899999999998  0.07215  0.35599  1.0000
  O   O27       1.0  0.58812  0.6625  0.8547499999999999  1.0000
  O   O28       1.0  0.92798  0.58541  0.35507  1.0000
  O   O29       1.0  0.33806  0.93189  0.85227  1.0000
  O   O30       1.0  0.4165099999999999  0.34362  0.34514999999999996  1.0000
  O   O31       1.0  0.34405999999999987  0.41496999999999995  0.35192999999999997  1.0000
  O   O32       1.0  0.92861  0.33907  0.85352  1.0000
  O   O33       1.0  0.59063  0.92908  0.36029  1.0000
  O   O34       1.0  0.65686  0.58768  0.86567  1.0000
  O   O35       1.0  0.07205999999999997  0.65799  0.35455  1.0000
  O   O36       1.0  0.40896999999999994  0.07542  0.8406699999999999  1.0000
  O   O37       1.0  0.9277299999999999  0.58508  0.14535  1.0000
  O   O38       1.0  0.33666  0.9258100000000001  0.6446299999999999  1.0000
  O   O39       1.0  0.40803  0.33912  0.1356  1.0000
  O   O40       1.0  0.07166  0.41057  0.63948  1.0000
  O   O41       1.0  0.66056  0.07167  0.14858  1.0000
  O   O42       1.0  0.5940699999999999  0.66091  0.64497  1.0000
  O   O43       1.0  0.66597  0.58858  0.65898  1.0000
  O   O44       1.0  0.07240999999999997  0.66056  0.14492  1.0000
  O   O45       1.0  0.40595  0.06913  0.63112  1.0000
  O   O46       1.0  0.3396  0.41507000000000005  0.14341  1.0000
  O   O47       1.0  0.92731  0.33663  0.64458  1.0000
  O   O48       1.0  0.5897900000000001  0.9275300000000001  0.15014  1.0000
