data_image0
_chemical_formula_structural       Mn6H6C24O18
_chemical_formula_sum              "Mn6 H6 C24 O18"
_cell_length_a       7.0904
_cell_length_b       15.25785
_cell_length_c       15.29421
_cell_angle_alpha    63.58181
_cell_angle_beta     81.1054
_cell_angle_gamma    99.13508

_symmetry_space_group_name_H-M    'P 1'
_symmetry_Int_Tables_number       1

loop_
  _symmetry_equiv_pos_as_xyz
  'x,y,z'

loop_
  _atom_site_type_symbol
  _atom_site_label
  _atom_site_symmetry_multiplicity
  _atom_site_fract_x
  _atom_site_fract_y
  _atom_site_fract_z
  _atom_site_occupancy
  Mn  Mn1       1.0  0.28057999999999994  0.26248  0.32221  1.0000
  Mn  Mn2       1.0  0.6057100000000003  0.32582  0.41041  1.0000
  Mn  Mn3       1.0  0.016750000000000063  0.41060000000000024  0.26202  1.0000
  Mn  Mn4       1.0  0.7156000000000003  0.7420900000000001  0.6755799999999998  1.0000
  Mn  Mn5       1.0  0.3866700000000002  0.67187  0.5936  1.0000
  Mn  Mn6       1.0  0.97623  0.59248  0.74293  1.0000
  H   H1        1.0  0.30494  0.46904999999999997  0.55612  1.0000
  H   H2        1.0  0.8576900000000002  0.5626000000000002  0.98062  1.0000
  H   H3        1.0  0.8357400000000005  0.9766800000000001  0.46731  1.0000
  H   H4        1.0  0.6850700000000002  0.52386  0.45574  1.0000
  H   H5        1.0  0.14071000000000009  0.4499400000000001  0.021660000000000002  1.0000
  H   H6        1.0  0.16200000000000014  0.024260000000000025  0.52389  1.0000
  C   C1        1.0  0.2375400000000001  0.3924400000000001  0.43673999999999996  1.0000
  C   C2        1.0  0.11001000000000002  0.44644  0.46937  1.0000
  C   C3        1.0  0.9314400000000005  0.46184  0.43974  1.0000
  C   C4        1.0  0.1686700000000001  0.48145000000000004  0.53422  1.0000
  C   C5        1.0  0.67385  0.44087  0.17171  1.0000
  C   C6        1.0  0.57797  0.4719600000000001  0.08657  1.0000
  C   C7        1.0  0.3705400000000001  0.4384600000000001  0.09948  1.0000
  C   C8        1.0  0.7001600000000004  0.538  0.98929  1.0000
  C   C9        1.0  0.8446600000000003  0.1708200000000001  0.38713  1.0000
  C   C10       1.0  0.66378  0.08565999999999994  0.44256000000000006  1.0000
  C   C11       1.0  0.46991000000000005  0.10023999999999998  0.45888  1.0000
  C   C12       1.0  0.68731  0.9869000000000001  0.47955  1.0000
  C   C13       1.0  0.7549300000000003  0.6031599999999999  0.57189  1.0000
  C   C14       1.0  0.8810000000000004  0.54747  0.5415  1.0000
  C   C15       1.0  0.059550000000000027  0.53219  0.57123  1.0000
  C   C16       1.0  0.8218300000000003  0.5119300000000002  0.47723  1.0000
  C   C17       1.0  0.32483000000000006  0.56961  0.83104  1.0000
  C   C18       1.0  0.4205400000000002  0.54004  0.91596  1.0000
  C   C19       1.0  0.6282600000000002  0.5728099999999999  0.90272  1.0000
  C   C20       1.0  0.29815  0.4744400000000001  0.01324  1.0000
  C   C21       1.0  0.1519800000000002  0.8309500000000004  0.60715  1.0000
  C   C22       1.0  0.33361  0.9154499999999999  0.54868  1.0000
  C   C23       1.0  0.52764  0.9007599999999999  0.53249  1.0000
  C   C24       1.0  0.3102700000000001  0.014210000000000028  0.51121  1.0000
  O   O1        1.0  0.18446999999999997  0.3572199999999999  0.37884000000000007  1.0000
  O   O2        1.0  0.3951200000000001  0.3818800000000001  0.46629999999999994  1.0000
  O   O3        1.0  0.86281  0.43109  0.37721  1.0000
  O   O4        1.0  0.5639200000000002  0.38173  0.26227  1.0000
  O   O5        1.0  0.86056  0.47211999999999993  0.1541  1.0000
  O   O6        1.0  0.23988000000000012  0.3741200000000001  0.1901  1.0000
  O   O7        1.0  0.82526  0.26245000000000007  0.3513899999999999  1.0000
  O   O8        1.0  0.013129999999999987  0.15204  0.37628  1.0000
  O   O9        1.0  0.43248  0.19261  0.42729  1.0000
  O   O10       1.0  0.8094100000000001  0.64096  0.62761  1.0000
  O   O11       1.0  0.5977800000000003  0.6133800000000001  0.54204  1.0000
  O   O12       1.0  0.12876000000000015  0.5643100000000002  0.6327  1.0000
  O   O13       1.0  0.4345200000000002  0.6268100000000002  0.73995  1.0000
  O   O14       1.0  0.13817999999999991  0.53805  0.84912  1.0000
  O   O15       1.0  0.7590500000000002  0.63522  0.81181  1.0000
  O   O16       1.0  0.17014999999999994  0.7391099999999999  0.6477800000000001  1.0000
  O   O17       1.0  0.9836400000000003  0.8502900000000004  0.61641  1.0000
  O   O18       1.0  0.56564  0.80841  0.56549  1.0000
