data_image0
_chemical_formula_structural       O20Al2Sc2H48C88
_chemical_formula_sum              "O20 Al2 Sc2 H48 C88"
_cell_length_a       30.507
_cell_length_b       6.961
_cell_length_c       15.933
_cell_angle_alpha    90.0
_cell_angle_beta     90.0
_cell_angle_gamma    90.0

_symmetry_space_group_name_H-M    'P 1'
_symmetry_Int_Tables_number       1

loop_
  _symmetry_equiv_pos_as_xyz
  'x,y,z'

loop_
  _atom_site_type_symbol
  _atom_site_label
  _atom_site_symmetry_multiplicity
  _atom_site_fract_x
  _atom_site_fract_y
  _atom_site_fract_z
  _atom_site_occupancy
  O   O1        1.0  0.414459  0.8412809999999994  0.4690600000000003  1.0000
  O   O2        1.0  0.010548000000000002  0.15779899999999933  0.3182290000000001  1.0000
  O   O3        1.0  0.9991190000000002  0.18657399999999932  0.494834  1.0000
  O   O4        1.0  0.437233  0.8300579999999997  0.2848390000000003  1.0000
  O   O5        1.0  0.0032350000000000993  0.838244  0.29297299999999993  1.0000
  O   O6        1.0  0.4296560000000001  0.15660899999999955  0.49273300000000037  1.0000
  O   O7        1.0  0.421131  0.13741100000000017  0.3186500000000001  1.0000
  O   O8        1.0  0.016804000000000267  0.8758519999999996  0.47298200000000007  1.0000
  O   O9        1.0  0.9211520000000002  0.34161399999999986  0.4762770000000001  1.0000
  O   O10       1.0  0.5167140000000002  0.6036599999999995  0.32152200000000014  1.0000
  O   O11       1.0  0.503082  0.6411769999999999  0.5019629999999999  1.0000
  O   O12       1.0  0.9295810000000002  0.321768  0.3022860000000003  1.0000
  O   O13       1.0  0.4992160000000001  0.292316  0.300341  1.0000
  O   O14       1.0  0.9388090000000002  0.6468819999999997  0.510764  1.0000
  O   O15       1.0  0.9145090000000002  0.637175  0.3259939999999999  1.0000
  O   O16       1.0  0.510394  0.32162300000000016  0.4767420000000002  1.0000
  O   O17       1.0  0.496486  0.997183  0.405621  1.0000
  O   O18       1.0  0.9363900000000002  0.014587999999999822  0.3969420000000002  1.0000
  O   O19       1.0  0.996557  0.48151999999999967  0.38926400000000005  1.0000
  O   O20       1.0  0.4363650000000001  0.4641269999999999  0.3977770000000003  1.0000
  Al  Al1       1.0  0.9653420000000003  0.250763  0.39799600000000007  1.0000
  Al  Al2       1.0  0.4653020000000001  0.2280709999999999  0.397128  1.0000
  Sc  Sc1       1.0  0.9676570000000002  0.748879  0.4005040000000002  1.0000
  Sc  Sc2       1.0  0.46752200000000005  0.7300089999999998  0.3941570000000001  1.0000
  H   H1        1.0  0.5196350000000002  0.014903999999999584  0.44678800000000024  1.0000
  H   H2        1.0  0.9095630000000002  0.022117999999999857  0.364333  1.0000
  H   H3        1.0  0.020066000000000143  0.46271699999999955  0.34895800000000016  1.0000
  H   H4        1.0  0.4089290000000001  0.4572419999999995  0.4284670000000002  1.0000
  H   H5        1.0  0.256586  0.04595599999999988  0.6824980000000003  1.0000
  H   H6        1.0  0.17594500000000005  0.012951999999999407  0.10940700000000003  1.0000
  H   H7        1.0  0.176459  0.060464000000000066  0.6823740000000003  1.0000
  H   H8        1.0  0.256052  0.0030489999999994133  0.10950700000000002  1.0000
  H   H9        1.0  0.7562100000000003  0.4759980000000001  0.6851970000000002  1.0000
  H   H10       1.0  0.67633  0.41853599999999996  0.11223200000000012  1.0000
  H   H11       1.0  0.6760960000000003  0.4642979999999998  0.6851730000000003  1.0000
  H   H12       1.0  0.7564640000000002  0.43411700000000003  0.11237400000000021  1.0000
  H   H13       1.0  0.3672780000000001  0.006031999999999814  0.8958080000000003  1.0000
  H   H14       1.0  0.0651360000000001  0.049009999999999554  0.895358  1.0000
  H   H15       1.0  0.8673110000000003  0.476439  0.89939  1.0000
  H   H16       1.0  0.5651530000000002  0.4278239999999997  0.898987  1.0000
  H   H17       1.0  0.563091  0.17323600000000014  0.02651500000000029  1.0000
  H   H18       1.0  0.5187250000000002  0.17608499999999958  0.1582570000000001  1.0000
  H   H19       1.0  0.5770790000000002  0.7139379999999996  0.22870700000000002  1.0000
  H   H20       1.0  0.6233860000000002  0.7070659999999998  0.09948100000000015  1.0000
  H   H21       1.0  0.9145790000000003  0.22104999999999997  0.158682  1.0000
  H   H22       1.0  0.8713  0.21754600000000002  0.025841999999999924  1.0000
  H   H23       1.0  0.8067990000000003  0.7402649999999994  0.10103599999999992  1.0000
  H   H24       1.0  0.8519720000000002  0.7477919999999996  0.23167800000000008  1.0000
  H   H25       1.0  0.41468300000000013  0.736796  0.14520200000000005  1.0000
  H   H26       1.0  0.3685660000000001  0.7511350000000001  0.015978999999999965  1.0000
  H   H27       1.0  0.310965  0.27972299999999967  0.10341599999999995  1.0000
  H   H28       1.0  0.359016  0.268936  0.230313  1.0000
  H   H29       1.0  0.8595820000000002  0.2101959999999998  0.5654100000000003  1.0000
  H   H30       1.0  0.8113570000000002  0.20085799999999973  0.6919370000000002  1.0000
  H   H31       1.0  0.869047  0.7292559999999998  0.779049  1.0000
  H   H32       1.0  0.9154070000000002  0.7423579999999993  0.6501990000000001  1.0000
  H   H33       1.0  0.35198200000000013  0.7306729999999998  0.5637880000000003  1.0000
  H   H34       1.0  0.3069270000000001  0.7391869999999993  0.6945860000000003  1.0000
  H   H35       1.0  0.3713170000000001  0.2629329999999994  0.7686440000000002  1.0000
  H   H36       1.0  0.414461  0.2585030000000001  0.635641  1.0000
  H   H37       1.0  0.123472  0.7706749999999998  0.695082  1.0000
  H   H38       1.0  0.07717700000000006  0.7643849999999994  0.565696  1.0000
  H   H39       1.0  0.01898599999999995  0.30263399999999935  0.6362760000000001  1.0000
  H   H40       1.0  0.06330199999999998  0.3049669999999995  0.768154  1.0000
  H   H41       1.0  0.06284000000000001  0.7798139999999995  0.014700000000000159  1.0000
  H   H42       1.0  0.018034000000000106  0.7613789999999994  0.14544700000000013  1.0000
  H   H43       1.0  0.07544200000000002  0.28838199999999986  0.2322789999999999  1.0000
  H   H44       1.0  0.12231200000000003  0.3020369999999994  0.10435600000000012  1.0000
  H   H45       1.0  0.6222380000000002  0.1762450000000002  0.6900250000000002  1.0000
  H   H46       1.0  0.5753540000000003  0.19114199999999967  0.5621940000000003  1.0000
  H   H47       1.0  0.518125  0.7180319999999999  0.649861  1.0000
  H   H48       1.0  0.562977  0.6981380000000001  0.7804700000000002  1.0000
  C   C1        1.0  0.411721  0.996166  0.5119450000000004  1.0000
  C   C2        1.0  0.01728200000000002  0.006057999999999896  0.27496200000000015  1.0000
  C   C3        1.0  0.018745999999999933  0.03172999999999959  0.5151640000000002  1.0000
  C   C4        1.0  0.41783400000000004  0.9898169999999994  0.2715449999999999  1.0000
  C   C5        1.0  0.9185640000000003  0.4888819999999994  0.5237750000000001  1.0000
  C   C6        1.0  0.5186680000000002  0.44726999999999956  0.2796050000000003  1.0000
  C   C7        1.0  0.517138  0.473408  0.5200020000000004  1.0000
  C   C8        1.0  0.9116940000000002  0.4822839999999995  0.28309000000000034  1.0000
  C   C9        1.0  0.23876700000000006  0.038381000000000214  0.741473  1.0000
  C   C10       1.0  0.19370000000000007  0.022685000000000063  0.05040500000000003  1.0000
  C   C11       1.0  0.19400800000000007  0.046281999999999705  0.741425  1.0000
  C   C12       1.0  0.23849600000000007  0.017093000000000025  0.05046100000000031  1.0000
  C   C13       1.0  0.7386350000000003  0.46212199999999987  0.7442420000000002  1.0000
  C   C14       1.0  0.6939560000000002  0.43286699999999984  0.05327600000000011  1.0000
  C   C15       1.0  0.6938340000000002  0.4555869999999999  0.7442250000000002  1.0000
  C   C16       1.0  0.738707  0.44141599999999936  0.05332099999999996  1.0000
  C   C17       1.0  0.309592  0.011034999999999682  0.8188810000000002  1.0000
  C   C18       1.0  0.122722  0.045052999999999344  0.9728290000000002  1.0000
  C   C19       1.0  0.12286300000000003  0.04148999999999958  0.8186960000000002  1.0000
  C   C20       1.0  0.3097110000000001  0.02018999999999993  0.9730150000000002  1.0000
  C   C21       1.0  0.809836  0.4611369999999999  0.8219000000000002  1.0000
  C   C22       1.0  0.6228370000000002  0.4363369999999999  0.975947  1.0000
  C   C23       1.0  0.6228  0.43258199999999997  0.82179  1.0000
  C   C24       1.0  0.8095500000000002  0.46966599999999964  0.976063  1.0000
  C   C25       1.0  0.2631430000000001  0.023267999999999397  0.8179430000000002  1.0000
  C   C26       1.0  0.16925100000000007  0.03771399999999935  0.973977  1.0000
  C   C27       1.0  0.16939400000000004  0.039117999999999764  0.8178700000000002  1.0000
  C   C28       1.0  0.263168  0.024938999999999375  0.9740750000000002  1.0000
  C   C29       1.0  0.7632800000000002  0.4553059999999997  0.8206940000000003  1.0000
  C   C30       1.0  0.669378  0.43970599999999965  0.976792  1.0000
  C   C31       1.0  0.669326  0.4406299999999996  0.820616  1.0000
  C   C32       1.0  0.7631  0.45699300000000015  0.9768700000000002  1.0000
  C   C33       1.0  0.23974200000000007  0.028471999999999383  0.8960090000000003  1.0000
  C   C34       1.0  0.19276900000000005  0.03576799999999957  0.8959680000000002  1.0000
  C   C35       1.0  0.7397650000000002  0.45141399999999976  0.898711  1.0000
  C   C36       1.0  0.6927870000000002  0.4432479999999996  0.898688  1.0000
  C   C37       1.0  0.3316270000000001  0.01219699999999957  0.8958520000000002  1.0000
  C   C38       1.0  0.100811  0.046197999999999954  0.895641  1.0000
  C   C39       1.0  0.83166  0.46946899999999964  0.8991630000000003  1.0000
  C   C40       1.0  0.6008320000000003  0.4312170000000002  0.898935  1.0000
  C   C41       1.0  0.5960740000000002  0.4370089999999997  0.743925  1.0000
  C   C42       1.0  0.5993480000000002  0.29449900000000007  0.6815310000000002  1.0000
  C   C43       1.0  0.5730700000000002  0.30238099999999957  0.609916  1.0000
  C   C44       1.0  0.544047  0.45629499999999984  0.597879  1.0000
  C   C45       1.0  0.540623  0.5989799999999996  0.6598280000000002  1.0000
  C   C46       1.0  0.565815  0.587489  0.7325270000000003  1.0000
  C   C47       1.0  0.596578  0.43885099999999966  0.054345000000000095  1.0000
  C   C48       1.0  0.566295  0.2910829999999999  0.07092200000000015  1.0000
  C   C49       1.0  0.54144  0.292186  0.14433800000000008  1.0000
  C   C50       1.0  0.54547  0.44454999999999995  0.20154399999999995  1.0000
  C   C51       1.0  0.574789  0.5951110000000001  0.18456899999999998  1.0000
  C   C52       1.0  0.600491  0.5908109999999995  0.11225900000000012  1.0000
  C   C53       1.0  0.8856510000000002  0.48361300000000007  0.20371800000000032  1.0000
  C   C54       1.0  0.8911480000000003  0.33462699999999973  0.14515199999999995  1.0000
  C   C55       1.0  0.8669050000000003  0.33317699999999956  0.07102300000000007  1.0000
  C   C56       1.0  0.8356540000000002  0.47717600000000004  0.05468000000000007  1.0000
  C   C57       1.0  0.8304220000000002  0.626564  0.1135090000000001  1.0000
  C   C58       1.0  0.8555740000000002  0.6312139999999999  0.18670100000000023  1.0000
  C   C59       1.0  0.389473  0.0014840000000000406  0.19558999999999993  1.0000
  C   C60       1.0  0.3921570000000001  0.855598  0.13488900000000004  1.0000
  C   C61       1.0  0.3663500000000001  0.8643079999999993  0.06290800000000019  1.0000
  C   C62       1.0  0.3363950000000001  0.015751999999999985  0.05086800000000014  1.0000
  C   C63       1.0  0.3336400000000001  0.160752  0.11240099999999997  1.0000
  C   C64       1.0  0.3603490000000001  0.15519299999999966  0.18351400000000018  1.0000
  C   C65       1.0  0.09669300000000015  0.039003000000000114  0.7402340000000002  1.0000
  C   C66       1.0  0.10063100000000014  0.8871359999999994  0.682247  1.0000
  C   C67       1.0  0.07494800000000024  0.8831979999999997  0.6099020000000002  1.0000
  C   C68       1.0  0.04567300000000008  0.034088999999999814  0.593049  1.0000
  C   C69       1.0  0.041677000000000186  0.1864379999999994  0.6502730000000004  1.0000
  C   C70       1.0  0.06650599999999995  0.18717799999999937  0.723687  1.0000
  C   C71       1.0  0.8900960000000002  0.4779520000000001  0.5997159999999999  1.0000
  C   C72       1.0  0.8608820000000003  0.3244779999999996  0.6119460000000003  1.0000
  C   C73       1.0  0.8340470000000002  0.31968500000000016  0.6828790000000002  1.0000
  C   C74       1.0  0.8366840000000002  0.4651399999999999  0.7442170000000002  1.0000
  C   C75       1.0  0.866803  0.615952  0.732189  1.0000
  C   C76       1.0  0.8927720000000002  0.623891  0.6603910000000003  1.0000
  C   C77       1.0  0.09604500000000017  0.040986999999999885  0.05078500000000008  1.0000
  C   C78       1.0  0.06572800000000002  0.8908360000000001  0.06246599999999991  1.0000
  C   C79       1.0  0.040589000000000215  0.8800840000000001  0.13527099999999995  1.0000
  C   C80       1.0  0.04410099999999995  0.02309799999999962  0.1970210000000001  1.0000
  C   C81       1.0  0.07314800000000023  0.1767669999999999  0.1847190000000001  1.0000
  C   C82       1.0  0.09938000000000004  0.18398899999999951  0.11299300000000012  1.0000
  C   C83       1.0  0.38565300000000013  0.9951859999999993  0.5912820000000001  1.0000
  C   C84       1.0  0.3556170000000001  0.8475779999999998  0.6085940000000003  1.0000
  C   C85       1.0  0.3304890000000001  0.8529039999999996  0.681781  1.0000
  C   C86       1.0  0.33569900000000014  0.0029189999999994494  0.740308  1.0000
  C   C87       1.0  0.3669050000000001  0.14687899999999976  0.723672  1.0000
  C   C88       1.0  0.3911130000000001  0.1448009999999997  0.6495410000000001  1.0000
