data_image0
_chemical_formula_structural       O20Al4H48C88
_chemical_formula_sum              "O20 Al4 H48 C88"
_cell_length_a       30.778999
_cell_length_b       6.6323
_cell_length_c       15.589
_cell_angle_alpha    90.0
_cell_angle_beta     90.0
_cell_angle_gamma    90.0

_symmetry_space_group_name_H-M    'P 1'
_symmetry_Int_Tables_number       1

loop_
  _symmetry_equiv_pos_as_xyz
  'x,y,z'

loop_
  _atom_site_type_symbol
  _atom_site_label
  _atom_site_symmetry_multiplicity
  _atom_site_fract_x
  _atom_site_fract_y
  _atom_site_fract_z
  _atom_site_occupancy
  O   O1        1.0  0.300546  0.6342500000000002  0.805702  1.0000
  O   O2        1.0  0.8945  0.9573969999999999  0.6634790000000002  1.0000
  O   O3        1.0  0.8771909999999998  0.9835380000000004  0.838225  1.0000
  O   O4        1.0  0.317086  0.6076150000000005  0.630689  1.0000
  O   O5        1.0  0.881538  0.6257429999999999  0.635399  1.0000
  O   O6        1.0  0.31475599999999987  0.9651730000000005  0.8338080000000002  1.0000
  O   O7        1.0  0.3007  0.9344570000000001  0.6602470000000001  1.0000
  O   O8        1.0  0.89388  0.656662  0.8092520000000002  1.0000
  O   O9        1.0  0.800408  0.15672000000000041  0.806064  1.0000
  O   O10       1.0  0.393898  0.4343560000000007  0.6594310000000003  1.0000
  O   O11       1.0  0.38139299999999987  0.4658790000000002  0.831504  1.0000
  O   O12       1.0  0.8148959999999997  0.1251950000000002  0.6344780000000001  1.0000
  O   O13       1.0  0.377384  0.1074850000000005  0.6305620000000002  1.0000
  O   O14       1.0  0.816812  0.4832230000000007  0.835537  1.0000
  O   O15       1.0  0.801952  0.45818500000000034  0.6597810000000003  1.0000
  O   O16       1.0  0.394245  0.13336799999999996  0.805454  1.0000
  O   O17       1.0  0.375191  0.7865600000000007  0.734291  1.0000
  O   O18       1.0  0.819739  0.8042640000000004  0.733719  1.0000
  O   O19       1.0  0.875452  0.3044349999999998  0.7344960000000003  1.0000
  O   O20       1.0  0.319481  0.2866460000000006  0.734695  1.0000
  Al  Al1       1.0  0.348067  0.5355880000000002  0.731386  1.0000
  Al  Al2       1.0  0.846875  0.05540799999999991  0.736441  1.0000
  Al  Al3       1.0  0.848454  0.5557470000000007  0.7359360000000003  1.0000
  Al  Al4       1.0  0.346723  0.03557900000000025  0.731783  1.0000
  H   H1        1.0  0.400569  0.790415  0.77113  1.0000
  H   H2        1.0  0.794639  0.8003140000000007  0.696133  1.0000
  H   H3        1.0  0.9011729999999998  0.29945200000000055  0.698634  1.0000
  H   H4        1.0  0.294255  0.29128  0.771932  1.0000
  H   H5        1.0  0.13704299999999994  0.8228730000000004  0.01573699999999989  1.0000
  H   H6        1.0  0.05806599999999995  0.7792010000000001  0.45277700000000004  1.0000
  H   H7        1.0  0.05745899999999993  0.8319019999999999  0.016388999999999987  1.0000
  H   H8        1.0  0.137623  0.769901  0.4521280000000003  1.0000
  H   H9        1.0  0.637459  0.32314400000000015  0.015549000000000037  1.0000
  H   H10       1.0  0.557739  0.26223999999999986  0.451651  1.0000
  H   H11       1.0  0.557906  0.3160150000000006  0.015268000000000061  1.0000
  H   H12       1.0  0.637314  0.2695050000000001  0.45193700000000026  1.0000
  H   H13       1.0  0.247191  0.783865  0.2331890000000001  1.0000
  H   H14       1.0  0.947901  0.8167360000000001  0.23533800000000005  1.0000
  H   H15       1.0  0.7472989999999999  0.3056209999999999  0.233962  1.0000
  H   H16       1.0  0.447905  0.2795740000000002  0.23316099999999995  1.0000
  H   H17       1.0  0.4464259999999999  0.004278999999999923  0.357243  1.0000
  H   H18       1.0  0.400012  0.9973990000000003  0.4887459999999999  1.0000
  H   H19       1.0  0.455311  0.5598450000000007  0.5708439999999999  1.0000
  H   H20       1.0  0.503875  0.5619000000000006  0.44219900000000006  1.0000
  H   H21       1.0  0.796248  0.024047000000000377  0.48902899999999994  1.0000
  H   H22       1.0  0.750114  0.027964000000000325  0.3573869999999999  1.0000
  H   H23       1.0  0.6896  0.5773180000000004  0.44352299999999995  1.0000
  H   H24       1.0  0.737511  0.5779230000000003  0.5726880000000001  1.0000
  H   H25       1.0  0.294894  0.5002580000000001  0.48830700000000005  1.0000
  H   H26       1.0  0.24858899999999995  0.50963  0.3565879999999999  1.0000
  H   H27       1.0  0.191519  0.06720099999999984  0.44256700000000015  1.0000
  H   H28       1.0  0.239946  0.06254900000000063  0.571528  1.0000
  H   H29       1.0  0.739505  0.02867800000000065  0.895309  1.0000
  H   H30       1.0  0.6913669999999997  0.024055000000000607  0.024594999999999922  1.0000
  H   H31       1.0  0.748588  0.5817040000000002  0.11008000000000019  1.0000
  H   H32       1.0  0.794562  0.5911810000000003  0.9780010000000002  1.0000
  H   H33       1.0  0.236639  0.5131740000000002  0.8941720000000002  1.0000
  H   H34       1.0  0.18895799999999993  0.5137700000000005  0.023751000000000078  1.0000
  H   H35       1.0  0.250167  0.061166000000000505  0.11020699999999994  1.0000
  H   H36       1.0  0.296144  0.06480599999999992  0.9783410000000002  1.0000
  H   H37       1.0  0.003894000000000064  0.531882  0.026834000000000024  1.0000
  H   H38       1.0  0.9552249999999998  0.531873  0.8982470000000002  1.0000
  H   H39       1.0  0.899561  0.0941810000000003  0.979525  1.0000
  H   H40       1.0  0.94608  0.0893920000000006  0.11095999999999995  1.0000
  H   H41       1.0  0.945489  0.5379659999999999  0.35772300000000024  1.0000
  H   H42       1.0  0.8998809999999998  0.5295330000000004  0.4900659999999999  1.0000
  H   H43       1.0  0.9584019999999998  0.08242000000000038  0.575508  1.0000
  H   H44       1.0  0.005776000000000003  0.08641500000000059  0.4455010000000002  1.0000
  H   H45       1.0  0.505734  0.009019000000000332  0.023098000000000066  1.0000
  H   H46       1.0  0.458437  0.011389000000000316  0.893078  1.0000
  H   H47       1.0  0.399674  0.5646160000000001  0.977469  1.0000
  H   H48       1.0  0.4451969999999999  0.5577050000000003  0.10989399999999994  1.0000
  C   C1        1.0  0.296866  0.7952499999999999  0.850238  1.0000
  C   C2        1.0  0.898816  0.796877  0.6189060000000002  1.0000
  C   C3        1.0  0.896532  0.8173720000000003  0.854144  1.0000
  C   C4        1.0  0.297961  0.7744260000000006  0.6149540000000001  1.0000
  C   C5        1.0  0.7976289999999998  0.3167290000000005  0.8514170000000002  1.0000
  C   C6        1.0  0.39671  0.27369500000000047  0.6145640000000001  1.0000
  C   C7        1.0  0.398628  0.2952360000000005  0.849029  1.0000
  C   C8        1.0  0.797592  0.2955549999999998  0.616687  1.0000
  C   C9        1.0  0.11951  0.8126220000000006  0.07611200000000018  1.0000
  C   C10       1.0  0.07559000000000003  0.7895070000000005  0.39239599999999997  1.0000
  C   C11       1.0  0.07512399999999997  0.8176950000000005  0.07646599999999994  1.0000
  C   C12       1.0  0.11997199999999997  0.7842750000000005  0.39204400000000006  1.0000
  C   C13       1.0  0.619868  0.3091150000000003  0.07571799999999995  1.0000
  C   C14       1.0  0.575339  0.27601999999999993  0.3914760000000002  1.0000
  C   C15       1.0  0.575477  0.30509600000000026  0.07557700000000023  1.0000
  C   C16       1.0  0.619735  0.2801160000000005  0.39162399999999997  1.0000
  C   C17       1.0  0.18987499999999996  0.7890450000000007  0.15492900000000032  1.0000
  C   C18       1.0  0.005228999999999928  0.8125930000000001  0.31357499999999994  1.0000
  C   C19       1.0  0.00491100000000011  0.8098370000000004  0.15632100000000015  1.0000
  C   C20       1.0  0.19017999999999993  0.7913800000000007  0.31217300000000026  1.0000
  C   C21       1.0  0.690197  0.29991700000000066  0.15516299999999994  1.0000
  C   C22       1.0  0.505004  0.28511100000000056  0.3119780000000001  1.0000
  C   C23       1.0  0.505144  0.283347  0.15464600000000028  1.0000
  C   C24       1.0  0.690067  0.30171100000000056  0.3124880000000001  1.0000
  C   C25       1.0  0.143838  0.7971200000000006  0.15409000000000006  1.0000
  C   C26       1.0  0.05126900000000001  0.805074  0.31441600000000003  1.0000
  C   C27       1.0  0.05097700000000005  0.8078940000000001  0.154841  1.0000
  C   C28       1.0  0.14412  0.7940720000000003  0.31367199999999995  1.0000
  C   C29       1.0  0.6441159999999998  0.2984900000000006  0.1539489999999999  1.0000
  C   C30       1.0  0.551087  0.286403  0.31323499999999993  1.0000
  C   C31       1.0  0.551207  0.2899530000000002  0.153643  1.0000
  C   C32       1.0  0.644008  0.2949740000000003  0.31354400000000027  1.0000
  C   C33       1.0  0.120801  0.798393  0.2340690000000001  1.0000
  C   C34       1.0  0.07430500000000007  0.8039830000000002  0.2344400000000002  1.0000
  C   C35       1.0  0.620867  0.29455900000000046  0.23367000000000004  1.0000
  C   C36       1.0  0.574344  0.2901959999999999  0.23351999999999995  1.0000
  C   C37       1.0  0.211835  0.7876750000000001  0.2333940000000001  1.0000
  C   C38       1.0  0.983261  0.8136340000000005  0.2351160000000001  1.0000
  C   C39       1.0  0.711938  0.30269700000000027  0.23388699999999996  1.0000
  C   C40       1.0  0.483268  0.28230699999999986  0.23323300000000002  1.0000
  C   C41       1.0  0.478785  0.28394900000000023  0.07510400000000006  1.0000
  C   C42       1.0  0.4825209999999999  0.13053399999999993  0.013122999999999996  1.0000
  C   C43       1.0  0.4561059999999999  0.1313749999999998  0.9403910000000002  1.0000
  C   C44       1.0  0.426404  0.2888609999999998  0.9271530000000002  1.0000
  C   C45       1.0  0.422733  0.44313499999999983  0.988418  1.0000
  C   C46       1.0  0.448218  0.43878899999999993  0.06219600000000015  1.0000
  C   C47       1.0  0.47846499999999986  0.28264500000000004  0.39124899999999996  1.0000
  C   C48       1.0  0.448555  0.12508600000000047  0.40427199999999996  1.0000
  C   C49       1.0  0.42256  0.12074900000000045  0.47736500000000004  1.0000
  C   C50       1.0  0.425147  0.27777100000000005  0.5375140000000003  1.0000
  C   C51       1.0  0.454266  0.4376630000000006  0.5243500000000001  1.0000
  C   C52       1.0  0.481196  0.4383650000000001  0.4524030000000001  1.0000
  C   C53       1.0  0.769602  0.30048299999999983  0.538845  1.0000
  C   C54       1.0  0.773079  0.14509300000000014  0.47807299999999997  1.0000
  C   C55       1.0  0.7472489999999998  0.14773000000000058  0.40475500000000003  1.0000
  C   C56       1.0  0.716539  0.3019800000000004  0.3918730000000002  1.0000
  C   C57       1.0  0.712947  0.45633800000000063  0.4534450000000001  1.0000
  C   C58       1.0  0.7397049999999997  0.4572050000000006  0.5256829999999999  1.0000
  C   C59       1.0  0.269817  0.7802460000000001  0.5376110000000001  1.0000
  C   C60       1.0  0.272434  0.6240169999999998  0.477099  1.0000
  C   C61       1.0  0.246536  0.6297769999999999  0.4039250000000001  1.0000
  C   C62       1.0  0.216761  0.7879990000000007  0.39127399999999996  1.0000
  C   C63       1.0  0.214096  0.9432050000000003  0.452648  1.0000
  C   C64       1.0  0.24091299999999993  0.9410170000000005  0.5247090000000002  1.0000
  C   C65       1.0  0.978295  0.8112830000000001  0.0772250000000001  1.0000
  C   C66       1.0  0.9810979999999998  0.6548790000000003  0.01642100000000002  1.0000
  C   C67       1.0  0.954116  0.6543880000000004  0.944573  1.0000
  C   C68       1.0  0.92489  0.8137319999999999  0.9312630000000002  1.0000
  C   C69       1.0  0.922205  0.9713110000000005  0.991124  1.0000
  C   C70       1.0  0.948255  0.968209  0.0641179999999999  1.0000
  C   C71       1.0  0.769463  0.31109900000000046  0.9288280000000002  1.0000
  C   C72       1.0  0.7405809999999998  0.15033299999999986  0.942062  1.0000
  C   C73       1.0  0.71391  0.14812899999999996  0.014377000000000084  1.0000
  C   C74       1.0  0.716667  0.3032460000000002  0.07580699999999996  1.0000
  C   C75       1.0  0.746411  0.46147500000000014  0.06279499999999993  1.0000
  C   C76       1.0  0.7721449999999997  0.46728900000000057  0.989356  1.0000
  C   C77       1.0  0.978919  0.8116960000000005  0.3931009999999999  1.0000
  C   C78       1.0  0.948412  0.6564760000000005  0.40564599999999995  1.0000
  C   C79       1.0  0.922904  0.65128  0.4793300000000001  1.0000
  C   C80       1.0  0.926536  0.805014  0.540832  1.0000
  C   C81       1.0  0.9561559999999998  0.9629330000000006  0.5279469999999999  1.0000
  C   C82       1.0  0.9825919999999999  0.9646740000000006  0.455257  1.0000
  C   C83       1.0  0.269056  0.7895580000000005  0.928268  1.0000
  C   C84       1.0  0.23903899999999995  0.6333610000000003  0.941369  1.0000
  C   C85       1.0  0.212414  0.6342560000000007  0.013792999999999946  1.0000
  C   C86       1.0  0.21625299999999995  0.7881970000000004  0.07548200000000005  1.0000
  C   C87       1.0  0.24712  0.9417930000000007  0.06270799999999999  1.0000
  C   C88       1.0  0.2728449999999999  0.9443040000000003  0.989286  1.0000
