data_image0
_chemical_formula_structural       O20In4H48C88
_chemical_formula_sum              "O20 In4 H48 C88"
_cell_length_a       30.747999
_cell_length_b       7.12
_cell_length_c       15.932
_cell_angle_alpha    90.0
_cell_angle_beta     90.0
_cell_angle_gamma    90.0

_symmetry_space_group_name_H-M    'P 1'
_symmetry_Int_Tables_number       1

loop_
  _symmetry_equiv_pos_as_xyz
  'x,y,z'

loop_
  _atom_site_type_symbol
  _atom_site_label
  _atom_site_symmetry_multiplicity
  _atom_site_fract_x
  _atom_site_fract_y
  _atom_site_fract_z
  _atom_site_occupancy
  O   O1        1.0  0.295204  0.45174900000000046  0.7925269999999998  1.0000
  O   O2        1.0  0.899745  0.7415940000000006  0.6393069999999998  1.0000
  O   O3        1.0  0.872472  0.7661769999999999  0.8384319999999997  1.0000
  O   O4        1.0  0.322893  0.4339780000000007  0.5932709999999998  1.0000
  O   O5        1.0  0.880827  0.441716  0.6043249999999997  1.0000
  O   O6        1.0  0.314397  0.751473  0.827379  1.0000
  O   O7        1.0  0.293507  0.7097190000000008  0.638485  1.0000
  O   O8        1.0  0.901671  0.48988900000000024  0.793199  1.0000
  O   O9        1.0  0.793574  0.9895590000000003  0.793002  1.0000
  O   O10       1.0  0.400113  0.2032210000000001  0.6386029999999998  1.0000
  O   O11       1.0  0.378697  0.249066  0.8297729999999998  1.0000
  O   O12       1.0  0.81626  0.9434890000000006  0.6014019999999997  1.0000
  O   O13       1.0  0.372726  0.9246750000000007  0.5927119999999999  1.0000
  O   O14       1.0  0.822769  0.265733  0.8385019999999997  1.0000
  O   O15       1.0  0.795809  0.24020100000000036  0.6392119999999999  1.0000
  O   O16       1.0  0.399733  0.952463  0.792985  1.0000
  O   O17       1.0  0.386854  0.5910750000000005  0.7175839999999998  1.0000
  O   O18       1.0  0.808344  0.6011370000000006  0.717407  1.0000
  O   O19       1.0  0.887006  0.10097699999999989  0.717711  1.0000
  O   O20       1.0  0.308223  0.09166000000000007  0.7138309999999998  1.0000
  In  In1       1.0  0.348631  0.3388260000000005  0.712124  1.0000
  In  In2       1.0  0.845852  0.8556890000000005  0.7196619999999998  1.0000
  In  In3       1.0  0.849489  0.3553720000000005  0.720245  1.0000
  In  In4       1.0  0.346264  0.8384390000000003  0.7118469999999998  1.0000
  H   H1        1.0  0.403689  0.5994960000000003  0.769243  1.0000
  H   H2        1.0  0.790302  0.5914550000000003  0.667326  1.0000
  H   H3        1.0  0.9049549999999998  0.09227100000000067  0.66746  1.0000
  H   H4        1.0  0.290004  0.09933000000000058  0.763742  1.0000
  H   H5        1.0  0.137127  0.6261160000000006  0.0022770000000000845  1.0000
  H   H6        1.0  0.05805199999999999  0.5715300000000002  0.42957200000000006  1.0000
  H   H7        1.0  0.0574650000000001  0.6411370000000002  0.003220999999999918  1.0000
  H   H8        1.0  0.13772  0.5569829999999998  0.4286419999999997  1.0000
  H   H9        1.0  0.637727  0.15021900000000032  0.00313999999999992  1.0000
  H   H10       1.0  0.557457  0.07390700000000017  0.4289059999999998  1.0000
  H   H11       1.0  0.557995  0.1388069999999999  0.0023409999999999265  1.0000
  H   H12       1.0  0.637101  0.08520600000000035  0.4296409999999997  1.0000
  H   H13       1.0  0.247091  0.573337  0.21432399999999993  1.0000
  H   H14       1.0  0.948084  0.6249989999999999  0.21752100000000005  1.0000
  H   H15       1.0  0.747145  0.12534100000000015  0.21695899999999987  1.0000
  H   H16       1.0  0.448081  0.0839629999999998  0.21435699999999966  1.0000
  H   H17       1.0  0.446943  0.8312360000000005  0.3319639999999999  1.0000
  H   H18       1.0  0.399726  0.8192840000000006  0.460058  1.0000
  H   H19       1.0  0.455564  0.3366760000000002  0.547102  1.0000
  H   H20       1.0  0.503928  0.34718600000000066  0.4202639999999997  1.0000
  H   H21       1.0  0.796338  0.8568280000000001  0.4617489999999999  1.0000
  H   H22       1.0  0.75022  0.8679390000000002  0.33235799999999993  1.0000
  H   H23       1.0  0.687956  0.3691770000000006  0.4239790000000001  1.0000
  H   H24       1.0  0.735232  0.3601190000000005  0.5519989999999999  1.0000
  H   H25       1.0  0.296027  0.32002000000000047  0.46271999999999996  1.0000
  H   H26       1.0  0.249149  0.3234040000000001  0.333963  1.0000
  H   H27       1.0  0.189738  0.8378590000000004  0.41784400000000005  1.0000
  H   H28       1.0  0.237766  0.8360409999999999  0.5453609999999998  1.0000
  H   H29       1.0  0.737275  0.8643709999999998  0.886315  1.0000
  H   H30       1.0  0.689159  0.8647570000000006  0.013738999999999944  1.0000
  H   H31       1.0  0.749586  0.37713099999999994  0.09746900000000001  1.0000
  H   H32       1.0  0.796455  0.3785970000000001  0.9687619999999998  1.0000
  H   H33       1.0  0.233742  0.336033  0.8802879999999997  1.0000
  H   H34       1.0  0.18687  0.3320300000000001  0.009028000000000036  1.0000
  H   H35       1.0  0.25028  0.8336010000000004  0.09721599999999997  1.0000
  H   H36       1.0  0.295738  0.8406159999999998  0.9668509999999998  1.0000
  H   H37       1.0  0.005436999999999914  0.3611220000000004  0.013822999999999919  1.0000
  H   H38       1.0  0.957462  0.36341100000000065  0.886272  1.0000
  H   H39       1.0  0.89926  0.8794380000000005  0.9691089999999998  1.0000
  H   H40       1.0  0.946088  0.8755310000000006  0.09790199999999993  1.0000
  H   H41       1.0  0.945054  0.36302099999999987  0.33401799999999987  1.0000
  H   H42       1.0  0.899586  0.35380500000000037  0.46435800000000005  1.0000
  H   H43       1.0  0.961208  0.8582430000000004  0.5520849999999999  1.0000
  H   H44       1.0  0.008086000000000038  0.8644210000000007  0.42336199999999996  1.0000
  H   H45       1.0  0.509344  0.8434700000000004  0.00927100000000003  1.0000
  H   H46       1.0  0.462006  0.8413520000000001  0.8811669999999998  1.0000
  H   H47       1.0  0.397632  0.3403740000000002  0.96763  1.0000
  H   H48       1.0  0.443695  0.3399549999999998  0.09714399999999988  1.0000
  C   C1        1.0  0.294245  0.5965180000000007  0.8396199999999998  1.0000
  C   C2        1.0  0.900853  0.597174  0.5921409999999999  1.0000
  C   C3        1.0  0.8980970000000001  0.6250240000000002  0.845431  1.0000
  C   C4        1.0  0.297132  0.5746600000000002  0.586282  1.0000
  C   C5        1.0  0.797138  0.12449999999999983  0.8453159999999997  1.0000
  C   C6        1.0  0.39737  0.06899699999999998  0.5858269999999999  1.0000
  C   C7        1.0  0.399882  0.09615200000000003  0.8408919999999998  1.0000
  C   C8        1.0  0.795472  0.09779999999999989  0.5906419999999999  1.0000
  C   C9        1.0  0.119518  0.6147529999999999  0.06120600000000009  1.0000
  C   C10       1.0  0.07565899999999992  0.5830760000000001  0.3706480000000001  1.0000
  C   C11       1.0  0.07515399999999994  0.6231320000000006  0.06172399999999966  1.0000
  C   C12       1.0  0.120026  0.5749590000000002  0.3701380000000001  1.0000
  C   C13       1.0  0.619993  0.1332209999999998  0.06166300000000002  1.0000
  C   C14       1.0  0.57513  0.09007500000000014  0.3702730000000001  1.0000
  C   C15       1.0  0.575616  0.12677000000000052  0.06123399999999978  1.0000
  C   C16       1.0  0.619523  0.09642600000000014  0.370676  1.0000
  C   C17       1.0  0.18958  0.5829010000000007  0.13832899999999992  1.0000
  C   C18       1.0  0.005587000000000009  0.6148030000000008  0.2935209999999999  1.0000
  C   C19       1.0  0.005168999999999979  0.6164170000000002  0.1403129999999999  1.0000
  C   C20       1.0  0.190008  0.5821299999999998  0.2915249999999998  1.0000
  C   C21       1.0  0.689957  0.12131500000000008  0.14005299999999998  1.0000
  C   C22       1.0  0.505079  0.095008  0.2917079999999998  1.0000
  C   C23       1.0  0.505581  0.09496000000000039  0.13839699999999988  1.0000
  C   C24       1.0  0.689721  0.12109600000000055  0.2932959999999998  1.0000
  C   C25       1.0  0.143658  0.5943850000000004  0.13743700000000003  1.0000
  C   C26       1.0  0.051511000000000084  0.6034830000000007  0.294421  1.0000
  C   C27       1.0  0.051150999999999947  0.611957  0.13850799999999985  1.0000
  C   C28       1.0  0.14402600000000002  0.5863380000000005  0.2933509999999997  1.0000
  C   C29       1.0  0.643974  0.12072500000000065  0.13842299999999996  1.0000
  C   C30       1.0  0.551081  0.10044700000000041  0.2935239999999997  1.0000
  C   C31       1.0  0.551484  0.10716600000000032  0.1375299999999997  1.0000
  C   C32       1.0  0.643728  0.1139440000000005  0.29438199999999987  1.0000
  C   C33       1.0  0.120756  0.594566  0.21565999999999996  1.0000
  C   C34       1.0  0.07441600000000004  0.6035760000000003  0.21620199999999978  1.0000
  C   C35       1.0  0.620745  0.11475400000000004  0.2162249999999999  1.0000
  C   C36       1.0  0.574372  0.10778199999999984  0.21578399999999975  1.0000
  C   C37       1.0  0.21172  0.5785190000000001  0.21467899999999984  1.0000
  C   C38       1.0  0.983455  0.6197560000000006  0.21716200000000005  1.0000
  C   C39       1.0  0.711757  0.12324600000000042  0.21679499999999982  1.0000
  C   C40       1.0  0.48344  0.090649  0.21478100000000008  1.0000
  C   C41       1.0  0.479488  0.09241900000000049  0.06090400000000006  1.0000
  C   C42       1.0  0.484877  0.9518260000000002  0.999818  1.0000
  C   C43       1.0  0.458556  0.9498470000000002  0.9287259999999998  1.0000
  C   C44       1.0  0.427335  0.09100399999999988  0.9173919999999998  1.0000
  C   C45       1.0  0.42194  0.2320300000000004  0.9779829999999998  1.0000
  C   C46       1.0  0.447538  0.2312700000000003  0.04972500000000001  1.0000
  C   C47       1.0  0.478497  0.08916099999999982  0.36856  1.0000
  C   C48       1.0  0.448673  0.9413850000000004  0.37916599999999967  1.0000
  C   C49       1.0  0.422444  0.9341170000000006  0.4500649999999997  1.0000
  C   C50       1.0  0.425331  0.07710699999999983  0.5103519999999997  1.0000
  C   C51       1.0  0.454517  0.22661400000000056  0.4998149999999996  1.0000
  C   C52       1.0  0.481274  0.23163  0.4294609999999998  1.0000
  C   C53       1.0  0.768189  0.10753900000000007  0.5140169999999998  1.0000
  C   C54       1.0  0.7727079999999998  0.9683940000000001  0.4523279999999998  1.0000
  C   C55       1.0  0.747091  0.9751900000000006  0.3806210000000001  1.0000
  C   C56       1.0  0.716016  0.11822000000000045  0.3705479999999998  1.0000
  C   C57       1.0  0.711623  0.25723500000000055  0.4326219999999998  1.0000
  C   C58       1.0  0.737927  0.2529900000000001  0.5036679999999997  1.0000
  C   C59       1.0  0.269151  0.5774910000000006  0.5107919999999997  1.0000
  C   C60       1.0  0.272833  0.4325240000000004  0.45161099999999993  1.0000
  C   C61       1.0  0.246801  0.4349729999999999  0.3803989999999999  1.0000
  C   C62       1.0  0.216426  0.5800200000000008  0.368508  1.0000
  C   C63       1.0  0.21283799999999997  0.7245110000000001  0.4282859999999999  1.0000
  C   C64       1.0  0.239381  0.7242850000000001  0.4989349999999999  1.0000
  C   C65       1.0  0.978777  0.6188989999999999  0.06329099999999999  1.0000
  C   C66       1.0  0.982354  0.47456200000000065  0.003430999999999962  1.0000
  C   C67       1.0  0.955841  0.4750749999999999  0.932739  1.0000
  C   C68       1.0  0.926087  0.6219579999999999  0.920919  1.0000
  C   C69       1.0  0.922428  0.7668150000000002  0.980171  1.0000
  C   C70       1.0  0.948433  0.7640680000000004  0.05142199999999985  1.0000
  C   C71       1.0  0.769134  0.12193000000000033  0.920783  1.0000
  C   C72       1.0  0.739089  0.9762140000000001  0.932674  1.0000
  C   C73       1.0  0.712501  0.9771850000000001  0.0032970000000001054  1.0000
  C   C74       1.0  0.716344  0.12171099999999992  0.06299699999999975  1.0000
  C   C75       1.0  0.747017  0.2655509999999999  0.051085999999999965  1.0000
  C   C76       1.0  0.773055  0.26692900000000064  0.9799049999999998  1.0000
  C   C77       1.0  0.979538  0.6133330000000004  0.37107599999999974  1.0000
  C   C78       1.0  0.948461  0.4707190000000004  0.38200999999999974  1.0000
  C   C79       1.0  0.923199  0.4650970000000001  0.45420399999999983  1.0000
  C   C80       1.0  0.928029  0.6052840000000006  0.515338  1.0000
  C   C81       1.0  0.958297  0.7503440000000006  0.5041359999999997  1.0000
  C   C82       1.0  0.984328  0.7531020000000007  0.43269199999999985  1.0000
  C   C83       1.0  0.267106  0.5890050000000003  0.916462  1.0000
  C   C84       1.0  0.236744  0.4444420000000005  0.927989  1.0000
  C   C85       1.0  0.21072  0.44286900000000046  0.9994529999999998  1.0000
  C   C86       1.0  0.215613  0.5832760000000001  0.06075099999999978  1.0000
  C   C87       1.0  0.246795  0.725332  0.04950600000000005  1.0000
  C   C88       1.0  0.272049  0.7297570000000008  0.977298  1.0000
