data_image0
_chemical_formula_structural       O20Ga4H48C88
_chemical_formula_sum              "O20 Ga4 H48 C88"
_cell_length_a       30.511999
_cell_length_b       6.649
_cell_length_c       15.965
_cell_angle_alpha    90.0
_cell_angle_beta     90.0
_cell_angle_gamma    90.0

_symmetry_space_group_name_H-M    'P 1'
_symmetry_Int_Tables_number       1

loop_
  _symmetry_equiv_pos_as_xyz
  'x,y,z'

loop_
  _atom_site_type_symbol
  _atom_site_label
  _atom_site_symmetry_multiplicity
  _atom_site_fract_x
  _atom_site_fract_y
  _atom_site_fract_z
  _atom_site_occupancy
  O   O1        1.0  0.297426  0.6078689999999995  0.778713  1.0000
  O   O2        1.0  0.8972099999999997  0.9276029999999998  0.6286290000000001  1.0000
  O   O3        1.0  0.8761489999999998  0.9567989999999996  0.8121560000000002  1.0000
  O   O4        1.0  0.31921899999999986  0.5796290000000002  0.5947370000000001  1.0000
  O   O5        1.0  0.8815009999999999  0.5995279999999998  0.5993640000000003  1.0000
  O   O6        1.0  0.3130959999999999  0.9361919999999996  0.8078230000000002  1.0000
  O   O7        1.0  0.2969259999999999  0.8960169999999995  0.6287700000000002  1.0000
  O   O8        1.0  0.897629  0.6388889999999997  0.778739  1.0000
  O   O9        1.0  0.7969719999999998  0.13866399999999945  0.7787680000000002  1.0000
  O   O10       1.0  0.3976479999999999  0.3958900000000001  0.6286460000000001  1.0000
  O   O11       1.0  0.3816079999999999  0.4362590000000002  0.8079280000000002  1.0000
  O   O12       1.0  0.8130579999999997  0.09928500000000005  0.5994940000000002  1.0000
  O   O13       1.0  0.375408  0.07932600000000001  0.594731  1.0000
  O   O14       1.0  0.8179909999999998  0.45732199999999995  0.8120560000000002  1.0000
  O   O15       1.0  0.7974  0.42770499999999956  0.6286170000000002  1.0000
  O   O16       1.0  0.3972009999999999  0.10791699999999958  0.7786300000000003  1.0000
  O   O17       1.0  0.3797239999999999  0.758401  0.704167  1.0000
  O   O18       1.0  0.8149159999999998  0.7774359999999997  0.7031590000000002  1.0000
  O   O19       1.0  0.8796369999999998  0.27752899999999986  0.703199  1.0000
  O   O20       1.0  0.314893  0.25851799999999997  0.704302  1.0000
  Ga  Ga1       1.0  0.349239  0.5035919999999998  0.701248  1.0000
  Ga  Ga2       1.0  0.8454809999999999  0.03189999999999982  0.706144  1.0000
  Ga  Ga3       1.0  0.8490639999999998  0.5319820000000002  0.7061610000000003  1.0000
  Ga  Ga4       1.0  0.345427  0.003617999999999899  0.7012140000000002  1.0000
  H   H1        1.0  0.3991829999999999  0.7658689999999998  0.752451  1.0000
  H   H2        1.0  0.7955149999999998  0.7706849999999994  0.6547720000000002  1.0000
  H   H3        1.0  0.8989929999999999  0.27090499999999995  0.65473  1.0000
  H   H4        1.0  0.295644  0.2660809999999998  0.7529040000000002  1.0000
  H   H5        1.0  0.13794599999999996  0.7977379999999994  0.9909830000000002  1.0000
  H   H6        1.0  0.056877999999999755  0.7443609999999995  0.4163620000000002  1.0000
  H   H7        1.0  0.0578139999999998  0.8081550000000001  0.99056  1.0000
  H   H8        1.0  0.136989  0.7341470000000001  0.4167940000000001  1.0000
  H   H9        1.0  0.637008  0.30329299999999954  0.9907750000000002  1.0000
  H   H10       1.0  0.5575429999999998  0.22982600000000009  0.41688  1.0000
  H   H11       1.0  0.5568799999999998  0.292621  0.9910460000000002  1.0000
  H   H12       1.0  0.637672  0.24057599999999943  0.41662200000000027  1.0000
  H   H13       1.0  0.24850199999999995  0.7511119999999994  0.20442900000000022  1.0000
  H   H14       1.0  0.9462929999999998  0.7885339999999993  0.20282399999999992  1.0000
  H   H15       1.0  0.7483739999999998  0.28665200000000013  0.20341000000000012  1.0000
  H   H16       1.0  0.4461799999999999  0.24746099999999993  0.20421000000000003  1.0000
  H   H17       1.0  0.4439129999999999  0.9766509999999998  0.32616600000000023  1.0000
  H   H18       1.0  0.39843299999999987  0.9687469999999999  0.45596200000000026  1.0000
  H   H19       1.0  0.4566169999999999  0.5241720000000001  0.5369560000000001  1.0000
  H   H20       1.0  0.503817  0.5283739999999995  0.40921900000000005  1.0000
  H   H21       1.0  0.7969029999999999  0.004899999999999682  0.45594399999999996  1.0000
  H   H22       1.0  0.7523769999999997  0.010638999999999841  0.32507700000000006  1.0000
  H   H23       1.0  0.6886729999999998  0.5524849999999994  0.40893399999999996  1.0000
  H   H24       1.0  0.7346829999999998  0.5501320000000001  0.5380690000000001  1.0000
  H   H25       1.0  0.2955589999999999  0.46850300000000006  0.456181  1.0000
  H   H26       1.0  0.25011699999999987  0.4784639999999998  0.3263380000000001  1.0000
  H   H27       1.0  0.19109599999999993  0.03189199999999959  0.4096850000000001  1.0000
  H   H28       1.0  0.23826299999999995  0.025563999999999698  0.5374140000000003  1.0000
  H   H29       1.0  0.7380169999999999  0.009171999999999512  0.8706820000000002  1.0000
  H   H30       1.0  0.6908869999999999  0.004567999999999461  0.9985530000000002  1.0000
  H   H31       1.0  0.750392  0.5576249999999998  0.081167  1.0000
  H   H32       1.0  0.7957309999999997  0.5660219999999994  0.9511990000000002  1.0000
  H   H33       1.0  0.23481299999999994  0.4856169999999999  0.869878  1.0000
  H   H34       1.0  0.18883499999999995  0.4845000000000001  0.999015  1.0000
  H   H35       1.0  0.2527459999999999  0.026373999999999672  0.0822130000000001  1.0000
  H   H36       1.0  0.297245  0.03086799999999945  0.95135  1.0000
  H   H37       1.0  0.004153000000000072  0.5077669999999999  0.9982050000000002  1.0000
  H   H38       1.0  0.956977  0.5111590000000001  0.8703930000000002  1.0000
  H   H39       1.0  0.898971  0.0676549999999998  0.9504720000000002  1.0000
  H   H40       1.0  0.9443529999999998  0.060490999999999406  0.08041900000000024  1.0000
  H   H41       1.0  0.9423789999999997  0.51234  0.32467800000000024  1.0000
  H   H42       1.0  0.897919  0.5052829999999995  0.4555800000000003  1.0000
  H   H43       1.0  0.959712  0.05127300000000012  0.5379650000000004  1.0000
  H   H44       1.0  0.0056279999999999655  0.055035999999999856  0.4087900000000002  1.0000
  H   H45       1.0  0.505763  0.9812059999999998  0.998728  1.0000
  H   H46       1.0  0.459936  0.9842619999999997  0.8694140000000002  1.0000
  H   H47       1.0  0.39787899999999987  0.5300209999999996  0.9515030000000002  1.0000
  H   H48       1.0  0.44226  0.5234369999999998  0.08254699999999994  1.0000
  C   C1        1.0  0.29504599999999986  0.7659409999999998  0.8237530000000002  1.0000
  C   C2        1.0  0.8996549999999998  0.769596  0.5835600000000003  1.0000
  C   C3        1.0  0.8976709999999998  0.7950439999999993  0.825498  1.0000
  C   C4        1.0  0.2972819999999999  0.7404549999999993  0.5816930000000002  1.0000
  C   C5        1.0  0.796854  0.29467299999999996  0.8256240000000002  1.0000
  C   C6        1.0  0.3972759999999999  0.2403539999999995  0.5815510000000003  1.0000
  C   C7        1.0  0.39972399999999997  0.2659929999999995  0.823665  1.0000
  C   C8        1.0  0.7949389999999997  0.26950200000000013  0.5836800000000001  1.0000
  C   C9        1.0  0.12010399999999997  0.7859839999999995  0.04970900000000001  1.0000
  C   C10       1.0  0.07470599999999993  0.7560869999999994  0.3576200000000003  1.0000
  C   C11       1.0  0.0753299999999999  0.7918059999999992  0.04945800000000023  1.0000
  C   C12       1.0  0.11948099999999998  0.7503189999999997  0.35788000000000025  1.0000
  C   C13       1.0  0.6194629999999998  0.28716899999999995  0.0496509999999999  1.0000
  C   C14       1.0  0.575092  0.24609600000000006  0.35801000000000016  1.0000
  C   C15       1.0  0.5746849999999999  0.2811699999999999  0.04981900000000029  1.0000
  C   C16       1.0  0.619873  0.25212799999999946  0.3578390000000001  1.0000
  C   C17       1.0  0.190924  0.7581849999999997  0.1273010000000001  1.0000
  C   C18       1.0  0.003864000000000089  0.7826039999999995  0.28001000000000037  1.0000
  C   C19       1.0  0.004046999999999912  0.7820479999999996  0.12616300000000003  1.0000
  C   C20       1.0  0.190775  0.7587859999999996  0.281158  1.0000
  C   C21       1.0  0.6906999999999998  0.27878500000000006  0.1265270000000003  1.0000
  C   C22       1.0  0.50385  0.2547670000000002  0.28109600000000007  1.0000
  C   C23       1.0  0.503822  0.2540070000000001  0.12727800000000022  1.0000
  C   C24       1.0  0.690732  0.27968400000000004  0.2803530000000001  1.0000
  C   C25       1.0  0.14443799999999996  0.7678069999999995  0.12602500000000005  1.0000
  C   C26       1.0  0.050364999999999986  0.7739399999999995  0.281301  1.0000
  C   C27       1.0  0.050595999999999856  0.7800389999999998  0.12550599999999992  1.0000
  C   C28       1.0  0.144223  0.7617589999999996  0.2818330000000003  1.0000
  C   C29       1.0  0.644148  0.27596  0.12576300000000032  1.0000
  C   C30       1.0  0.550401  0.25743699999999986  0.28190000000000004  1.0000
  C   C31       1.0  0.5503069999999998  0.2632639999999995  0.12609099999999995  1.0000
  C   C32       1.0  0.644248  0.2702009999999997  0.28156099999999995  1.0000
  C   C33       1.0  0.12089799999999998  0.7679609999999996  0.20381100000000021  1.0000
  C   C34       1.0  0.07391900000000005  0.7741440000000002  0.2035290000000001  1.0000
  C   C35       1.0  0.620763  0.26994300000000004  0.20373100000000033  1.0000
  C   C36       1.0  0.573784  0.26347800000000005  0.2039310000000003  1.0000
  C   C37       1.0  0.212835  0.7555819999999999  0.20429199999999992  1.0000
  C   C38       1.0  0.981965  0.7848830000000001  0.20300500000000035  1.0000
  C   C39       1.0  0.7127049999999998  0.28223699999999985  0.20343300000000022  1.0000
  C   C40       1.0  0.4818479999999999  0.25156  0.20418399999999992  1.0000
  C   C41       1.0  0.4773989999999999  0.2531149999999997  0.04927499999999996  1.0000
  C   C42       1.0  0.4821339999999999  0.10128300000000001  0.9884380000000003  1.0000
  C   C43       1.0  0.45649299999999987  0.1024159999999994  0.91605  1.0000
  C   C44       1.0  0.4263279999999999  0.25829399999999936  0.9020870000000002  1.0000
  C   C45       1.0  0.4213339999999999  0.4098619999999999  0.962636  1.0000
  C   C46       1.0  0.44618299999999994  0.40559600000000007  0.03584699999999996  1.0000
  C   C47       1.0  0.4773349999999999  0.25194800000000006  0.3590530000000003  1.0000
  C   C48       1.0  0.4468649999999999  0.0961229999999995  0.37240199999999996  1.0000
  C   C49       1.0  0.421354  0.09108599999999932  0.444828  1.0000
  C   C50       1.0  0.4249969999999999  0.24517500000000014  0.504605  1.0000
  C   C51       1.0  0.4546069999999999  0.40364899999999965  0.4910460000000003  1.0000
  C   C52       1.0  0.4808709999999999  0.4055140000000001  0.41949000000000014  1.0000
  C   C53       1.0  0.7683509999999999  0.2766139999999999  0.5052880000000003  1.0000
  C   C54       1.0  0.773375  0.12478599999999983  0.4448470000000002  1.0000
  C   C55       1.0  0.748454  0.1285959999999995  0.37172999999999995  1.0000
  C   C56       1.0  0.7171659999999997  0.28080000000000016  0.3583350000000003  1.0000
  C   C57       1.0  0.7123799999999998  0.4326959999999999  0.4191320000000003  1.0000
  C   C58       1.0  0.7380939999999998  0.4320240000000002  0.49140800000000034  1.0000
  C   C59       1.0  0.26945999999999987  0.7456849999999998  0.5048890000000001  1.0000
  C   C60       1.0  0.272845  0.591656  0.4450740000000002  1.0000
  C   C61       1.0  0.247368  0.5979109999999999  0.37261700000000003  1.0000
  C   C62       1.0  0.21719899999999995  0.7549009999999998  0.35925300000000027  1.0000
  C   C63       1.0  0.21384699999999995  0.9082279999999998  0.4198410000000002  1.0000
  C   C64       1.0  0.24007899999999993  0.905126  0.49143200000000015  1.0000
  C   C65       1.0  0.977638  0.7845349999999995  0.048059000000000074  1.0000
  C   C66       1.0  0.9812089999999998  0.6305529999999994  0.9878050000000003  1.0000
  C   C67       1.0  0.9549869999999998  0.6319599999999993  0.916185  1.0000
  C   C68       1.0  0.9254339999999998  0.7904739999999997  0.902386  1.0000
  C   C69       1.0  0.9218159999999997  0.9451649999999993  0.961889  1.0000
  C   C70       1.0  0.9472609999999998  0.9405289999999996  0.03439300000000012  1.0000
  C   C71       1.0  0.7693359999999998  0.2889509999999999  0.902811  1.0000
  C   C72       1.0  0.7399309999999998  0.12981199999999982  0.9165590000000002  1.0000
  C   C73       1.0  0.713738  0.1277229999999996  0.988205  1.0000
  C   C74       1.0  0.71719  0.2816339999999999  0.04852700000000021  1.0000
  C   C75       1.0  0.7475209999999998  0.437904  0.035026999999999926  1.0000
  C   C76       1.0  0.772941  0.4432390000000001  0.9625  1.0000
  C   C77       1.0  0.9773799999999998  0.7830249999999997  0.35798  1.0000
  C   C78       1.0  0.9462219999999998  0.6302690000000001  0.371373  1.0000
  C   C79       1.0  0.9213399999999998  0.6256719999999992  0.44456399999999996  1.0000
  C   C80       1.0  0.926248  0.7772309999999999  0.505139  1.0000
  C   C81       1.0  0.9563699999999999  0.933231  0.49125800000000025  1.0000
  C   C82       1.0  0.9820339999999997  0.9347379999999997  0.4189080000000001  1.0000
  C   C83       1.0  0.2686019999999999  0.7590279999999998  0.902327  1.0000
  C   C84       1.0  0.238292  0.603971  0.9164160000000002  1.0000
  C   C85       1.0  0.21257799999999993  0.6040599999999995  0.9887010000000003  1.0000
  C   C86       1.0  0.21739899999999995  0.756354  0.0493300000000001  1.0000
  C   C87       1.0  0.24876299999999998  0.9080919999999998  0.03572799999999998  1.0000
  C   C88       1.0  0.2736889999999999  0.9111649999999994  0.9626040000000002  1.0000
