data_image0
_chemical_formula_structural       O20Sc4H48C88
_chemical_formula_sum              "O20 Sc4 H48 C88"
_cell_length_a       30.955
_cell_length_b       7.23
_cell_length_c       16.0
_cell_angle_alpha    90.0
_cell_angle_beta     90.0
_cell_angle_gamma    90.0

_space_group_name_H-M_alt    "P 1"
_space_group_IT_number       1

loop_
  _space_group_symop_operation_xyz
  'x, y, z'

loop_
  _atom_site_type_symbol
  _atom_site_label
  _atom_site_symmetry_multiplicity
  _atom_site_fract_x
  _atom_site_fract_y
  _atom_site_fract_z
  _atom_site_occupancy
  O   O1        1.0  0.298556  0.43046699999999966  0.799252  1.0000
  O   O2        1.0  0.8984759999999998  0.7282989999999998  0.6448160000000001  1.0000
  O   O3        1.0  0.877621  0.7545419999999994  0.83293  1.0000
  O   O4        1.0  0.317033  0.40432499999999955  0.607958  1.0000
  O   O5        1.0  0.888094  0.4225699999999994  0.6202920000000001  1.0000
  O   O6        1.0  0.3106679999999999  0.7353360000000002  0.823922  1.0000
  O   O7        1.0  0.300871  0.701264  0.637553  1.0000
  O   O8        1.0  0.894265  0.45807399999999937  0.803834  1.0000
  O   O9        1.0  0.8003919999999998  0.9588989999999996  0.800383  1.0000
  O   O10       1.0  0.394393  0.2014469999999999  0.6366890000000001  1.0000
  O   O11       1.0  0.3880709999999999  0.23603800000000016  0.820224  1.0000
  O   O12       1.0  0.810439  0.923445  0.616284  1.0000
  O   O13       1.0  0.37931  0.9034189999999999  0.607934  1.0000
  O   O14       1.0  0.8171039999999998  0.25407400000000013  0.832456  1.0000
  O   O15       1.0  0.798484  0.2282890000000002  0.641181  1.0000
  O   O16       1.0  0.3985729999999999  0.9302989999999997  0.79562  1.0000
  O   O17       1.0  0.38109799999999994  0.5702429999999999  0.729632  1.0000
  O   O18       1.0  0.815253  0.5882089999999995  0.707597  1.0000
  O   O19       1.0  0.880911  0.08848499999999991  0.710393  1.0000
  O   O20       1.0  0.315399  0.07022100000000009  0.732816  1.0000
  Sc  Sc1       1.0  0.348442  0.3198569999999998  0.718155  1.0000
  Sc  Sc2       1.0  0.8474979999999998  0.8392649999999996  0.721835  1.0000
  Sc  Sc3       1.0  0.8483689999999998  0.3389009999999994  0.722253  1.0000
  Sc  Sc4       1.0  0.3477629999999999  0.819404  0.71789  1.0000
  H   H1        1.0  0.4050449999999999  0.5713979999999993  0.768854  1.0000
  H   H2        1.0  0.791604  0.5865899999999996  0.667737  1.0000
  H   H3        1.0  0.905004  0.08729500000000011  0.671534  1.0000
  H   H4        1.0  0.291565  0.07139499999999988  0.772257  1.0000
  H   H5        1.0  0.13693999999999998  0.5995400000000001  0.007352000000000025  1.0000
  H   H6        1.0  0.058375999999999977  0.5712749999999994  0.43330899999999994  1.0000
  H   H7        1.0  0.05788599999999988  0.6089470000000001  0.007854000000000028  1.0000
  H   H8        1.0  0.13740599999999994  0.5614469999999998  0.4328129999999999  1.0000
  H   H9        1.0  0.637581  0.10068400000000022  0.006933999999999996  1.0000
  H   H10       1.0  0.558242  0.05429800000000017  0.432045  1.0000
  H   H11       1.0  0.5585279999999998  0.09267299999999999  0.0066349999999999465  1.0000
  H   H12       1.0  0.637308  0.06186200000000008  0.43235500000000004  1.0000
  H   H13       1.0  0.24657199999999996  0.5674779999999999  0.2194210000000001  1.0000
  H   H14       1.0  0.948722  0.6020129999999999  0.2213369999999999  1.0000
  H   H15       1.0  0.746848  0.09131599999999951  0.22010299999999994  1.0000
  H   H16       1.0  0.4489899999999999  0.06281899999999974  0.21880300000000008  1.0000
  H   H17       1.0  0.4481989999999999  0.8113359999999993  0.341013  1.0000
  H   H18       1.0  0.402246  0.8036719999999996  0.46933899999999995  1.0000
  H   H19       1.0  0.455853  0.32296900000000006  0.548265  1.0000
  H   H20       1.0  0.503745  0.32685799999999965  0.422404  1.0000
  H   H21       1.0  0.7936539999999997  0.8329239999999998  0.473036  1.0000
  H   H22       1.0  0.7492779999999998  0.8372790000000001  0.342811  1.0000
  H   H23       1.0  0.689382  0.34425900000000004  0.423335  1.0000
  H   H24       1.0  0.7355629999999999  0.3437700000000001  0.5512840000000001  1.0000
  H   H25       1.0  0.293439  0.30458899999999955  0.46882099999999993  1.0000
  H   H26       1.0  0.24719399999999994  0.3144589999999998  0.34087500000000004  1.0000
  H   H27       1.0  0.192221  0.8298390000000001  0.423945  1.0000
  H   H28       1.0  0.24024599999999993  0.8233719999999995  0.5495300000000001  1.0000
  H   H29       1.0  0.739803  0.8349489999999994  0.8898  1.0000
  H   H30       1.0  0.6920869999999998  0.8290359999999999  0.015899000000000107  1.0000
  H   H31       1.0  0.747545  0.3439079999999999  0.09838799999999992  1.0000
  H   H32       1.0  0.79348  0.35308599999999973  0.970076  1.0000
  H   H33       1.0  0.235465  0.3163149999999994  0.888628  1.0000
  H   H34       1.0  0.189071  0.31651599999999996  0.01631500000000008  1.0000
  H   H35       1.0  0.249215  0.8227659999999996  0.09705300000000006  1.0000
  H   H36       1.0  0.293742  0.8264809999999992  0.967  1.0000
  H   H37       1.0  0.0035190000000000494  0.33731400000000006  0.018011  1.0000
  H   H38       1.0  0.9554529999999998  0.33913899999999936  0.892412  1.0000
  H   H39       1.0  0.9013179999999997  0.857873  0.970714  1.0000
  H   H40       1.0  0.947555  0.8526069999999998  0.09869900000000009  1.0000
  H   H41       1.0  0.946546  0.34605799999999975  0.34339300000000006  1.0000
  H   H42       1.0  0.902804  0.337288  0.4743440000000001  1.0000
  H   H43       1.0  0.960531  0.8477489999999994  0.554039  1.0000
  H   H44       1.0  0.006113999999999952  0.8525689999999995  0.4253389999999999  1.0000
  H   H45       1.0  0.506593  0.8089659999999993  0.015783000000000103  1.0000
  H   H46       1.0  0.461208  0.8113149999999999  0.886757  1.0000
  H   H47       1.0  0.4032399999999999  0.3228379999999999  0.964401  1.0000
  H   H48       1.0  0.4466779999999999  0.31639099999999987  0.09579500000000007  1.0000
  C   C1        1.0  0.29407899999999987  0.5785539999999995  0.84224  1.0000
  C   C2        1.0  0.903379  0.5812739999999995  0.6012679999999999  1.0000
  C   C3        1.0  0.897493  0.603444  0.848719  1.0000
  C   C4        1.0  0.297518  0.556305  0.5923069999999999  1.0000
  C   C5        1.0  0.7972789999999997  0.10218999999999978  0.846848  1.0000
  C   C6        1.0  0.3983429999999999  0.05629499999999954  0.5918939999999999  1.0000
  C   C7        1.0  0.403613  0.07753800000000009  0.838941  1.0000
  C   C8        1.0  0.7939539999999999  0.08052800000000016  0.5980000000000001  1.0000
  C   C9        1.0  0.119531  0.5921009999999999  0.06626200000000004  1.0000
  C   C10       1.0  0.07577999999999996  0.5788120000000001  0.3744080000000001  1.0000
  C   C11       1.0  0.07537799999999995  0.5973499999999996  0.06653200000000004  1.0000
  C   C12       1.0  0.119925  0.5733439999999996  0.374142  1.0000
  C   C13       1.0  0.6201209999999999  0.0889009999999999  0.06563300000000005  1.0000
  C   C14       1.0  0.575714  0.06577199999999994  0.37334200000000006  1.0000
  C   C15       1.0  0.5759749999999998  0.08441300000000006  0.06547100000000006  1.0000
  C   C16       1.0  0.619865  0.06999399999999988  0.37350799999999995  1.0000
  C   C17       1.0  0.18961599999999995  0.5721279999999997  0.143046  1.0000
  C   C18       1.0  0.005684999999999939  0.5985349999999995  0.2977080000000001  1.0000
  C   C19       1.0  0.005395000000000039  0.5937239999999998  0.14417499999999994  1.0000
  C   C20       1.0  0.189904  0.5760689999999995  0.29655699999999996  1.0000
  C   C21       1.0  0.690118  0.08364899999999986  0.14311399999999996  1.0000
  C   C22       1.0  0.505719  0.0709240000000002  0.29581900000000005  1.0000
  C   C23       1.0  0.505942  0.06507700000000004  0.14235200000000003  1.0000
  C   C24       1.0  0.689916  0.08860499999999982  0.2966089999999999  1.0000
  C   C25       1.0  0.143778  0.5797459999999997  0.1422779999999999  1.0000
  C   C26       1.0  0.051531999999999904  0.591327  0.2984119999999999  1.0000
  C   C27       1.0  0.05126199999999992  0.5908209999999999  0.14284800000000009  1.0000
  C   C28       1.0  0.144043  0.5798819999999995  0.29784999999999995  1.0000
  C   C29       1.0  0.644262  0.08145099999999993  0.14188599999999996  1.0000
  C   C30       1.0  0.5515799999999997  0.07302799999999943  0.2970710000000001  1.0000
  C   C31       1.0  0.5517789999999998  0.072079  0.14153700000000002  1.0000
  C   C32       1.0  0.6440769999999998  0.08198000000000016  0.29744499999999996  1.0000
  C   C33       1.0  0.120816  0.5827649999999996  0.2202090000000001  1.0000
  C   C34       1.0  0.07449499999999976  0.588473  0.2204839999999999  1.0000
  C   C35       1.0  0.621083  0.07941300000000016  0.21957000000000004  1.0000
  C   C36       1.0  0.574774  0.07481199999999966  0.21940300000000001  1.0000
  C   C37       1.0  0.211416  0.5715279999999998  0.21964899999999998  1.0000
  C   C38       1.0  0.9838819999999998  0.5986239999999995  0.22110300000000005  1.0000
  C   C39       1.0  0.7116859999999998  0.08813499999999984  0.21997099999999992  1.0000
  C   C40       1.0  0.48415399999999986  0.06592999999999938  0.21896000000000004  1.0000
  C   C41       1.0  0.4799759999999999  0.06338399999999965  0.06436599999999992  1.0000
  C   C42       1.0  0.4838829999999999  0.9212249999999997  0.004661000000000026  1.0000
  C   C43       1.0  0.4585569999999999  0.9221169999999996  0.932466  1.0000
  C   C44       1.0  0.4297169999999999  0.068187  0.917339  1.0000
  C   C45       1.0  0.425642  0.21020399999999959  0.976726  1.0000
  C   C46       1.0  0.449981  0.2062009999999996  0.04990099999999997  1.0000
  C   C47       1.0  0.479301  0.06889799999999946  0.373216  1.0000
  C   C48       1.0  0.4500189999999999  0.922807  0.386568  1.0000
  C   C49       1.0  0.42430799999999996  0.9180229999999994  0.4579470000000001  1.0000
  C   C50       1.0  0.426466  0.06248999999999993  0.51651  1.0000
  C   C51       1.0  0.454967  0.2105890000000001  0.503058  1.0000
  C   C52       1.0  0.481564  0.21230999999999955  0.43265599999999993  1.0000
  C   C53       1.0  0.7672609999999997  0.08772799999999979  0.5202690000000001  1.0000
  C   C54       1.0  0.7710379999999998  0.9450090000000001  0.4611179999999999  1.0000
  C   C55       1.0  0.7461859999999998  0.9478709999999997  0.38856099999999993  1.0000
  C   C56       1.0  0.7160109999999997  0.09019099999999947  0.37444900000000003  1.0000
  C   C57       1.0  0.7122729999999998  0.23252199999999945  0.43409999999999993  1.0000
  C   C58       1.0  0.738057  0.23269599999999976  0.5056799999999999  1.0000
  C   C59       1.0  0.2694009999999999  0.5629339999999994  0.5169239999999999  1.0000
  C   C60       1.0  0.27140599999999987  0.4193289999999998  0.45793700000000004  1.0000
  C   C61       1.0  0.245566  0.4254409999999997  0.386714  1.0000
  C   C62       1.0  0.216393  0.5721750000000001  0.3738699999999999  1.0000
  C   C63       1.0  0.214315  0.7147799999999996  0.43373799999999996  1.0000
  C   C64       1.0  0.240977  0.7115999999999998  0.504005  1.0000
  C   C65       1.0  0.978891  0.5952869999999999  0.06685500000000011  1.0000
  C   C66       1.0  0.981209  0.45136199999999954  0.007657999999999943  1.0000
  C   C67       1.0  0.9545009999999998  0.45188599999999995  0.937427  1.0000
  C   C68       1.0  0.925762  0.5991529999999998  0.923921  1.0000
  C   C69       1.0  0.9235429999999998  0.7441149999999997  0.982197  1.0000
  C   C70       1.0  0.9494199999999998  0.7406329999999998  0.05339399999999994  1.0000
  C   C71       1.0  0.769219  0.09492499999999993  0.922261  1.0000
  C   C72       1.0  0.740731  0.9466009999999997  0.935369  1.0000
  C   C73       1.0  0.714226  0.9438159999999999  0.005884999999999918  1.0000
  C   C74       1.0  0.7165089999999997  0.08654399999999994  0.06568799999999997  1.0000
  C   C75       1.0  0.745749  0.23287699999999978  0.05261300000000002  1.0000
  C   C76       1.0  0.771433  0.238556  0.981225  1.0000
  C   C77       1.0  0.9796669999999997  0.5987779999999994  0.375699  1.0000
  C   C78       1.0  0.949686  0.45562799999999987  0.38963400000000004  1.0000
  C   C79       1.0  0.925198  0.4503199999999996  0.4626490000000001  1.0000
  C   C80       1.0  0.9291839999999998  0.5914320000000001  0.522521  1.0000
  C   C81       1.0  0.957991  0.7377739999999999  0.5079119999999999  1.0000
  C   C82       1.0  0.983427  0.7399859999999995  0.43588399999999994  1.0000
  C   C83       1.0  0.26725  0.5719789999999992  0.91977  1.0000
  C   C84       1.0  0.237932  0.42740799999999934  0.934224  1.0000
  C   C85       1.0  0.21201599999999995  0.42807199999999934  0.005621000000000098  1.0000
  C   C86       1.0  0.21576  0.5704259999999998  0.06525000000000003  1.0000
  C   C87       1.0  0.24605999999999995  0.7122939999999995  0.05126699999999995  1.0000
  C   C88       1.0  0.271032  0.7147189999999997  0.978864  1.0000
