data_image0
_chemical_formula_structural       O20Al2Sc2H48C88
_chemical_formula_sum              "O20 Al2 Sc2 H48 C88"
_cell_length_a       30.662001
_cell_length_b       6.961
_cell_length_c       15.88
_cell_angle_alpha    90.0
_cell_angle_beta     90.0
_cell_angle_gamma    90.0

_space_group_name_H-M_alt    "P 1"
_space_group_IT_number       1

loop_
  _space_group_symop_operation_xyz
  'x, y, z'

loop_
  _atom_site_type_symbol
  _atom_site_label
  _atom_site_symmetry_multiplicity
  _atom_site_fract_x
  _atom_site_fract_y
  _atom_site_fract_z
  _atom_site_occupancy
  O   O1        1.0  0.4203790000000001  0.7958850000000001  0.48791600000000024  1.0000
  O   O2        1.0  0.010092000000000214  0.13123099999999965  0.32975000000000004  1.0000
  O   O3        1.0  0.9976360000000002  0.15897899999999954  0.5082760000000001  1.0000
  O   O4        1.0  0.4327130000000001  0.7666080000000001  0.309648  1.0000
  O   O5        1.0  0.0015789999999999973  0.8126859999999992  0.3039370000000001  1.0000
  O   O6        1.0  0.430514  0.11337099999999987  0.5145680000000001  1.0000
  O   O7        1.0  0.4154530000000001  0.07696099999999939  0.3336159999999999  1.0000
  O   O8        1.0  0.016065999999999917  0.8499149999999996  0.48397500000000027  1.0000
  O   O9        1.0  0.9202920000000002  0.3155689999999995  0.48785400000000023  1.0000
  O   O10       1.0  0.510162  0.6110809999999995  0.329534  1.0000
  O   O11       1.0  0.501859  0.6313849999999999  0.5042170000000001  1.0000
  O   O12       1.0  0.9286070000000002  0.29466899999999935  0.313499  1.0000
  O   O13       1.0  0.4932070000000001  0.305082  0.2954330000000001  1.0000
  O   O14       1.0  0.9372220000000002  0.6219039999999993  0.5217360000000001  1.0000
  O   O15       1.0  0.9144520000000003  0.6119389999999999  0.33505399999999996  1.0000
  O   O16       1.0  0.516579  0.31581400000000004  0.480256  1.0000
  O   O17       1.0  0.4953430000000001  0.9371710000000002  0.4090720000000003  1.0000
  O   O18       1.0  0.9352230000000002  0.9883829999999997  0.4083870000000001  1.0000
  O   O19       1.0  0.9952290000000003  0.45474099999999984  0.4008780000000003  1.0000
  O   O20       1.0  0.435198  0.47147299999999953  0.4168259999999999  1.0000
  Al  Al1       1.0  0.9643370000000002  0.2237840000000002  0.409824  1.0000
  Al  Al2       1.0  0.4660780000000001  0.7023399999999994  0.40788800000000025  1.0000
  Sc  Sc1       1.0  0.9666530000000002  0.7230180000000002  0.41181399999999996  1.0000
  Sc  Sc2       1.0  0.4643330000000001  0.20373899999999967  0.40567099999999995  1.0000
  H   H1        1.0  0.521724  0.9286779999999996  0.442674  1.0000
  H   H2        1.0  0.9087810000000002  0.9963149999999995  0.3749240000000003  1.0000
  H   H3        1.0  0.018737000000000007  0.43633200000000016  0.36063600000000023  1.0000
  H   H4        1.0  0.41163300000000014  0.48941999999999947  0.4569600000000001  1.0000
  H   H5        1.0  0.2575060000000001  0.9761469999999995  0.695808  1.0000
  H   H6        1.0  0.17392600000000003  0.9584449999999997  0.122069  1.0000
  H   H7        1.0  0.17804600000000007  0.009030999999999343  0.6937460000000002  1.0000
  H   H8        1.0  0.253373  0.9260429999999998  0.12409900000000018  1.0000
  H   H9        1.0  0.756972  0.4734109999999995  0.6954270000000002  1.0000
  H   H10       1.0  0.6737260000000003  0.4476399999999993  0.12184499999999998  1.0000
  H   H11       1.0  0.6772460000000002  0.4859  0.6932950000000002  1.0000
  H   H12       1.0  0.7534740000000002  0.43503599999999976  0.1239680000000003  1.0000
  H   H13       1.0  0.365534  0.910216  0.9126220000000003  1.0000
  H   H14       1.0  0.06580399999999997  0.02161599999999941  0.904987  1.0000
  H   H15       1.0  0.8656780000000002  0.44175299999999934  0.9126240000000002  1.0000
  H   H16       1.0  0.565025  0.48231400000000013  0.9047790000000002  1.0000
  H   H17       1.0  0.5618030000000003  0.21663499999999966  0.027021000000000184  1.0000
  H   H18       1.0  0.515472  0.20891899999999938  0.1561600000000001  1.0000
  H   H19       1.0  0.5724380000000002  0.7394759999999997  0.2394700000000001  1.0000
  H   H20       1.0  0.620831  0.7426699999999998  0.11278100000000003  1.0000
  H   H21       1.0  0.9120490000000002  0.19145399999999976  0.16907600000000025  1.0000
  H   H22       1.0  0.8677650000000002  0.19102499999999933  0.037185000000000024  1.0000
  H   H23       1.0  0.8062260000000002  0.7183189999999997  0.11459299999999994  1.0000
  H   H24       1.0  0.8522430000000002  0.7221310000000001  0.2443230000000001  1.0000
  H   H25       1.0  0.4108900000000001  0.654033  0.1674960000000001  1.0000
  H   H26       1.0  0.3657240000000001  0.6600689999999995  0.0364580000000001  1.0000
  H   H27       1.0  0.30858  0.19609399999999996  0.11523200000000001  1.0000
  H   H28       1.0  0.3555220000000001  0.19347299999999998  0.2438229999999999  1.0000
  H   H29       1.0  0.8587090000000002  0.18590600000000013  0.5778630000000002  1.0000
  H   H30       1.0  0.8103370000000002  0.18071800000000016  0.7045560000000002  1.0000
  H   H31       1.0  0.868769  0.7075729999999999  0.790879  1.0000
  H   H32       1.0  0.9150530000000002  0.7172419999999996  0.6616979999999999  1.0000
  H   H33       1.0  0.355609  0.6715149999999998  0.576154  1.0000
  H   H34       1.0  0.308492  0.6671499999999999  0.7041320000000002  1.0000
  H   H35       1.0  0.369858  0.18684499999999993  0.791073  1.0000
  H   H36       1.0  0.414885  0.19672  0.660264  1.0000
  H   H37       1.0  0.12334400000000002  0.7369839999999996  0.702699  1.0000
  H   H38       1.0  0.0766260000000001  0.7368109999999999  0.574026  1.0000
  H   H39       1.0  0.0203819999999999  0.275506  0.6490970000000004  1.0000
  H   H40       1.0  0.06545200000000008  0.27218599999999954  0.7801190000000002  1.0000
  H   H41       1.0  0.06174400000000025  0.7443479999999995  0.02625499999999992  1.0000
  H   H42       1.0  0.016753000000000243  0.7318499999999996  0.15706200000000003  1.0000
  H   H43       1.0  0.07527600000000013  0.2581749999999996  0.2420340000000001  1.0000
  H   H44       1.0  0.12235800000000002  0.2648389999999998  0.11406400000000018  1.0000
  H   H45       1.0  0.6243750000000002  0.20471899999999987  0.7022880000000002  1.0000
  H   H46       1.0  0.578842  0.20286500000000005  0.5720560000000001  1.0000
  H   H47       1.0  0.518866  0.7326589999999995  0.6480160000000001  1.0000
  H   H48       1.0  0.56287  0.7317489999999996  0.7801260000000002  1.0000
  C   C1        1.0  0.4149500000000001  0.9478629999999998  0.5319340000000002  1.0000
  C   C2        1.0  0.016321000000000033  0.9793779999999995  0.2860720000000001  1.0000
  C   C3        1.0  0.018049999999999903  0.005038999999999571  0.5268880000000002  1.0000
  C   C4        1.0  0.4130790000000001  0.9220999999999995  0.2906430000000002  1.0000
  C   C5        1.0  0.917535  0.463101  0.5352770000000002  1.0000
  C   C6        1.0  0.513022  0.46363799999999955  0.282087  1.0000
  C   C7        1.0  0.519745  0.4708499999999995  0.5230640000000002  1.0000
  C   C8        1.0  0.9111450000000002  0.4553559999999996  0.2934730000000003  1.0000
  C   C9        1.0  0.23928700000000006  0.971752  0.7544980000000002  1.0000
  C   C10       1.0  0.19211100000000006  0.9626209999999994  0.063334  1.0000
  C   C11       1.0  0.194902  0.9899269999999997  0.753378  1.0000
  C   C12       1.0  0.236509  0.9447  0.064446  1.0000
  C   C13       1.0  0.7388510000000003  0.4662329999999999  0.75418  1.0000
  C   C14       1.0  0.691849  0.4550579999999997  0.06311400000000013  1.0000
  C   C15       1.0  0.6942960000000002  0.4730789999999998  0.75304  1.0000
  C   C16       1.0  0.7364000000000003  0.4481509999999997  0.06425999999999998  1.0000
  C   C17       1.0  0.3088400000000001  0.929424  0.833932  1.0000
  C   C18       1.0  0.12247800000000003  0.00340600000000002  0.9838170000000003  1.0000
  C   C19       1.0  0.123555  0.0016599999999997728  0.8291400000000002  1.0000
  C   C20       1.0  0.3078360000000001  0.9317389999999993  0.9885380000000002  1.0000
  C   C21       1.0  0.80889  0.44451999999999975  0.8337190000000002  1.0000
  C   C22       1.0  0.621829  0.478463  0.983634  1.0000
  C   C23       1.0  0.6228990000000002  0.4708779999999999  0.8289310000000002  1.0000
  C   C24       1.0  0.8077590000000002  0.4515790000000002  0.988344  1.0000
  C   C25       1.0  0.26278800000000013  0.9496469999999997  0.831765  1.0000
  C   C26       1.0  0.16856700000000005  0.9841229999999997  0.9860630000000002  1.0000
  C   C27       1.0  0.169773  0.987483  0.8293980000000002  1.0000
  C   C28       1.0  0.2616300000000001  0.9466580000000001  0.9884070000000003  1.0000
  C   C29       1.0  0.7626260000000002  0.45279599999999975  0.8315150000000002  1.0000
  C   C30       1.0  0.66808  0.469004  0.985787  1.0000
  C   C31       1.0  0.669226  0.466977  0.829097  1.0000
  C   C32       1.0  0.7614450000000003  0.4546569999999996  0.988189  1.0000
  C   C33       1.0  0.23897400000000005  0.9573819999999994  0.9095010000000002  1.0000
  C   C34       1.0  0.19240800000000005  0.976731  0.9083350000000002  1.0000
  C   C35       1.0  0.7387170000000002  0.45705399999999985  0.9092290000000002  1.0000
  C   C36       1.0  0.691967  0.46449599999999996  0.908053  1.0000
  C   C37       1.0  0.3301330000000001  0.9218429999999994  0.911732  1.0000
  C   C38       1.0  0.10121800000000027  0.010831999999999729  0.9059380000000002  1.0000
  C   C39       1.0  0.830185  0.4450699999999998  0.911637  1.0000
  C   C40       1.0  0.600514  0.47817499999999935  0.905701  1.0000
  C   C41       1.0  0.5970720000000003  0.4694899999999999  0.74993  1.0000
  C   C42       1.0  0.601397  0.32070199999999977  0.6903580000000002  1.0000
  C   C43       1.0  0.5759800000000003  0.3189959999999998  0.6175400000000003  1.0000
  C   C44       1.0  0.546395  0.46856099999999934  0.6016570000000001  1.0000
  C   C45       1.0  0.54191  0.6174879999999994  0.660714  1.0000
  C   C46       1.0  0.5665350000000002  0.6163709999999994  0.7344350000000002  1.0000
  C   C47       1.0  0.5947560000000002  0.4793059999999998  0.06125000000000003  1.0000
  C   C48       1.0  0.564277  0.33073399999999964  0.07361400000000007  1.0000
  C   C49       1.0  0.538312  0.32597899999999974  0.145532  1.0000
  C   C50       1.0  0.541311  0.4730940000000001  0.20581099999999997  1.0000
  C   C51       1.0  0.5708490000000003  0.6244909999999995  0.19315499999999997  1.0000
  C   C52       1.0  0.5977430000000002  0.625906  0.12214900000000008  1.0000
  C   C53       1.0  0.884593  0.45623099999999933  0.21487199999999995  1.0000
  C   C54       1.0  0.8890070000000002  0.30653499999999934  0.15622899999999995  1.0000
  C   C55       1.0  0.864218  0.3068189999999995  0.0827  1.0000
  C   C56       1.0  0.8336190000000002  0.4534439999999997  0.06725099999999995  1.0000
  C   C57       1.0  0.8293380000000002  0.6028499999999997  0.12650600000000023  1.0000
  C   C58       1.0  0.854976  0.6056050000000001  0.19900800000000007  1.0000
  C   C59       1.0  0.3856190000000001  0.9228479999999997  0.21351999999999993  1.0000
  C   C60       1.0  0.3886010000000001  0.772231  0.15502100000000008  1.0000
  C   C61       1.0  0.3633240000000001  0.7761959999999996  0.08209  1.0000
  C   C62       1.0  0.3337910000000001  0.9274479999999995  0.067291  1.0000
  C   C63       1.0  0.330829  0.07713299999999945  0.1267370000000001  1.0000
  C   C64       1.0  0.3568960000000001  0.07621000000000011  0.19859899999999997  1.0000
  C   C65       1.0  0.09769800000000006  0.0050759999999998575  0.7501890000000002  1.0000
  C   C66       1.0  0.10093599999999993  0.8551719999999995  0.6909010000000002  1.0000
  C   C67       1.0  0.074932  0.8545539999999994  0.6189560000000001  1.0000
  C   C68       1.0  0.04586399999999991  0.006558000000000063  0.6036950000000004  1.0000
  C   C69       1.0  0.04278900000000019  0.1578969999999997  0.66184  1.0000
  C   C70       1.0  0.06804600000000006  0.15551499999999985  0.7348070000000002  1.0000
  C   C71       1.0  0.8894090000000002  0.45301299999999944  0.6117180000000002  1.0000
  C   C72       1.0  0.8601000000000002  0.3007149999999998  0.6242880000000002  1.0000
  C   C73       1.0  0.8332350000000002  0.2982169999999997  0.6952680000000002  1.0000
  C   C74       1.0  0.836025  0.44467299999999943  0.75624  1.0000
  C   C75       1.0  0.8663740000000002  0.5938629999999994  0.744101  1.0000
  C   C76       1.0  0.8923150000000001  0.5997349999999998  0.6721900000000002  1.0000
  C   C77       1.0  0.09546600000000006  0.004191000000000056  0.061535000000000124  1.0000
  C   C78       1.0  0.06480200000000003  0.8563309999999994  0.07370199999999993  1.0000
  C   C79       1.0  0.039555000000000236  0.8491139999999996  0.1465620000000001  1.0000
  C   C80       1.0  0.04326800000000031  0.9936660000000002  0.2078850000000001  1.0000
  C   C81       1.0  0.0727310000000001  0.14517399999999947  0.19496400000000016  1.0000
  C   C82       1.0  0.09906600000000011  0.14868099999999937  0.12317500000000003  1.0000
  C   C83       1.0  0.3879470000000001  0.9352789999999999  0.6099990000000003  1.0000
  C   C84       1.0  0.3582740000000001  0.784723  0.6230850000000003  1.0000
  C   C85       1.0  0.33193200000000006  0.7825899999999993  0.6948100000000003  1.0000
  C   C86       1.0  0.335766  0.9275349999999998  0.7561830000000003  1.0000
  C   C87       1.0  0.3666240000000001  0.07450299999999954  0.7438240000000003  1.0000
  C   C88       1.0  0.391894  0.08028599999999962  0.671031  1.0000
