data_image0
_chemical_formula_structural       O40Al4Sc4H96C176
_chemical_formula_sum              "O40 Al4 Sc4 H96 C176"
_cell_length_a       30.371
_cell_length_b       13.886
_cell_length_c       15.998
_cell_angle_alpha    90.0
_cell_angle_beta     90.0
_cell_angle_gamma    90.0

_symmetry_space_group_name_H-M    'P 1'
_symmetry_Int_Tables_number       1

loop_
  _symmetry_equiv_pos_as_xyz
  'x,y,z'

loop_
  _atom_site_type_symbol
  _atom_site_label
  _atom_site_symmetry_multiplicity
  _atom_site_fract_x
  _atom_site_fract_y
  _atom_site_fract_z
  _atom_site_occupancy
  O   O1        1.0  0.438372  0.16201700000000008  0.49119899999999994  1.0000
  O   O2        1.0  0.02763899999999997  0.3316460000000001  0.3281240000000001  1.0000
  O   O3        1.0  0.018415000000000074  0.3403560000000001  0.5043280000000001  1.0000
  O   O4        1.0  0.446857  0.15135199999999993  0.31308800000000025  1.0000
  O   O5        1.0  0.02036199999999999  0.16969199999999973  0.3133930000000001  1.0000
  O   O6        1.0  0.4469860000000001  0.322241  0.5158750000000001  1.0000
  O   O7        1.0  0.431445  0.3088580000000001  0.33293799999999996  1.0000
  O   O8        1.0  0.02787699999999993  0.17975000000000008  0.4871760000000001  1.0000
  O   O9        1.0  0.932022  0.9434630000000002  0.4865379999999999  1.0000
  O   O10       1.0  0.524983  0.07250599999999995  0.3257170000000001  1.0000
  O   O11       1.0  0.520637  0.08343600000000007  0.4998610000000001  1.0000
  O   O12       1.0  0.946497  0.935395  0.3036080000000001  1.0000
  O   O13       1.0  0.511967  0.915978  0.295499  1.0000
  O   O14       1.0  0.949305  0.10062900000000008  0.504046  1.0000
  O   O15       1.0  0.938483  0.09535899999999997  0.3291710000000001  1.0000
  O   O16       1.0  0.5341710000000002  0.924092  0.4833289999999999  1.0000
  O   O17       1.0  0.511868  0.23503699999999994  0.40764300000000003  1.0000
  O   O18       1.0  0.956226  0.2539370000000001  0.4081900000000001  1.0000
  O   O19       1.0  0.013373999999999997  0.016966999999999954  0.4080880000000003  1.0000
  O   O20       1.0  0.4521590000000001  0.00019600000000008502  0.41600100000000007  1.0000
  O   O21       1.0  0.442628  0.6623110000000001  0.49193299999999995  1.0000
  O   O22       1.0  0.03358799999999995  0.8291520000000001  0.333372  1.0000
  O   O23       1.0  0.013902000000000081  0.8413829999999998  0.5204340000000003  1.0000
  O   O24       1.0  0.451639  0.6509600000000001  0.312819  1.0000
  O   O25       1.0  0.024918  0.668838  0.3127519999999999  1.0000
  O   O26       1.0  0.44941900000000007  0.8227960000000001  0.516192  1.0000
  O   O27       1.0  0.43185  0.805099  0.337113  1.0000
  O   O28       1.0  0.029441999999999968  0.6850629999999999  0.4957720000000001  1.0000
  O   O29       1.0  0.9388460000000002  0.41603499999999993  0.49038099999999996  1.0000
  O   O30       1.0  0.529358  0.568805  0.3286990000000001  1.0000
  O   O31       1.0  0.524854  0.581725  0.49997  1.0000
  O   O32       1.0  0.945084  0.4068149999999999  0.31721299999999997  1.0000
  O   O33       1.0  0.511638  0.4150940000000001  0.2963549999999999  1.0000
  O   O34       1.0  0.951495  0.5729649999999997  0.5202310000000001  1.0000
  O   O35       1.0  0.933698  0.567598  0.33252499999999996  1.0000
  O   O36       1.0  0.533979  0.4204669999999999  0.4830590000000002  1.0000
  O   O37       1.0  0.515717  0.7356149999999999  0.4076580000000003  1.0000
  O   O38       1.0  0.9491290000000002  0.753438  0.399962  1.0000
  O   O39       1.0  0.013077000000000007  0.49093999999999993  0.40415800000000024  1.0000
  O   O40       1.0  0.454072  0.5034840000000003  0.4166350000000001  1.0000
  Al  Al1       1.0  0.482339  0.11727299999999996  0.40748600000000024  1.0000
  Al  Al2       1.0  0.984365  0.13510899999999992  0.4092929999999999  1.0000
  Al  Al3       1.0  0.486717  0.617324  0.408134  1.0000
  Al  Al4       1.0  0.982954  0.3740190000000001  0.41040700000000024  1.0000
  Sc  Sc1       1.0  0.981529  0.884675  0.4097120000000001  1.0000
  Sc  Sc2       1.0  0.4827960000000001  0.867383  0.40667999999999993  1.0000
  Sc  Sc3       1.0  0.9836280000000001  0.6245159999999998  0.413192  1.0000
  Sc  Sc4       1.0  0.481253  0.36800600000000006  0.40706899999999996  1.0000
  H   H1        1.0  0.539687  0.2300770000000001  0.43713  1.0000
  H   H2        1.0  0.9300590000000001  0.25266600000000006  0.3735020000000003  1.0000
  H   H3        1.0  0.040964  0.020296000000000092  0.37767799999999996  1.0000
  H   H4        1.0  0.427563  0.007276999999999979  0.4542330000000001  1.0000
  H   H5        1.0  0.272841  0.2294099999999999  0.697138  1.0000
  H   H6        1.0  0.189628  0.24126000000000003  0.12128000000000029  1.0000
  H   H7        1.0  0.19221200000000005  0.23918700000000026  0.695346  1.0000
  H   H8        1.0  0.270269  0.23132700000000006  0.12312499999999994  1.0000
  H   H9        1.0  0.773142  0.03542299999999998  0.694012  1.0000
  H   H10       1.0  0.692232  0.029821000000000094  0.11988299999999998  1.0000
  H   H11       1.0  0.692462  0.027041000000000096  0.693902  1.0000
  H   H12       1.0  0.772811  0.03862800000000011  0.12001700000000004  1.0000
  H   H13       1.0  0.382975  0.22056999999999993  0.912732  1.0000
  H   H14       1.0  0.079669  0.256926  0.905941  1.0000
  H   H15       1.0  0.884524  0.04195199999999999  0.906828  1.0000
  H   H16       1.0  0.581113  0.010844000000000076  0.9063040000000002  1.0000
  H   H17       1.0  0.591147  0.871842  0.03675500000000009  1.0000
  H   H18       1.0  0.542373  0.35416000000000003  0.16914800000000008  1.0000
  H   H19       1.0  0.577413  0.15200900000000006  0.22851800000000022  1.0000
  H   H20       1.0  0.625856  0.16274300000000008  0.10238600000000009  1.0000
  H   H21       1.0  0.923189  0.8875789999999999  0.16453000000000007  1.0000
  H   H22       1.0  0.878542  0.898863  0.033784000000000036  1.0000
  H   H23       1.0  0.834479  0.18111100000000002  0.1069610000000003  1.0000
  H   H24       1.0  0.880938  0.1712330000000002  0.23510399999999998  1.0000
  H   H25       1.0  0.4181820000000001  0.08328099999999994  0.1829209999999999  1.0000
  H   H26       1.0  0.373735  0.08271899999999999  0.05124100000000009  1.0000
  H   H27       1.0  0.337218  0.872085  0.10031499999999993  1.0000
  H   H28       1.0  0.38214  0.872796  0.2315890000000003  1.0000
  H   H29       1.0  0.878641  0.8823880000000001  0.589504  1.0000
  H   H30       1.0  0.832853  0.888543  0.719504  1.0000
  H   H31       1.0  0.8789220000000002  0.17665299999999998  0.766804  1.0000
  H   H32       1.0  0.922978  0.17124300000000003  0.6347590000000003  1.0000
  H   H33       1.0  0.381544  0.08763300000000007  0.5877230000000001  1.0000
  H   H34       1.0  0.3343910000000001  0.08151299999999995  0.715361  1.0000
  H   H35       1.0  0.380028  0.865786  0.782049  1.0000
  H   H36       1.0  0.425353  0.873854  0.651878  1.0000
  H   H37       1.0  0.124467  0.1005259999999999  0.718229  1.0000
  H   H38       1.0  0.07840000000000003  0.10616800000000004  0.5887000000000001  1.0000
  H   H39       1.0  0.04502600000000001  0.905459  0.649197  1.0000
  H   H40       1.0  0.0922400000000001  0.903015  0.777744  1.0000
  H   H41       1.0  0.08732999999999991  0.10782099999999994  0.046864999999999934  1.0000
  H   H42       1.0  0.04387199999999991  0.10791299999999993  0.17933400000000033  1.0000
  H   H43       1.0  0.08791900000000008  0.902008  0.232864  1.0000
  H   H44       1.0  0.13342900000000005  0.905939  0.10235499999999999  1.0000
  H   H45       1.0  0.633594  0.868007  0.7192330000000002  1.0000
  H   H46       1.0  0.588878  0.861712  0.588015  1.0000
  H   H47       1.0  0.543711  0.15019800000000003  0.632671  1.0000
  H   H48       1.0  0.586939  0.15578099999999995  0.76544  1.0000
  H   H49       1.0  0.543397  0.7325109999999999  0.437789  1.0000
  H   H50       1.0  0.9222890000000002  0.74983  0.36718000000000006  1.0000
  H   H51       1.0  0.0380910000000001  0.48447700000000005  0.3668220000000002  1.0000
  H   H52       1.0  0.429894  0.5149189999999999  0.45506100000000016  1.0000
  H   H53       1.0  0.276329  0.734815  0.698426  1.0000
  H   H54       1.0  0.195008  0.7462599999999999  0.12396699999999994  1.0000
  H   H55       1.0  0.195839  0.7501999999999998  0.698024  1.0000
  H   H56       1.0  0.27551  0.7312980000000002  0.12440000000000007  1.0000
  H   H57       1.0  0.775407  0.47915199999999997  0.697638  1.0000
  H   H58       1.0  0.691203  0.493973  0.12107899999999994  1.0000
  H   H59       1.0  0.694822  0.4885870000000004  0.695201  1.0000
  H   H60       1.0  0.771838  0.4843280000000001  0.12354799999999999  1.0000
  H   H61       1.0  0.387057  0.7148220000000003  0.912131  1.0000
  H   H62       1.0  0.0844640000000001  0.769255  0.9108030000000003  1.0000
  H   H63       1.0  0.88499  0.47093199999999996  0.913971  1.0000
  H   H64       1.0  0.581726  0.5045029999999999  0.904933  1.0000
  H   H65       1.0  0.58854  0.35766900000000024  0.03965700000000005  1.0000
  H   H66       1.0  0.544238  0.8605860000000001  0.16479599999999997  1.0000
  H   H67       1.0  0.581736  0.643522  0.22660800000000014  1.0000
  H   H68       1.0  0.629316  0.6466439999999999  0.09861800000000011  1.0000
  H   H69       1.0  0.922316  0.34234699999999996  0.18277199999999993  1.0000
  H   H70       1.0  0.878486  0.33908800000000006  0.050767999999999924  1.0000
  H   H71       1.0  0.831994  0.625948  0.10157200000000022  1.0000
  H   H72       1.0  0.8774450000000003  0.630112  0.23185600000000006  1.0000
  H   H73       1.0  0.4224400000000001  0.581577  0.183751  1.0000
  H   H74       1.0  0.378708  0.5811710000000001  0.05101599999999995  1.0000
  H   H75       1.0  0.333655  0.374722  0.09961599999999993  1.0000
  H   H76       1.0  0.379634  0.3759030000000001  0.22944699999999996  1.0000
  H   H77       1.0  0.8837370000000002  0.33986000000000005  0.5868770000000001  1.0000
  H   H78       1.0  0.836354  0.33195400000000014  0.714755  1.0000
  H   H79       1.0  0.8796980000000002  0.615707  0.784947  1.0000
  H   H80       1.0  0.925104  0.6249300000000001  0.654755  1.0000
  H   H81       1.0  0.384909  0.586892  0.5874770000000001  1.0000
  H   H82       1.0  0.337803  0.5801050000000001  0.7152390000000002  1.0000
  H   H83       1.0  0.377252  0.3668210000000001  0.781959  1.0000
  H   H84       1.0  0.4227230000000001  0.3739859999999997  0.651983  1.0000
  H   H85       1.0  0.132625  0.613585  0.719317  1.0000
  H   H86       1.0  0.08393000000000006  0.6154250000000001  0.5928850000000001  1.0000
  H   H87       1.0  0.04939800000000005  0.40412500000000007  0.634798  1.0000
  H   H88       1.0  0.09375500000000025  0.3980269999999999  0.766409  1.0000
  H   H89       1.0  0.09302800000000011  0.61619  0.04589700000000008  1.0000
  H   H90       1.0  0.04920499999999995  0.6114560000000001  0.17836399999999997  1.0000
  H   H91       1.0  0.08302300000000007  0.40018599999999993  0.225989  1.0000
  H   H92       1.0  0.128128  0.39929900000000007  0.095537  1.0000
  H   H93       1.0  0.632568  0.3495870000000001  0.715784  1.0000
  H   H94       1.0  0.588124  0.3515919999999999  0.5841580000000002  1.0000
  H   H95       1.0  0.547666  0.641732  0.63615  1.0000
  H   H96       1.0  0.590428  0.638792  0.769702  1.0000
  C   C1        1.0  0.432045  0.23875900000000017  0.5339929999999999  1.0000
  C   C2        1.0  0.034407000000000076  0.2521709999999999  0.2899320000000001  1.0000
  C   C3        1.0  0.033889999999999976  0.2587140000000001  0.5263310000000001  1.0000
  C   C4        1.0  0.428337  0.2301390000000001  0.2919020000000001  1.0000
  C   C5        1.0  0.929982  0.023220999999999936  0.5262750000000003  1.0000
  C   C6        1.0  0.529702  0.997651  0.2802849999999999  1.0000
  C   C7        1.0  0.537839  0.003649999999999931  0.522856  1.0000
  C   C8        1.0  0.931831  0.019187999999999986  0.285809  1.0000
  C   C9        1.0  0.254625  0.23064400000000007  0.7556440000000002  1.0000
  C   C10       1.0  0.20789100000000005  0.24019300000000032  0.06282900000000002  1.0000
  C   C11       1.0  0.209676  0.23617599999999994  0.754628  1.0000
  C   C12       1.0  0.252825  0.23467700000000002  0.06385100000000032  1.0000
  C   C13       1.0  0.755275  0.03253100000000009  0.7528640000000002  1.0000
  C   C14       1.0  0.710049  0.03281299999999998  0.06098099999999995  1.0000
  C   C15       1.0  0.710327  0.02789400000000009  0.7528010000000003  1.0000
  C   C16       1.0  0.755028  0.03775499999999998  0.06103700000000023  1.0000
  C   C17       1.0  0.325425  0.223012  0.8347580000000002  1.0000
  C   C18       1.0  0.137241  0.25087799999999993  0.983815  1.0000
  C   C19       1.0  0.137964  0.2460960000000001  0.830449  1.0000
  C   C20       1.0  0.32456  0.22799799999999992  0.988036  1.0000
  C   C21       1.0  0.826518  0.03653299999999993  0.830275  1.0000
  C   C22       1.0  0.638781  0.022772000000000014  0.9833460000000003  1.0000
  C   C23       1.0  0.639207  0.017271000000000036  0.830002  1.0000
  C   C24       1.0  0.826479  0.0429250000000001  0.983602  1.0000
  C   C25       1.0  0.278772  0.2274369999999999  0.8325590000000003  1.0000
  C   C26       1.0  0.183822  0.2441310000000001  0.985861  1.0000
  C   C27       1.0  0.184581  0.23931499999999972  0.8304540000000002  1.0000
  C   C28       1.0  0.277901  0.23245800000000005  0.988009  1.0000
  C   C29       1.0  0.779824  0.034219  0.829332  1.0000
  C   C30       1.0  0.685414  0.029925999999999897  0.984616  1.0000
  C   C31       1.0  0.685773  0.02434500000000006  0.829192  1.0000
  C   C32       1.0  0.779744  0.04028100000000001  0.984757  1.0000
  C   C33       1.0  0.254822  0.23245000000000005  0.909748  1.0000
  C   C34       1.0  0.207716  0.2385090000000001  0.908662  1.0000
  C   C35       1.0  0.756245  0.03558499999999998  0.907037  1.0000
  C   C36       1.0  0.709107  0.030386000000000024  0.906984  1.0000
  C   C37       1.0  0.347156  0.22322700000000006  0.911914  1.0000
  C   C38       1.0  0.11543299999999991  0.2518689999999999  0.906714  1.0000
  C   C39       1.0  0.8486750000000002  0.04110799999999992  0.90687  1.0000
  C   C40       1.0  0.616862  0.016567  0.9064540000000002  1.0000
  C   C41       1.0  0.613337  0.012437000000000031  0.75108  1.0000
  C   C42       1.0  0.613833  0.92968  0.7002980000000002  1.0000
  C   C43       1.0  0.589028  0.926  0.626913  1.0000
  C   C44       1.0  0.56395  0.005889000000000033  0.6018930000000001  1.0000
  C   C45       1.0  0.563361  0.08871899999999999  0.6523350000000002  1.0000
  C   C46       1.0  0.587475  0.09153300000000009  0.726445  1.0000
  C   C47       1.0  0.611892  0.017781999999999965  0.06105200000000011  1.0000
  C   C48       1.0  0.58827  0.933019  0.07894500000000026  1.0000
  C   C49       1.0  0.562057  0.92646  0.15020199999999995  1.0000
  C   C50       1.0  0.558169  0.005428999999999906  0.20453100000000002  1.0000
  C   C51       1.0  0.581145  0.09079199999999998  0.18661499999999998  1.0000
  C   C52       1.0  0.608076  0.09649200000000002  0.11607900000000006  1.0000
  C   C53       1.0  0.904695  0.02825600000000006  0.20825800000000005  1.0000
  C   C54       1.0  0.9039120000000003  0.9517069999999999  0.15094399999999997  1.0000
  C   C55       1.0  0.878956  0.958268  0.07814300000000009  1.0000
  C   C56       1.0  0.85314  0.040273  0.0616429999999999  1.0000
  C   C57       1.0  0.853986  0.11684399999999995  0.11927599999999994  1.0000
  C   C58       1.0  0.879928  0.11142000000000007  0.19122100000000009  1.0000
  C   C59       1.0  0.401361  0.22947199999999968  0.21413799999999994  1.0000
  C   C60       1.0  0.399735  0.14673200000000008  0.16375099999999998  1.0000
  C   C61       1.0  0.374892  0.14671699999999996  0.09047300000000026  1.0000
  C   C62       1.0  0.3505120000000001  0.2284759999999999  0.0668709999999999  1.0000
  C   C63       1.0  0.352129  0.31093799999999994  0.11794400000000005  1.0000
  C   C64       1.0  0.3776290000000001  0.3118510000000001  0.1904140000000001  1.0000
  C   C65       1.0  0.1121080000000001  0.24892399999999992  0.751324  1.0000
  C   C66       1.0  0.10794100000000006  0.16694699999999996  0.700162  1.0000
  C   C67       1.0  0.08244600000000003  0.16986600000000007  0.627618  1.0000
  C   C68       1.0  0.06133300000000009  0.255587  0.6037269999999999  1.0000
  C   C69       1.0  0.06573300000000004  0.3379440000000001  0.6539750000000002  1.0000
  C   C70       1.0  0.09049799999999997  0.3342129999999999  0.727371  1.0000
  C   C71       1.0  0.9031840000000002  0.02672000000000008  0.604196  1.0000
  C   C72       1.0  0.877935  0.946724  0.6283350000000001  1.0000
  C   C73       1.0  0.852589  0.950388  0.700934  1.0000
  C   C74       1.0  0.852689  0.03317100000000006  0.751766  1.0000
  C   C75       1.0  0.878681  0.11237999999999992  0.727839  1.0000
  C   C76       1.0  0.903323  0.10970900000000006  0.6543140000000001  1.0000
  C   C77       1.0  0.11082799999999993  0.25337300000000007  0.062303  1.0000
  C   C78       1.0  0.08651199999999992  0.17170599999999991  0.08628199999999997  1.0000
  C   C79       1.0  0.062246000000000024  0.1714659999999999  0.1602349999999999  1.0000
  C   C80       1.0  0.060918000000000035  0.253803  0.2112179999999999  1.0000
  C   C81       1.0  0.08442900000000009  0.3361989999999999  0.1868260000000002  1.0000
  C   C82       1.0  0.10950799999999994  0.33560400000000024  0.11366499999999992  1.0000
  C   C83       1.0  0.404793  0.23159500000000022  0.6115300000000001  1.0000
  C   C84       1.0  0.38012600000000013  0.14881199999999994  0.630109  1.0000
  C   C85       1.0  0.353805  0.14552600000000004  0.701656  1.0000
  C   C86       1.0  0.3524500000000001  0.2240580000000001  0.757185  1.0000
  C   C87       1.0  0.378071  0.3058940000000001  0.739166  1.0000
  C   C88       1.0  0.4034970000000001  0.31013599999999997  0.6667959999999999  1.0000
  C   C89       1.0  0.435275  0.7387600000000001  0.5344040000000001  1.0000
  C   C90       1.0  0.039841000000000015  0.751444  0.2919820000000002  1.0000
  C   C91       1.0  0.03323300000000007  0.7624349999999998  0.538502  1.0000
  C   C92       1.0  0.4310760000000001  0.7278469999999998  0.2936080000000001  1.0000
  C   C93       1.0  0.934295  0.4909349999999999  0.5358710000000002  1.0000
  C   C94       1.0  0.531585  0.4943059999999999  0.282049  1.0000
  C   C95       1.0  0.539778  0.499447  0.5225740000000001  1.0000
  C   C96       1.0  0.928859  0.4876190000000001  0.29404600000000003  1.0000
  C   C97       1.0  0.258342  0.7361230000000001  0.757196  1.0000
  C   C98       1.0  0.213034  0.744929  0.06524600000000014  1.0000
  C   C99       1.0  0.213493  0.7446299999999999  0.7569660000000002  1.0000
  C   C100      1.0  0.257862  0.736632  0.06546399999999997  1.0000
  C   C101      1.0  0.757049  0.4801979999999999  0.75599  1.0000
  C   C102      1.0  0.709605  0.49243900000000007  0.06278999999999992  1.0000
  C   C103      1.0  0.712109  0.48545600000000017  0.754659  1.0000
  C   C104      1.0  0.754533  0.4871239999999999  0.06412100000000011  1.0000
  C   C105      1.0  0.329184  0.721695  0.835249  1.0000
  C   C106      1.0  0.142376  0.760554  0.987321  1.0000
  C   C107      1.0  0.142306  0.7564779999999998  0.834302  1.0000
  C   C108      1.0  0.329075  0.72633  0.988395  1.0000
  C   C109      1.0  0.827609  0.4724139999999999  0.835624  1.0000
  C   C110      1.0  0.639157  0.501193  0.983193  1.0000
  C   C111      1.0  0.640272  0.4940470000000001  0.830166  1.0000
  C   C112      1.0  0.826398  0.47979799999999995  0.988751  1.0000
  C   C113      1.0  0.282667  0.729846  0.8337500000000002  1.0000
  C   C114      1.0  0.188808  0.7513289999999999  0.988646  1.0000
  C   C115      1.0  0.188815  0.7478309999999999  0.833262  1.0000
  C   C116      1.0  0.282518  0.73376  0.9891430000000002  1.0000
  C   C117      1.0  0.780973  0.47714199999999996  0.8331170000000002  1.0000
  C   C118      1.0  0.685739  0.4953780000000001  0.9856230000000002  1.0000
  C   C119      1.0  0.686896  0.4883869999999999  0.830339  1.0000
  C   C120      1.0  0.779753  0.4841869999999997  0.988469  1.0000
  C   C121      1.0  0.259157  0.7358739999999999  0.911309  1.0000
  C   C122      1.0  0.212231  0.7451000000000001  0.911045  1.0000
  C   C123      1.0  0.756877  0.48303300000000005  0.9100840000000002  1.0000
  C   C124      1.0  0.7098130000000002  0.48892099999999994  0.908682  1.0000
  C   C125      1.0  0.351286  0.719854  0.911977  1.0000
  C   C126      1.0  0.12020199999999992  0.7632650000000001  0.910851  1.0000
  C   C127      1.0  0.849168  0.4735210000000001  0.9129  1.0000
  C   C128      1.0  0.617526  0.5006409999999999  0.906013  1.0000
  C   C129      1.0  0.61466  0.494375  0.751188  1.0000
  C   C130      1.0  0.61396  0.4134729999999997  0.698235  1.0000
  C   C131      1.0  0.589359  0.41446399999999994  0.62466  1.0000
  C   C132      1.0  0.565771  0.49726399999999993  0.6016079999999999  1.0000
  C   C133      1.0  0.566285  0.578153  0.654293  1.0000
  C   C134      1.0  0.590072  0.5762069999999999  0.728748  1.0000
  C   C135      1.0  0.612139  0.5021400000000003  0.06075399999999998  1.0000
  C   C136      1.0  0.5871060000000002  0.42007799999999995  0.08073700000000006  1.0000
  C   C137      1.0  0.561372  0.4178280000000001  0.15271000000000012  1.0000
  C   C138      1.0  0.559563  0.49845000000000006  0.20559700000000003  1.0000
  C   C139      1.0  0.5839290000000001  0.5811789999999999  0.18556499999999998  1.0000
  C   C140      1.0  0.610295  0.5826229999999999  0.11407900000000004  1.0000
  C   C141      1.0  0.902304  0.4862409999999999  0.21566000000000018  1.0000
  C   C142      1.0  0.9025840000000002  0.4041699999999999  0.1643190000000001  1.0000
  C   C143      1.0  0.878119  0.4026019999999999  0.09067000000000003  1.0000
  C   C144      1.0  0.852088  0.482067  0.06764499999999996  1.0000
  C   C145      1.0  0.8517880000000002  0.5639430000000001  0.11952500000000012  1.0000
  C   C146      1.0  0.877034  0.5664520000000002  0.19224599999999992  1.0000
  C   C147      1.0  0.40463  0.727068  0.21539100000000014  1.0000
  C   C148      1.0  0.403858  0.644782  0.16441700000000004  1.0000
  C   C149      1.0  0.3795020000000001  0.644906  0.09058499999999992  1.0000
  C   C150      1.0  0.354989  0.726461  0.06706499999999994  1.0000
  C   C151      1.0  0.355878  0.808565  0.11866000000000021  1.0000
  C   C152      1.0  0.380728  0.809248  0.19183299999999992  1.0000
  C   C153      1.0  0.1156060000000001  0.7582739999999999  0.7567  1.0000
  C   C154      1.0  0.11348599999999999  0.677421  0.703798  1.0000
  C   C155      1.0  0.08650400000000014  0.6781690000000001  0.633359  1.0000
  C   C156      1.0  0.06190199999999991  0.760729  0.6137520000000001  1.0000
  C   C157      1.0  0.0641830000000001  0.8420209999999999  0.6657139999999999  1.0000
  C   C158      1.0  0.09047800000000007  0.8403210000000002  0.737024  1.0000
  C   C159      1.0  0.906854  0.4833039999999999  0.6128629999999999  1.0000
  C   C160      1.0  0.882146  0.4001950000000001  0.630218  1.0000
  C   C161      1.0  0.855893  0.39598500000000003  0.7018110000000002  1.0000
  C   C162      1.0  0.8547550000000003  0.4736389999999999  0.758278  1.0000
  C   C163      1.0  0.8804940000000002  0.555579  0.741362  1.0000
  C   C164      1.0  0.9058430000000002  0.560964  0.669008  1.0000
  C   C165      1.0  0.11616399999999993  0.7611399999999999  0.06575700000000007  1.0000
  C   C166      1.0  0.0919319999999999  0.6784699999999999  0.08714299999999997  1.0000
  C   C167      1.0  0.06756699999999993  0.675559  0.16074699999999997  1.0000
  C   C168      1.0  0.06624300000000005  0.7561690000000001  0.2136309999999999  1.0000
  C   C169      1.0  0.08959600000000001  0.8396570000000001  0.19181099999999995  1.0000
  C   C170      1.0  0.11479200000000023  0.8417159999999999  0.11890299999999998  1.0000
  C   C171      1.0  0.407842  0.73105  0.6115630000000001  1.0000
  C   C172      1.0  0.383385  0.6479569999999999  0.6299790000000001  1.0000
  C   C173      1.0  0.357143  0.6442380000000001  0.701619  1.0000
  C   C174      1.0  0.3558230000000001  0.7226250000000001  0.7572440000000003  1.0000
  C   C175      1.0  0.3810500000000001  0.8049729999999997  0.739149  1.0000
  C   C176      1.0  0.406347  0.8096879999999999  0.6667129999999999  1.0000
