data_image0
_chemical_formula_structural       O20Al2Sc2H47C89
_chemical_formula_sum              "O20 Al2 Sc2 H47 C89"
_cell_length_a       30.804001
_cell_length_b       6.809
_cell_length_c       15.869
_cell_angle_alpha    90.0
_cell_angle_beta     90.0
_cell_angle_gamma    90.0

_space_group_name_H-M_alt    "P 1"
_space_group_IT_number       1

loop_
  _space_group_symop_operation_xyz
  'x, y, z'

loop_
  _atom_site_type_symbol
  _atom_site_label
  _atom_site_symmetry_multiplicity
  _atom_site_fract_x
  _atom_site_fract_y
  _atom_site_fract_z
  _atom_site_occupancy
  O   O1        1.0  0.4194790000000001  0.9080879999999993  0.492294  1.0000
  O   O2        1.0  0.015762000000000054  0.2232820000000002  0.342171  1.0000
  O   O3        1.0  0.003192000000000084  0.24177299999999935  0.5166360000000001  1.0000
  O   O4        1.0  0.4443960000000001  0.8819049999999997  0.29625499999999994  1.0000
  O   O5        1.0  0.007106000000000058  0.8919059999999995  0.32474500000000006  1.0000
  O   O6        1.0  0.435902  0.22217000000000017  0.525372  1.0000
  O   O7        1.0  0.4202450000000001  0.1780840000000001  0.33774799999999994  1.0000
  O   O8        1.0  0.015489000000000086  0.9158049999999996  0.49565400000000004  1.0000
  O   O9        1.0  0.9273570000000002  0.41595000000000004  0.495671  1.0000
  O   O10       1.0  0.521691  0.677426  0.33713799999999994  1.0000
  O   O11       1.0  0.507249  0.7225369999999999  0.525155  1.0000
  O   O12       1.0  0.9359790000000002  0.39276  0.32437800000000006  1.0000
  O   O13       1.0  0.4976020000000001  0.3810129999999998  0.296119  1.0000
  O   O14       1.0  0.938676  0.742614  0.5163930000000001  1.0000
  O   O15       1.0  0.9262080000000003  0.7233359999999996  0.34231999999999996  1.0000
  O   O16       1.0  0.523648  0.4082089999999998  0.49188300000000007  1.0000
  O   O17       1.0  0.507151  0.0492309999999998  0.429419  1.0000
  O   O18       1.0  0.944365  0.06657999999999964  0.41692700000000005  1.0000
  O   O19       1.0  0.998457  0.5668730000000001  0.41715499999999994  1.0000
  O   O20       1.0  0.4360640000000001  0.5492339999999998  0.429597  1.0000
  Al  Al1       1.0  0.9708130000000001  0.31778999999999996  0.4199010000000001  1.0000
  Al  Al2       1.0  0.9717710000000003  0.8174519999999994  0.42004700000000006  1.0000
  Sc  Sc1       1.0  0.4718900000000001  0.7991659999999996  0.4128099999999999  1.0000
  Sc  Sc2       1.0  0.47085500000000013  0.2982599999999995  0.4129100000000001  1.0000
  H   H1        1.0  0.527293  0.05325199999999963  0.4764250000000001  1.0000
  H   H2        1.0  0.9177270000000002  0.06403399999999948  0.384325  1.0000
  H   H3        1.0  0.024954000000000146  0.5651700000000002  0.38411799999999996  1.0000
  H   H4        1.0  0.41601  0.5531009999999998  0.4767490000000001  1.0000
  H   H5        1.0  0.255143  0.08136799999999987  0.70255  1.0000
  H   H6        1.0  0.17683200000000004  0.040665000000000166  0.13232500000000003  1.0000
  H   H7        1.0  0.175693  0.08966299999999983  0.703619  1.0000
  H   H8        1.0  0.256195  0.031985999999999404  0.13136400000000004  1.0000
  H   H9        1.0  0.7665210000000002  0.5823859999999996  0.703572  1.0000
  H   H10       1.0  0.686171  0.5237029999999994  0.13146100000000005  1.0000
  H   H11       1.0  0.687083  0.574678  0.702717  1.0000
  H   H12       1.0  0.7655600000000002  0.5330469999999998  0.13234900000000005  1.0000
  H   H13       1.0  0.3655540000000001  0.0425749999999998  0.915672  1.0000
  H   H14       1.0  0.06624800000000032  0.07249600000000012  0.919133  1.0000
  H   H15       1.0  0.87604  0.5675459999999997  0.918959  1.0000
  H   H16       1.0  0.576738  0.5372309999999998  0.915851  1.0000
  H   H17       1.0  0.574055  0.2721339999999999  0.03507199999999999  1.0000
  H   H18       1.0  0.525733  0.26652299999999984  0.16155199999999992  1.0000
  H   H19       1.0  0.583004  0.8040169999999995  0.24930800000000009  1.0000
  H   H20       1.0  0.632538  0.8079889999999996  0.12435799999999997  1.0000
  H   H21       1.0  0.9220410000000002  0.29449900000000007  0.17691400000000002  1.0000
  H   H22       1.0  0.878706  0.29817199999999966  0.04424600000000001  1.0000
  H   H23       1.0  0.8175550000000003  0.8364790000000002  0.12278499999999992  1.0000
  H   H24       1.0  0.8630000000000002  0.8381489999999999  0.25273900000000005  1.0000
  H   H25       1.0  0.41601900000000014  0.769143  0.16132900000000006  1.0000
  H   H26       1.0  0.367934  0.7779440000000002  0.03454899999999994  1.0000
  H   H27       1.0  0.310096  0.31435000000000013  0.12468900000000005  1.0000
  H   H28       1.0  0.35931000000000013  0.307156  0.24998699999999996  1.0000
  H   H29       1.0  0.8667640000000002  0.29157199999999994  0.5854520000000001  1.0000
  H   H30       1.0  0.820344  0.2878609999999999  0.71456  1.0000
  H   H31       1.0  0.8771790000000003  0.8357770000000001  0.79346  1.0000
  H   H32       1.0  0.9211370000000002  0.8448709999999999  0.661286  1.0000
  H   H33       1.0  0.355227  0.7858930000000002  0.580643  1.0000
  H   H34       1.0  0.307259  0.783801  0.707255  1.0000
  H   H35       1.0  0.3695530000000001  0.3103690000000001  0.796736  1.0000
  H   H36       1.0  0.416162  0.31516400000000017  0.668317  1.0000
  H   H37       1.0  0.12242800000000002  0.792685  0.715524  1.0000
  H   H38       1.0  0.07625400000000006  0.793593  0.5860540000000001  1.0000
  H   H39       1.0  0.021147999999999945  0.3466520000000002  0.660196  1.0000
  H   H40       1.0  0.06486500000000019  0.34028500000000017  0.792727  1.0000
  H   H41       1.0  0.06423100000000015  0.8018930000000002  0.044116000000000044  1.0000
  H   H42       1.0  0.021117000000000056  0.7951619999999999  0.177103  1.0000
  H   H43       1.0  0.07934300000000018  0.3402889999999994  0.25361999999999996  1.0000
  H   H44       1.0  0.12458100000000003  0.3416030000000001  0.1233439999999999  1.0000
  H   H45       1.0  0.634736  0.27847199999999983  0.707792  1.0000
  H   H46       1.0  0.5872000000000003  0.283369  0.5804119999999999  1.0000
  H   H47       1.0  0.5272670000000003  0.8151860000000002  0.66764  1.0000
  C   C1        1.0  0.5734970000000003  0.8077719999999994  0.796714  1.0000
  C   C2        1.0  0.4165430000000001  0.05967499999999992  0.5395650000000001  1.0000
  C   C3        1.0  0.02147300000000008  0.06098200000000009  0.3029869999999999  1.0000
  C   C4        1.0  0.019616000000000078  0.07601699999999934  0.536719  1.0000
  C   C5        1.0  0.4200120000000001  0.03268100000000018  0.28682399999999997  1.0000
  C   C6        1.0  0.9228210000000002  0.5759159999999994  0.536719  1.0000
  C   C7        1.0  0.5219640000000002  0.5316329999999998  0.286392  1.0000
  C   C8        1.0  0.5265410000000003  0.559793  0.5391459999999999  1.0000
  C   C9        1.0  0.9211130000000002  0.5610669999999995  0.3027519999999999  1.0000
  C   C10       1.0  0.23774600000000007  0.0713499999999998  0.761998  1.0000
  C   C11       1.0  0.19421100000000005  0.050113000000000074  0.07287500000000002  1.0000
  C   C12       1.0  0.19337900000000002  0.07600600000000002  0.762607  1.0000
  C   C13       1.0  0.23856500000000005  0.04535799999999979  0.07232499999999997  1.0000
  C   C14       1.0  0.748879  0.5688459999999997  0.762606  1.0000
  C   C15       1.0  0.7038030000000002  0.5372910000000002  0.07241199999999992  1.0000
  C   C16       1.0  0.7045170000000002  0.5644779999999994  0.762109  1.0000
  C   C17       1.0  0.748165  0.5424199999999995  0.07289799999999991  1.0000
  C   C18       1.0  0.308312  0.04829099999999942  0.838762  1.0000
  C   C19       1.0  0.12363600000000002  0.07029499999999977  0.995944  1.0000
  C   C20       1.0  0.123185  0.06678099999999976  0.841201  1.0000
  C   C21       1.0  0.308745  0.05070899999999989  0.993641  1.0000
  C   C22       1.0  0.8191180000000002  0.5605799999999994  0.841057  1.0000
  C   C23       1.0  0.633595  0.5436329999999998  0.993831  1.0000
  C   C24       1.0  0.634  0.5423529999999999  0.839035  1.0000
  C   C25       1.0  0.8187220000000002  0.5639949999999994  0.995847  1.0000
  C   C26       1.0  0.262245  0.05636099999999988  0.83837  1.0000
  C   C27       1.0  0.169727  0.06403200000000009  0.996438  1.0000
  C   C28       1.0  0.16928  0.06612399999999985  0.839679  1.0000
  C   C29       1.0  0.2626790000000001  0.054152999999999896  0.995304  1.0000
  C   C30       1.0  0.7730220000000002  0.5590089999999996  0.8396150000000002  1.0000
  C   C31       1.0  0.6796650000000002  0.5463930000000001  0.995421  1.0000
  C   C32       1.0  0.680065  0.5495739999999998  0.838536  1.0000
  C   C33       1.0  0.7726330000000002  0.5567379999999997  0.996422  1.0000
  C   C34       1.0  0.23927600000000004  0.05797300000000005  0.917137  1.0000
  C   C35       1.0  0.19273200000000004  0.06294900000000014  0.917774  1.0000
  C   C36       1.0  0.7496080000000003  0.5554779999999999  0.917773  1.0000
  C   C37       1.0  0.7030620000000002  0.5504419999999994  0.917238  1.0000
  C   C38       1.0  0.3302290000000001  0.04668899999999976  0.915972  1.0000
  C   C39       1.0  0.10159100000000022  0.0701839999999998  0.918805  1.0000
  C   C40       1.0  0.8407050000000003  0.5643760000000002  0.918652  1.0000
  C   C41       1.0  0.612069  0.5405099999999994  0.9162  1.0000
  C   C42       1.0  0.607534  0.5435479999999994  0.76088  1.0000
  C   C43       1.0  0.611282  0.3962449999999995  0.69901  1.0000
  C   C44       1.0  0.5846510000000003  0.39828799999999953  0.6277759999999999  1.0000
  C   C45       1.0  0.554458  0.5502099999999994  0.6159760000000001  1.0000
  C   C46       1.0  0.550691  0.697854  0.6773450000000001  1.0000
  C   C47       1.0  0.576538  0.6930939999999999  0.749318  1.0000
  C   C48       1.0  0.606674  0.5399309999999997  0.07125399999999993  1.0000
  C   C49       1.0  0.576067  0.388312  0.08200300000000005  1.0000
  C   C50       1.0  0.549066  0.3845269999999998  0.15233600000000025  1.0000
  C   C51       1.0  0.551607  0.5349590000000002  0.212688  1.0000
  C   C52       1.0  0.5818090000000002  0.6875619999999993  0.20240199999999997  1.0000
  C   C53       1.0  0.6093840000000003  0.6888499999999995  0.13268799999999992  1.0000
  C   C54       1.0  0.8949460000000002  0.5652529999999998  0.22353599999999996  1.0000
  C   C55       1.0  0.8993550000000002  0.41329499999999975  0.16427400000000003  1.0000
  C   C56       1.0  0.875028  0.41570600000000013  0.09016200000000008  1.0000
  C   C57       1.0  0.8446980000000002  0.5661179999999999  0.07472400000000001  1.0000
  C   C58       1.0  0.840457  0.7179000000000002  0.1344510000000001  1.0000
  C   C59       1.0  0.865807  0.7192150000000002  0.20734000000000008  1.0000
  C   C60       1.0  0.3904180000000001  0.037457999999999984  0.2130240000000001  1.0000
  C   C61       1.0  0.39286900000000013  0.8879009999999997  0.15228200000000003  1.0000
  C   C62       1.0  0.36602900000000005  0.8935729999999998  0.08173300000000006  1.0000
  C   C63       1.0  0.3356570000000001  0.04617499999999941  0.07109199999999993  1.0000
  C   C64       1.0  0.33306000000000013  0.1943600000000001  0.132876  1.0000
  C   C65       1.0  0.3604600000000001  0.1911419999999997  0.2028509999999999  1.0000
  C   C66       1.0  0.09695600000000026  0.06714699999999985  0.76272  1.0000
  C   C67       1.0  0.10017900000000024  0.9136699999999996  0.703534  1.0000
  C   C68       1.0  0.07459299999999991  0.9139409999999993  0.6310039999999999  1.0000
  C   C69       1.0  0.04634399999999995  0.07136100000000001  0.614968  1.0000
  C   C70       1.0  0.04305800000000027  0.22529099999999988  0.6734579999999999  1.0000
  C   C71       1.0  0.06759300000000024  0.22130800000000003  0.747246  1.0000
  C   C72       1.0  0.896218  0.5697259999999997  0.6151260000000001  1.0000
  C   C73       1.0  0.8681580000000002  0.41138599999999936  0.6307119999999999  1.0000
  C   C74       1.0  0.842454  0.4095780000000002  0.703083  1.0000
  C   C75       1.0  0.8453970000000002  0.5624039999999999  0.762638  1.0000
  C   C76       1.0  0.8746490000000001  0.7173489999999995  0.7476870000000002  1.0000
  C   C77       1.0  0.8993020000000003  0.7229260000000002  0.67404  1.0000
  C   C78       1.0  0.09774100000000008  0.07093999999999934  0.07490799999999997  1.0000
  C   C79       1.0  0.067747  0.9191109999999999  0.09022299999999994  1.0000
  C   C80       1.0  0.04356800000000028  0.9149060000000001  0.16449200000000008  1.0000
  C   C81       1.0  0.04777700000000019  0.06652099999999983  0.223962  1.0000
  C   C82       1.0  0.07664000000000004  0.2217129999999998  0.207986  1.0000
  C   C83       1.0  0.10185200000000005  0.22218299999999933  0.13491699999999995  1.0000
  C   C84       1.0  0.388496  0.05126799999999986  0.616293  1.0000
  C   C85       1.0  0.3578980000000001  0.900925  0.627932  1.0000
  C   C86       1.0  0.3309980000000001  0.9005599999999995  0.69882  1.0000
  C   C87       1.0  0.33487700000000004  0.04792500000000022  0.760668  1.0000
  C   C88       1.0  0.3663300000000001  0.19569899999999985  0.749343  1.0000
  C   C89       1.0  0.3924280000000001  0.19888899999999987  0.6776819999999999  1.0000
