data_image0
_chemical_formula_structural       Ca2H8C16O12
_chemical_formula_sum              "Ca2 H8 C16 O12"
_cell_length_a       9.665
_cell_length_b       10.2569
_cell_length_c       10.3455
_cell_angle_alpha    119.717
_cell_angle_beta     94.5181
_cell_angle_gamma    90.0

_space_group_name_H-M_alt    "P 1"
_space_group_IT_number       1

loop_
  _space_group_symop_operation_xyz
  'x, y, z'

loop_
  _atom_site_type_symbol
  _atom_site_label
  _atom_site_symmetry_multiplicity
  _atom_site_fract_x
  _atom_site_fract_y
  _atom_site_fract_z
  _atom_site_occupancy
  Ca  Ca1       1.0  0.75  0.07825  0.0  1.0000
  Ca  Ca2       1.0  0.25  0.92175  0.0  1.0000
  H   H1        1.0  0.7413  0.04509999999999999  0.3242  1.0000
  H   H2        1.0  0.1889  0.9683  0.3652  1.0000
  H   H3        1.0  0.7587  0.7209  0.6758  1.0000
  H   H4        1.0  0.3111  0.6030999999999999  0.6348  1.0000
  H   H5        1.0  0.2587  0.9549  0.6758  1.0000
  H   H6        1.0  0.8111  0.03170000000000002  0.6348  1.0000
  H   H7        1.0  0.2413  0.2791  0.3242  1.0000
  H   H8        1.0  0.6889  0.3969  0.3652  1.0000
  C   C1        1.0  0.9708  0.004469999999999985  0.22034  1.0000
  C   C2        1.0  0.9842000000000001  0.003410000000000007  0.36602  1.0000
  C   C3        1.0  0.8694  0.023759999999999993  0.44852  1.0000
  C   C4        1.0  0.1127  0.9807499999999999  0.4193  1.0000
  C   C5        1.0  0.5292  0.7841299999999999  0.77966  1.0000
  C   C6        1.0  0.5157999999999999  0.63739  0.63398  1.0000
  C   C7        1.0  0.6306  0.57524  0.55148  1.0000
  C   C8        1.0  0.3873  0.56145  0.5807  1.0000
  C   C9        1.0  0.0292  0.99553  0.77966  1.0000
  C   C10       1.0  0.015799999999999995  0.9965899999999999  0.63398  1.0000
  C   C11       1.0  0.1306  0.97624  0.55148  1.0000
  C   C12       1.0  0.8873  0.01925000000000003  0.5807  1.0000
  C   C13       1.0  0.4708  0.21586999999999998  0.22034  1.0000
  C   C14       1.0  0.4842000000000001  0.36261  0.36602  1.0000
  C   C15       1.0  0.3694  0.42475999999999997  0.44852  1.0000
  C   C16       1.0  0.6127  0.43855  0.4193  1.0000
  O   O1        1.0  0.849  0.012489999999999994  0.17058  1.0000
  O   O2        1.0  0.7407  0.049840000000000044  0.40568  1.0000
  O   O3        1.0  0.07584000000000002  0.9937799999999999  0.15616  1.0000
  O   O4        1.0  0.651  0.8419099999999999  0.82942  1.0000
  O   O5        1.0  0.7593  0.6441599999999998  0.59432  1.0000
  O   O6        1.0  0.42416  0.8376199999999999  0.84384  1.0000
  O   O7        1.0  0.151  0.9875099999999999  0.82942  1.0000
  O   O8        1.0  0.2593  0.95016  0.59432  1.0000
  O   O9        1.0  0.92416  0.0062200000000000545  0.84384  1.0000
  O   O10       1.0  0.349  0.15809  0.17058  1.0000
  O   O11       1.0  0.2407  0.35584  0.40568  1.0000
  O   O12       1.0  0.57584  0.16238  0.15616  1.0000
