data_image0
_chemical_formula_structural       Ca4H16C32O16
_chemical_formula_sum              "Ca4 H16 C32 O16"
_cell_length_a       6.7299
_cell_length_b       10.9375
_cell_length_c       18.584
_cell_angle_alpha    90.0
_cell_angle_beta     90.0
_cell_angle_gamma    90.0

_space_group_name_H-M_alt    "P 1"
_space_group_IT_number       1

loop_
  _space_group_symop_operation_xyz
  'x, y, z'

loop_
  _atom_site_type_symbol
  _atom_site_label
  _atom_site_symmetry_multiplicity
  _atom_site_fract_x
  _atom_site_fract_y
  _atom_site_fract_z
  _atom_site_occupancy
  Ca  Ca1       1.0  0.25  0.59047  0.01348  1.0000
  Ca  Ca2       1.0  0.75  0.90953  0.51348  1.0000
  Ca  Ca3       1.0  0.75  0.40953  0.9865199999999998  1.0000
  Ca  Ca4       1.0  0.25  0.09047  0.48651999999999995  1.0000
  H   H1        1.0  0.5437  0.7437999999999999  0.7822  1.0000
  H   H2        1.0  0.5463  0.815  0.6659  1.0000
  H   H3        1.0  0.45629999999999993  0.7562000000000001  0.2822  1.0000
  H   H4        1.0  0.4537  0.685  0.1659  1.0000
  H   H5        1.0  0.0437  0.2562  0.2178  1.0000
  H   H6        1.0  0.0463  0.185  0.3341  1.0000
  H   H7        1.0  0.9563  0.2438  0.7178  1.0000
  H   H8        1.0  0.9537  0.315  0.8341  1.0000
  H   H9        1.0  0.45629999999999993  0.2562  0.2178  1.0000
  H   H10       1.0  0.4537  0.185  0.3341  1.0000
  H   H11       1.0  0.5437  0.2438  0.7178  1.0000
  H   H12       1.0  0.5463  0.315  0.8341  1.0000
  H   H13       1.0  0.9563  0.7437999999999999  0.7822  1.0000
  H   H14       1.0  0.9537  0.815  0.6659  1.0000
  H   H15       1.0  0.0437  0.7562000000000001  0.2822  1.0000
  H   H16       1.0  0.0463  0.685  0.1659  1.0000
  C   C1        1.0  0.424  0.7585999999999999  0.7586999999999999  1.0000
  C   C2        1.0  0.4257  0.8023  0.6892  1.0000
  C   C3        1.0  0.576  0.7414000000000001  0.2587  1.0000
  C   C4        1.0  0.5743  0.6977  0.1892  1.0000
  C   C5        1.0  0.924  0.24139999999999998  0.2413  1.0000
  C   C6        1.0  0.9257  0.1977  0.3108  1.0000
  C   C7        1.0  0.076  0.2586  0.7413  1.0000
  C   C8        1.0  0.0743  0.3023  0.8108  1.0000
  C   C9        1.0  0.576  0.24139999999999998  0.2413  1.0000
  C   C10       1.0  0.5743  0.1977  0.3108  1.0000
  C   C11       1.0  0.424  0.2586  0.7413  1.0000
  C   C12       1.0  0.4257  0.3023  0.8108  1.0000
  C   C13       1.0  0.076  0.7585999999999999  0.7586999999999999  1.0000
  C   C14       1.0  0.0743  0.8023  0.6892  1.0000
  C   C15       1.0  0.924  0.7414000000000001  0.2587  1.0000
  C   C16       1.0  0.9257  0.6977  0.1892  1.0000
  C   C17       1.0  0.25  0.6937  0.8714  1.0000
  C   C18       1.0  0.25  0.7366  0.7937  1.0000
  C   C19       1.0  0.25  0.8274000000000001  0.6536  1.0000
  C   C20       1.0  0.25  0.8831  0.5807  1.0000
  C   C21       1.0  0.75  0.8062999999999999  0.3714  1.0000
  C   C22       1.0  0.75  0.7634  0.2937  1.0000
  C   C23       1.0  0.75  0.6726  0.1536  1.0000
  C   C24       1.0  0.75  0.6169  0.08069999999999997  1.0000
  C   C25       1.0  0.75  0.3063  0.1286  1.0000
  C   C26       1.0  0.75  0.2634  0.2063  1.0000
  C   C27       1.0  0.75  0.1726  0.3464  1.0000
  C   C28       1.0  0.75  0.1169  0.4193  1.0000
  C   C29       1.0  0.25  0.1937  0.6286  1.0000
  C   C30       1.0  0.25  0.2366  0.7063  1.0000
  C   C31       1.0  0.25  0.3274  0.8464  1.0000
  C   C32       1.0  0.25  0.3831  0.9193  1.0000
  O   O1        1.0  0.0881  0.6784  0.90293  1.0000
  O   O2        1.0  0.0877  0.9098  0.55109  1.0000
  O   O3        1.0  0.9119  0.8216  0.40292999999999995  1.0000
  O   O4        1.0  0.9123  0.5902  0.051089999999999997  1.0000
  O   O5        1.0  0.5881  0.3216  0.09707  1.0000
  O   O6        1.0  0.5877  0.0902  0.44891  1.0000
  O   O7        1.0  0.4119  0.1784  0.59707  1.0000
  O   O8        1.0  0.4123  0.4098  0.94891  1.0000
  O   O9        1.0  0.9119  0.3216  0.09707  1.0000
  O   O10       1.0  0.9123  0.0902  0.44891  1.0000
  O   O11       1.0  0.0881  0.1784  0.59707  1.0000
  O   O12       1.0  0.0877  0.4098  0.94891  1.0000
  O   O13       1.0  0.4119  0.6784  0.90293  1.0000
  O   O14       1.0  0.4123  0.9098  0.55109  1.0000
  O   O15       1.0  0.5881  0.8216  0.40292999999999995  1.0000
  O   O16       1.0  0.5877  0.5902  0.051089999999999997  1.0000
