data_image0
_chemical_formula_structural       Na8Zn4H64C112S8O48
_chemical_formula_sum              "Na8 Zn4 H64 C112 S8 O48"
_cell_length_a       25.91213138
_cell_length_b       4.77660355
_cell_length_c       26.420020279999996
_cell_angle_alpha    90.00013970000002
_cell_angle_beta     124.99441583000001
_cell_angle_gamma    90.00017827

_symmetry_space_group_name_H-M    'P 1'
_symmetry_Int_Tables_number       1

loop_
  _symmetry_equiv_pos_as_xyz
  'x,y,z'

loop_
  _atom_site_type_symbol
  _atom_site_label
  _atom_site_symmetry_multiplicity
  _atom_site_fract_x
  _atom_site_fract_y
  _atom_site_fract_z
  _atom_site_occupancy
  Na  Na1       1.0  0.63870528  0.26781954  0.4569032499999999  1.0000
  Na  Na2       1.0  0.1916337  0.76458745  0.42203988  1.0000
  Na  Na3       1.0  0.361292  0.76782793  0.04309284  1.0000
  Na  Na4       1.0  0.8083688700000001  0.26459014  0.07796179  1.0000
  Na  Na5       1.0  0.3612897  0.73217959  0.54309441  1.0000
  Na  Na6       1.0  0.80836497  0.23542535  0.57796133  1.0000
  Na  Na7       1.0  0.63870695  0.23217657  0.9569078500000001  1.0000
  Na  Na8       1.0  0.1916332  0.73540569  0.9220392499999999  1.0000
  Zn  Zn1       1.0  0.23947113  0.22528561  0.51562418  1.0000
  Zn  Zn2       1.0  0.76052847  0.7252934  0.98437732  1.0000
  Zn  Zn3       1.0  0.7605289000000002  0.77472015  0.48437836  1.0000
  Zn  Zn4       1.0  0.23947022  0.27470628  0.0156219  1.0000
  H   H1        1.0  0.15453829999999993  0.16435173  0.55152482  1.0000
  H   H2        1.0  0.13053214  0.36571776  0.62352811  1.0000
  H   H3        1.0  0.23823976000000008  0.70727233  0.7534475100000001  1.0000
  H   H4        1.0  0.26442114000000005  0.51237876  0.68240578  1.0000
  H   H5        1.0  0.03906721000000002  0.37027058  0.63593151  1.0000
  H   H6        1.0  0.9299625100000002  0.16546114  0.58306476  1.0000
  H   H7        1.0  0.002181879999999935  0.51557236  0.71944773  1.0000
  H   H8        1.0  0.11156607000000004  0.70995691  0.77076597  1.0000
  H   H9        1.0  0.2943818100000001  0.71422815  0.38828287000000006  1.0000
  H   H10       1.0  0.36852963000000005  0.82695256  0.3607249  1.0000
  H   H11       1.0  0.4759144300000001  0.08831308  0.45665015  1.0000
  H   H12       1.0  0.40131978  0.9666609000000002  0.48241083  1.0000
  H   H13       1.0  0.3922351100000001  0.8419908100000001  0.28353331  1.0000
  H   H14       1.0  0.34896773  0.7407263  0.17311537  1.0000
  H   H15       1.0  0.4605111100000001  0.99509749  0.22714588  1.0000
  H   H16       1.0  0.50498747  0.09086291  0.33788703  1.0000
  H   H17       1.0  0.8454596600000002  0.66434662  0.94847173  1.0000
  H   H18       1.0  0.86946923  0.86569439  0.8764685599999998  1.0000
  H   H19       1.0  0.7617626400000002  0.20722432  0.7465527400000002  1.0000
  H   H20       1.0  0.73558193  0.01234549  0.81759593  1.0000
  H   H21       1.0  0.9609324800000002  0.87025045  0.86406357  1.0000
  H   H22       1.0  0.07003721000000006  0.66545617  0.91692977  1.0000
  H   H23       1.0  0.99781925  0.01555152  0.78054924  1.0000
  H   H24       1.0  0.8884346900000002  0.20992028999999998  0.72923043  1.0000
  H   H25       1.0  0.70561969  0.21423284000000004  0.11171898  1.0000
  H   H26       1.0  0.63146927  0.32694404  0.13927474  1.0000
  H   H27       1.0  0.52408772  0.5882954  0.04334763  1.0000
  H   H28       1.0  0.59868485  0.46664931  0.01759128  1.0000
  H   H29       1.0  0.60776132  0.34198815  0.2164616  1.0000
  H   H30       1.0  0.65102945  0.24073378000000004  0.32687991  1.0000
  H   H31       1.0  0.53948675  0.49509978  0.27285104  1.0000
  H   H32       1.0  0.49501109000000004  0.59084761  0.16211018  1.0000
  H   H33       1.0  0.8454617999999999  0.83566182  0.44847638999999995  1.0000
  H   H34       1.0  0.8694703500000003  0.63429287  0.37647448000000006  1.0000
  H   H35       1.0  0.7617621900000001  0.29274149  0.24655450000000004  1.0000
  H   H36       1.0  0.7355811  0.487637  0.31759588  1.0000
  H   H37       1.0  0.96093308  0.6297305000000001  0.36406918  1.0000
  H   H38       1.0  0.07003736  0.83453765  0.41693742999999994  1.0000
  H   H39       1.0  0.9978223200000003  0.48442581  0.28055544  1.0000
  H   H40       1.0  0.8884361000000002  0.29005906  0.22923681000000004  1.0000
  H   H41       1.0  0.7056166200000001  0.2857797100000001  0.61171659  1.0000
  H   H42       1.0  0.6314681  0.17305683  0.63927429  1.0000
  H   H43       1.0  0.52408319  0.91169152  0.54334836  1.0000
  H   H44       1.0  0.59867823  0.03334845  0.51758887  1.0000
  H   H45       1.0  0.60776318  0.15801384  0.71646594  1.0000
  H   H46       1.0  0.6510308200000001  0.25927544  0.82688355  1.0000
  H   H47       1.0  0.53948809  0.00490997  0.77285338  1.0000
  H   H48       1.0  0.49501175000000003  0.90914347  0.66211267  1.0000
  H   H49       1.0  0.15453379000000006  0.33564303  0.05152412  1.0000
  H   H50       1.0  0.13052845000000002  0.13428927  0.1235291  1.0000
  H   H51       1.0  0.2382379  0.792749  0.25344639  1.0000
  H   H52       1.0  0.26441622  0.98763848  0.18240179  1.0000
  H   H53       1.0  0.03906774000000002  0.12972808  0.13593323  1.0000
  H   H54       1.0  0.9299623099999998  0.33453203000000004  0.08306367  1.0000
  H   H55       1.0  0.002178870000000002  0.9844307500000001  0.21944603  1.0000
  H   H56       1.0  0.11156437  0.7900571  0.27076661  1.0000
  H   H57       1.0  0.2943822000000001  0.7857734  0.8882833300000001  1.0000
  H   H58       1.0  0.3685300000000001  0.67306752  0.86072428  1.0000
  H   H59       1.0  0.47591366  0.41170903  0.95665305  1.0000
  H   H60       1.0  0.40131759  0.53335554  0.98241082  1.0000
  H   H61       1.0  0.39224056  0.65801668  0.7835399  1.0000
  H   H62       1.0  0.34897204000000004  0.75927199  0.67312174  1.0000
  H   H63       1.0  0.46051443000000003  0.50491019  0.72715117  1.0000
  H   H64       1.0  0.5049911700000002  0.40915403  0.83789201  1.0000
  C   C1        1.0  0.22127959000000005  0.69717015  0.56783653  1.0000
  C   C2        1.0  0.20948265  0.82489612  0.6117374  1.0000
  C   C3        1.0  0.17413207  0.0694498  0.59647262  1.0000
  C   C4        1.0  0.16164677000000002  0.18627243  0.63718418  1.0000
  C   C5        1.0  0.18343783000000005  0.04272227  0.69243315  1.0000
  C   C6        1.0  0.22107383  0.80692798  0.70952525  1.0000
  C   C7        1.0  0.23327826  0.69153647  0.66887363  1.0000
  C   C8        1.0  0.08071096000000001  0.04521867  0.7059942  1.0000
  C   C9        1.0  0.030342280000000037  0.18939584  0.65497241  1.0000
  C   C10       1.0  0.9699201100000002  0.07033233  0.62468553  1.0000
  C   C11       1.0  0.9605679900000003  0.82342972  0.64650737  1.0000
  C   C12       1.0  0.011503479999999962  0.69241863  0.70001571  1.0000
  C   C13       1.0  0.07151634000000003  0.80808396  0.73002157  1.0000
  C   C14       1.0  0.8978168800000002  0.6826582  0.61451558  1.0000
  C   C15       1.0  0.29190492000000007  0.24782568000000002  0.44581012  1.0000
  C   C16       1.0  0.3393160100000001  0.3237688  0.43253261  1.0000
  C   C17       1.0  0.3324262500000001  0.56890654  0.40093957  1.0000
  C   C18       1.0  0.3763149700000001  0.64348509  0.38856281  1.0000
  C   C19       1.0  0.42830310999999993  0.46625287  0.41008048999999996  1.0000
  C   C20       1.0  0.43648273  0.22525853  0.44280935  1.0000
  C   C21       1.0  0.39154743  0.14836491000000002  0.45348617  1.0000
  C   C22       1.0  0.4521326200000001  0.47172475  0.316864  1.0000
  C   C23       1.0  0.40747218000000013  0.65799586  0.27130459  1.0000
  C   C24       1.0  0.38075341000000007  0.59373367  0.20938493  1.0000
  C   C25       1.0  0.39781921000000003  0.35081786  0.19350644  1.0000
  C   C26       1.0  0.4439181  0.17154826  0.2399112  1.0000
  C   C27       1.0  0.47126646  0.23390721  0.30192268  1.0000
  C   C28       1.0  0.36979654  0.27964966  0.12745515  1.0000
  C   C29       1.0  0.7787208900000002  0.19716872000000002  0.9321627700000001  1.0000
  C   C30       1.0  0.7905181700000004  0.32487918  0.8882613300000001  1.0000
  C   C31       1.0  0.8258680800000002  0.56943551  0.9035248600000001  1.0000
  C   C32       1.0  0.83835455  0.68624984  0.86281373  1.0000
  C   C33       1.0  0.81656346  0.5426886700000001  0.80756626  1.0000
  C   C34       1.0  0.7789280900000001  0.30689043  0.79047433  1.0000
  C   C35       1.0  0.76672363  0.19150721  0.83112638  1.0000
  C   C36       1.0  0.91928781  0.54519193  0.79400104  1.0000
  C   C37       1.0  0.96965669  0.68937619  0.84502182  1.0000
  C   C38       1.0  0.030079860000000094  0.57031943  0.87530915  1.0000
  C   C39       1.0  0.03943371  0.32341426  0.85348906  1.0000
  C   C40       1.0  0.9884971100000002  0.19240155  0.79998046  1.0000
  C   C41       1.0  0.9284832300000002  0.30805646  0.76997453  1.0000
  C   C42       1.0  0.10218472  0.18264825  0.88548163  1.0000
  C   C43       1.0  0.7080993700000001  0.7478426  0.05419237  1.0000
  C   C44       1.0  0.66068755  0.8237709000000001  0.06746887  1.0000
  C   C45       1.0  0.6675755900000001  0.06890545  0.09906229  1.0000
  C   C46       1.0  0.6236855500000001  0.14347619  0.11143778999999998  1.0000
  C   C47       1.0  0.5716975900000001  0.9662386200000002  0.0899184  1.0000
  C   C48       1.0  0.56352031  0.72524356  0.057190269999999994  1.0000
  C   C49       1.0  0.6084572500000001  0.64835625  0.04651517  1.0000
  C   C50       1.0  0.54786545  0.97171647  0.18313218  1.0000
  C   C51       1.0  0.59252498  0.15799483  0.22869140999999998  1.0000
  C   C52       1.0  0.61924439  0.09373583  0.29061119  1.0000
  C   C53       1.0  0.60217971  0.8508170900000002  0.30648985  1.0000
  C   C54       1.0  0.55607989  0.67154669  0.26008531  1.0000
  C   C55       1.0  0.5287314500000001  0.73389927  0.19807379000000003  1.0000
  C   C56       1.0  0.63020454  0.7796461  0.37254156  1.0000
  C   C57       1.0  0.77872441  0.3028347  0.43216653000000005  1.0000
  C   C58       1.0  0.79051953  0.17511508  0.38826391  1.0000
  C   C59       1.0  0.82586978  0.9305610800000002  0.4035289  1.0000
  C   C60       1.0  0.8383551700000001  0.81373651  0.36281793  1.0000
  C   C61       1.0  0.81656333  0.9572876699999999  0.30756907  1.0000
  C   C62       1.0  0.7789282  0.19308552  0.29047667  1.0000
  C   C63       1.0  0.7667239100000001  0.30847843  0.33112812  1.0000
  C   C64       1.0  0.91928984  0.9547874200000002  0.29400693  1.0000
  C   C65       1.0  0.9696579500000002  0.8106072  0.3450287  1.0000
  C   C66       1.0  0.030080519999999996  0.9296671800000001  0.37531615  1.0000
  C   C67       1.0  0.03943396999999999  0.17656944  0.35349531  1.0000
  C   C68       1.0  0.9884991100000002  0.3075801  0.29998645  1.0000
  C   C69       1.0  0.9284854400000001  0.19192176  0.26998013  1.0000
  C   C70       1.0  0.10218457000000006  0.31734055  0.38548797  1.0000
  C   C71       1.0  0.7080931000000003  0.7521683300000002  0.5541888  1.0000
  C   C72       1.0  0.6606814700000002  0.67623381  0.56746558  1.0000
  C   C73       1.0  0.6675712800000002  0.43109779  0.59905916  1.0000
  C   C74       1.0  0.6236829200000003  0.35652291  0.61143665  1.0000
  C   C75       1.0  0.57169473  0.53375341  0.58991811  1.0000
  C   C76       1.0  0.56351531  0.77474852  0.55718963  1.0000
  C   C77       1.0  0.6084504  0.8516408600000002  0.5465125  1.0000
  C   C78       1.0  0.54786577  0.52828033  0.68313517  1.0000
  C   C79       1.0  0.59252605  0.34200898  0.72869436  1.0000
  C   C80       1.0  0.61924467  0.40626837  0.79061415  1.0000
  C   C81       1.0  0.60217912  0.64918464  0.80649289  1.0000
  C   C82       1.0  0.55608054  0.82845627  0.7600880899999999  1.0000
  C   C83       1.0  0.52873214  0.7660976  0.69807666  1.0000
  C   C84       1.0  0.6302020000000002  0.7203538400000001  0.8725443099999999  1.0000
  C   C85       1.0  0.22127514000000006  0.80282571  0.06783405  1.0000
  C   C86       1.0  0.20947861000000007  0.67510879  0.11173564000000001  1.0000
  C   C87       1.0  0.17412838  0.43055251000000005  0.09647186000000002  1.0000
  C   C88       1.0  0.16164378  0.31373245  0.13718411  1.0000
  C   C89       1.0  0.18343638  0.45728697  0.19243295  1.0000
  C   C90       1.0  0.22107141000000005  0.69308661  0.20952414  1.0000
  C   C91       1.0  0.2332748  0.8084753300000002  0.16887152  1.0000
  C   C92       1.0  0.08071066000000003  0.45478683  0.20599518  1.0000
  C   C93       1.0  0.03034238999999999  0.31060549  0.15497332  1.0000
  C   C94       1.0  0.9699194  0.4296640400000001  0.12468528  1.0000
  C   C95       1.0  0.96056628  0.67656855  0.14650627  1.0000
  C   C96       1.0  0.011501990000000021  0.80758168  0.20001542000000003  1.0000
  C   C97       1.0  0.07151538  0.69192198  0.23002227  1.0000
  C   C98       1.0  0.8978162100000003  0.8173451  0.11451349000000001  1.0000
  C   C99       1.0  0.29190404000000014  0.25215731  0.9458112500000001  1.0000
  C   C100      1.0  0.33931575  0.17623028  0.9325348799999998  1.0000
  C   C101      1.0  0.33242685000000005  0.93109714  0.9009407500000001  1.0000
  C   C102      1.0  0.37631605  0.85652766  0.88856414  1.0000
  C   C103      1.0  0.42830360000000006  0.03376443  0.91008291  1.0000
  C   C104      1.0  0.43648246  0.27475756  0.94281188  1.0000
  C   C105      1.0  0.3915458800000001  0.35164567  0.95348724  1.0000
  C   C106      1.0  0.45213679  0.02828631  0.81686922  1.0000
  C   C107      1.0  0.4074768899999999  0.84201061  0.7713101499999999  1.0000
  C   C108      1.0  0.3807576000000001  0.9062695900000001  0.70939035  1.0000
  C   C109      1.0  0.39782229000000013  0.14918894  0.69351173  1.0000
  C   C110      1.0  0.44392203000000013  0.32845874  0.73991665  1.0000
  C   C111      1.0  0.4712708200000001  0.26610376  0.8019281400000001  1.0000
  C   C112      1.0  0.36979665  0.22036928  0.62746002  1.0000
  S   S1        1.0  0.15901424000000006  0.16853817000000001  0.7398734  1.0000
  S   S2        1.0  0.48467933000000013  0.5591742  0.39505365000000003  1.0000
  S   S3        1.0  0.8409838100000001  0.66850944  0.7601236599999999  1.0000
  S   S4        1.0  0.51531856  0.05916072  0.10494113  1.0000
  S   S5        1.0  0.84098611  0.83146778  0.26012865  1.0000
  S   S6        1.0  0.51531879  0.44083114  0.60494514  1.0000
  S   S7        1.0  0.15901370000000006  0.33146825  0.23987372  1.0000
  S   S8        1.0  0.48468198999999995  0.94084214  0.8950595299999999  1.0000
  O   O1        1.0  0.20566462  0.82260013  0.51835163  1.0000
  O   O2        1.0  0.24620413  0.45299925  0.58224685  1.0000
  O   O3        1.0  0.8952969500000002  0.45885348  0.63796165  1.0000
  O   O4        1.0  0.85098094  0.80283476  0.56529667  1.0000
  O   O5        1.0  0.20025054000000012  0.05860394000000001  0.80186327  1.0000
  O   O6        1.0  0.15295295  0.46898220000000007  0.72910717  1.0000
  O   O7        1.0  0.28330337  0.42479234000000005  0.47768443  1.0000
  O   O8        1.0  0.48458013000000005  0.8626491999999999  0.39464792  1.0000
  O   O9        1.0  0.54303449  0.40892008  0.4376703  1.0000
  O   O10       1.0  0.32781011  0.45175302999999994  0.08578056  1.0000
  O   O11       1.0  0.3894307300000001  0.06272929  0.11729056000000002  1.0000
  O   O12       1.0  0.26485385000000006  0.01634095  0.42730983000000006  1.0000
  O   O13       1.0  0.79433765  0.32260884  0.98164725  1.0000
  O   O14       1.0  0.75379534  0.95299893  0.91775373  1.0000
  O   O15       1.0  0.10470291000000004  0.9588343900000001  0.86203626  1.0000
  O   O16       1.0  0.14901968000000015  0.30283849  0.9346996400000002  1.0000
  O   O17       1.0  0.79974394  0.55855964  0.69813448  1.0000
  O   O18       1.0  0.8470466900000002  0.96895549  0.77088955  1.0000
  O   O19       1.0  0.7166993000000002  0.92481473  0.02231786  1.0000
  O   O20       1.0  0.51541804  0.36263645  0.10534723  1.0000
  O   O21       1.0  0.4569643300000001  0.9088952200000001  0.06232348  1.0000
  O   O22       1.0  0.6721905400000001  0.9517579300000001  0.41421556000000004  1.0000
  O   O23       1.0  0.61057169  0.56272225  0.3827064  1.0000
  O   O24       1.0  0.7351513100000002  0.51636074  0.0726912  1.0000
  O   O25       1.0  0.79434165  0.17739655  0.48165116  1.0000
  O   O26       1.0  0.7537993700000002  0.54700318  0.41775843999999995  1.0000
  O   O27       1.0  0.10470382  0.5411493100000001  0.36204223  1.0000
  O   O28       1.0  0.14901971000000006  0.19716581  0.43470737  1.0000
  O   O29       1.0  0.79974734  0.94140324  0.19813888  1.0000
  O   O30       1.0  0.8470502500000002  0.53102384  0.27089635  1.0000
  O   O31       1.0  0.7166945300000003  0.57519908  0.52231496  1.0000
  O   O32       1.0  0.51541857  0.13735592  0.60535176  1.0000
  O   O33       1.0  0.45696357  0.59108518  0.56232834  1.0000
  O   O34       1.0  0.6721882  0.54824944  0.91421878  1.0000
  O   O35       1.0  0.6105683000000001  0.9372749400000001  0.88270906  1.0000
  O   O36       1.0  0.7351461100000001  0.98364973  0.572689  1.0000
  O   O37       1.0  0.20565947000000007  0.67738901  0.01834962  1.0000
  O   O38       1.0  0.24620041  0.04699649  0.08224403  1.0000
  O   O39       1.0  0.89530002  0.04115817  0.13796019  1.0000
  O   O40       1.0  0.8509798300000002  0.69716743  0.06529462  1.0000
  O   O41       1.0  0.20025141000000002  0.44141464  0.30186337  1.0000
  O   O42       1.0  0.15295156000000001  0.031023630000000003  0.22910742  1.0000
  O   O43       1.0  0.28330225  0.07518414  0.97768411  1.0000
  O   O44       1.0  0.4845831100000001  0.63736654  0.8946533200000001  1.0000
  O   O45       1.0  0.54303646  0.09110294  0.9376771599999999  1.0000
  O   O46       1.0  0.32781136  0.04825836  0.58578531  1.0000
  O   O47       1.0  0.38942819  0.43730304  0.61729661  1.0000
  O   O48       1.0  0.26485119000000007  0.4836353  0.92731162  1.0000
