data_image0
_chemical_formula_structural       Zn4H12C36O18F16
_chemical_formula_sum              "Zn4 H12 C36 O18 F16"
_cell_length_a       8.246
_cell_length_b       9.705
_cell_length_c       19.408
_cell_angle_alpha    90.0
_cell_angle_beta     90.0
_cell_angle_gamma    101.79

_space_group_name_H-M_alt    "P 1"
_space_group_IT_number       1

loop_
  _space_group_symop_operation_xyz
  'x, y, z'

loop_
  _atom_site_type_symbol
  _atom_site_label
  _atom_site_symmetry_multiplicity
  _atom_site_fract_x
  _atom_site_fract_y
  _atom_site_fract_z
  _atom_site_occupancy
  Zn  Zn1       1.0  0.28527  0.15785  0.48234999999999995  1.0000
  Zn  Zn2       1.0  0.63807  0.05371000000000001  0.426  1.0000
  Zn  Zn3       1.0  0.71473  0.84215  0.9823499999999998  1.0000
  Zn  Zn4       1.0  0.36192999999999986  0.94629  0.926  1.0000
  H   H1        1.0  0.040100000000000004  0.20000000000000004  0.6021  1.0000
  H   H2        1.0  0.9523  0.3209  0.5776  1.0000
  H   H3        1.0  0.14009999999999995  0.4487  0.6405999999999998  1.0000
  H   H4        1.0  0.2472  0.4522  0.5736  1.0000
  H   H5        1.0  0.2625  0.3456  0.6327  1.0000
  H   H6        1.0  0.2084  0.24850000000000003  0.4907  1.0000
  H   H7        1.0  0.9599000000000001  0.8000000000000002  0.1021  1.0000
  H   H8        1.0  0.047700000000000006  0.6791  0.0776  1.0000
  H   H9        1.0  0.8598999999999999  0.5513  0.1406  1.0000
  H   H10       1.0  0.7527999999999999  0.5478  0.0736  1.0000
  H   H11       1.0  0.7374999999999998  0.6544  0.1327  1.0000
  H   H12       1.0  0.7916  0.7515  0.9906999999999999  1.0000
  C   C1        1.0  0.05569999999999998  0.2878  0.5767  1.0000
  C   C2        1.0  0.18779999999999994  0.3927  0.6087  1.0000
  C   C3        1.0  0.4801  0.027  0.57302  1.0000
  C   C4        1.0  0.5294  0.984  0.64378  1.0000
  C   C5        1.0  0.48489999999999994  0.8476  0.6673099999999998  1.0000
  C   C6        1.0  0.5314  0.809  0.73179  1.0000
  C   C7        1.0  0.6242  0.9072  0.7757599999999999  1.0000
  C   C8        1.0  0.6680999999999999  0.0429  0.75227  1.0000
  C   C9        1.0  0.6223  0.0813  0.68768  1.0000
  C   C10       1.0  0.6758  0.8671000000000001  0.84649  1.0000
  C   C11       1.0  0.6129  0.3557  0.46899  1.0000
  C   C12       1.0  0.7079999999999997  0.5081  0.4707099999999999  1.0000
  C   C13       1.0  0.7149  0.5904000000000001  0.52971  1.0000
  C   C14       1.0  0.7943000000000001  0.7307000000000001  0.52908  1.0000
  C   C15       1.0  0.8679000000000001  0.7945000000000002  0.47038  1.0000
  C   C16       1.0  0.8596  0.7133  0.41172  1.0000
  C   C17       1.0  0.7822  0.5734  0.41211  1.0000
  C   C18       1.0  0.9583000000000002  0.9485000000000002  0.47037  1.0000
  C   C19       1.0  0.9443000000000001  0.7122000000000003  0.0767  1.0000
  C   C20       1.0  0.8121999999999999  0.6073  0.10869999999999999  1.0000
  C   C21       1.0  0.5198999999999999  0.9730000000000001  0.07301999999999999  1.0000
  C   C22       1.0  0.4706  0.016000000000000004  0.14378  1.0000
  C   C23       1.0  0.5151  0.1524  0.16731  1.0000
  C   C24       1.0  0.46860000000000007  0.19100000000000006  0.23179  1.0000
  C   C25       1.0  0.3758  0.0928  0.27576  1.0000
  C   C26       1.0  0.33190000000000003  0.9571000000000001  0.25227  1.0000
  C   C27       1.0  0.37770000000000004  0.9187000000000001  0.18767999999999999  1.0000
  C   C28       1.0  0.3242  0.1329  0.3464899999999999  1.0000
  C   C29       1.0  0.3871  0.6443  0.9689899999999999  1.0000
  C   C30       1.0  0.292  0.49190000000000006  0.97071  1.0000
  C   C31       1.0  0.2851  0.4096000000000001  0.02971  1.0000
  C   C32       1.0  0.2057  0.2693  0.02908  1.0000
  C   C33       1.0  0.1321  0.2055  0.97038  1.0000
  C   C34       1.0  0.14039999999999997  0.2867  0.9117199999999999  1.0000
  C   C35       1.0  0.2178  0.42660000000000003  0.91211  1.0000
  C   C36       1.0  0.04169999999999999  0.051500000000000004  0.97037  1.0000
  O   O1        1.0  0.5494  0.983  0.5231  1.0000
  O   O2        1.0  0.3731  0.0997  0.57214  1.0000
  O   O3        1.0  0.7818  0.7968  0.85217  1.0000
  O   O4        1.0  0.6057  0.9137  0.8981999999999998  1.0000
  O   O5        1.0  0.46130000000000004  0.3418  0.47945  1.0000
  O   O6        1.0  0.6954999999999998  0.26470000000000005  0.45669999999999994  1.0000
  O   O7        1.0  0.8771  0.0413  0.4603499999999999  1.0000
  O   O8        1.0  0.1095  0.9675  0.4813299999999999  1.0000
  O   O9        1.0  0.10259999999999998  0.2657  0.50567  1.0000
  O   O10       1.0  0.4505999999999999  0.017  0.0231  1.0000
  O   O11       1.0  0.6269  0.9003000000000001  0.07214  1.0000
  O   O12       1.0  0.2182  0.20320000000000005  0.35217  1.0000
  O   O13       1.0  0.3943  0.0863  0.39819999999999994  1.0000
  O   O14       1.0  0.5387  0.6582  0.97945  1.0000
  O   O15       1.0  0.30450000000000005  0.7353000000000002  0.9566999999999999  1.0000
  O   O16       1.0  0.12290000000000002  0.9587  0.96035  1.0000
  O   O17       1.0  0.8905  0.0325  0.98133  1.0000
  O   O18       1.0  0.8974  0.7343  0.00567  1.0000
  F   F1        1.0  0.3936999999999999  0.7488  0.6267599999999999  1.0000
  F   F2        1.0  0.4808  0.6753  0.75233  1.0000
  F   F3        1.0  0.764  0.1411  0.79156  1.0000
  F   F4        1.0  0.6704  0.2159  0.6672099999999997  1.0000
  F   F5        1.0  0.6455999999999997  0.5344  0.5884399999999999  1.0000
  F   F6        1.0  0.8001  0.8051  0.58811  1.0000
  F   F7        1.0  0.926  0.7715  0.35282  1.0000
  F   F8        1.0  0.7796  0.4994  0.35329999999999995  1.0000
  F   F9        1.0  0.6063  0.2512  0.12676  1.0000
  F   F10       1.0  0.5192  0.3247  0.25233  1.0000
  F   F11       1.0  0.236  0.8589  0.29156  1.0000
  F   F12       1.0  0.3296  0.7841000000000001  0.16721  1.0000
  F   F13       1.0  0.3544  0.46560000000000007  0.08843999999999999  1.0000
  F   F14       1.0  0.19989999999999994  0.1949  0.08810999999999998  1.0000
  F   F15       1.0  0.074  0.2285  0.8528199999999999  1.0000
  F   F16       1.0  0.2204  0.5006  0.8532999999999998  1.0000
