data_image0
_chemical_formula_structural       Ca4H32C24O16
_chemical_formula_sum              "Ca4 H32 C24 O16"
_cell_length_a       7.779
_cell_length_b       14.854999999999999
_cell_length_c       15.339
_cell_angle_alpha    90.0
_cell_angle_beta     90.0
_cell_angle_gamma    98.631

_symmetry_space_group_name_H-M    'P 1'
_symmetry_Int_Tables_number       1

loop_
  _symmetry_equiv_pos_as_xyz
  'x,y,z'

loop_
  _atom_site_type_symbol
  _atom_site_label
  _atom_site_symmetry_multiplicity
  _atom_site_fract_x
  _atom_site_fract_y
  _atom_site_fract_z
  _atom_site_occupancy
  Ca  Ca1       1.0  0.54889  0.22052999999999995  0.7192900000000001  1.0000
  Ca  Ca2       1.0  0.9511099999999997  0.7794699999999998  0.21929  1.0000
  Ca  Ca3       1.0  0.45110999999999996  0.7794699999999998  0.28071  1.0000
  Ca  Ca4       1.0  0.04888999999999999  0.22052999999999995  0.78071  1.0000
  H   H1        1.0  0.7725  0.04289999999999999  0.9467  1.0000
  H   H2        1.0  0.7617  0.139  0.9859000000000002  1.0000
  H   H3        1.0  0.5387  0.9122  0.9825  1.0000
  H   H4        1.0  0.4089  0.9596  0.9272  1.0000
  H   H5        1.0  0.3004  0.3789  0.9583  1.0000
  H   H6        1.0  0.4617  0.34289999999999987  0.9989000000000002  1.0000
  H   H7        1.0  0.4863999999999998  0.5111  0.9087000000000002  1.0000
  H   H8        1.0  0.6438  0.47549999999999987  0.954  1.0000
  H   H9        1.0  0.7275  0.9570999999999997  0.44670000000000004  1.0000
  H   H10       1.0  0.7383  0.8609999999999998  0.4859000000000001  1.0000
  H   H11       1.0  0.9612999999999999  0.08779999999999998  0.4825  1.0000
  H   H12       1.0  0.0911  0.0404  0.4272  1.0000
  H   H13       1.0  0.1996  0.6211  0.4583  1.0000
  H   H14       1.0  0.03829999999999997  0.6570999999999999  0.4989  1.0000
  H   H15       1.0  0.01359999999999998  0.4888999999999999  0.40870000000000006  1.0000
  H   H16       1.0  0.8561999999999999  0.5244999999999997  0.4540000000000001  1.0000
  H   H17       1.0  0.22749999999999992  0.9570999999999997  0.053300000000000014  1.0000
  H   H18       1.0  0.23829999999999996  0.8609999999999998  0.0141  1.0000
  H   H19       1.0  0.4613  0.08779999999999998  0.0175  1.0000
  H   H20       1.0  0.5911  0.0404  0.0728  1.0000
  H   H21       1.0  0.6996  0.6211  0.0417  1.0000
  H   H22       1.0  0.5383  0.6570999999999999  0.0011000000000000003  1.0000
  H   H23       1.0  0.5136  0.4888999999999999  0.0913  1.0000
  H   H24       1.0  0.3561999999999999  0.5244999999999997  0.04600000000000001  1.0000
  H   H25       1.0  0.2725  0.04289999999999999  0.5533  1.0000
  H   H26       1.0  0.2617  0.139  0.5141  1.0000
  H   H27       1.0  0.038700000000000005  0.9122  0.5175  1.0000
  H   H28       1.0  0.9089  0.9596  0.5728  1.0000
  H   H29       1.0  0.8003999999999999  0.3789  0.5417000000000001  1.0000
  H   H30       1.0  0.9617  0.34289999999999987  0.5011  1.0000
  H   H31       1.0  0.9864  0.5111  0.5913000000000003  1.0000
  H   H32       1.0  0.14379999999999998  0.47549999999999987  0.546  1.0000
  C   C1        1.0  0.6466  0.12021  0.8681300000000002  1.0000
  C   C2        1.0  0.6957  0.08792  0.9554  1.0000
  C   C3        1.0  0.546  0.04619  0.014480000000000003  1.0000
  C   C4        1.0  0.45409999999999995  0.3315599999999999  0.86628  1.0000
  C   C5        1.0  0.4241  0.3782099999999999  0.9513  1.0000
  C   C6        1.0  0.5196  0.4763199999999999  0.9578000000000002  1.0000
  C   C7        1.0  0.8533999999999997  0.8797899999999997  0.3681300000000001  1.0000
  C   C8        1.0  0.8042999999999998  0.91208  0.45540000000000014  1.0000
  C   C9        1.0  0.954  0.9538099999999998  0.51448  1.0000
  C   C10       1.0  0.04589999999999998  0.66844  0.36628  1.0000
  C   C11       1.0  0.07589999999999995  0.6217899999999997  0.4513000000000001  1.0000
  C   C12       1.0  0.9803999999999999  0.52368  0.45780000000000004  1.0000
  C   C13       1.0  0.3534  0.8797899999999997  0.13187  1.0000
  C   C14       1.0  0.3043  0.91208  0.0446  1.0000
  C   C15       1.0  0.45399999999999996  0.9538099999999998  0.98552  1.0000
  C   C16       1.0  0.5459  0.66844  0.13372  1.0000
  C   C17       1.0  0.5759  0.6217899999999997  0.0487  1.0000
  C   C18       1.0  0.4804  0.52368  0.0422  1.0000
  C   C19       1.0  0.1466  0.12021  0.6318700000000003  1.0000
  C   C20       1.0  0.1957  0.08792  0.5446  1.0000
  C   C21       1.0  0.046  0.04619  0.4855200000000001  1.0000
  C   C22       1.0  0.9541  0.3315599999999999  0.63372  1.0000
  C   C23       1.0  0.9240999999999998  0.3782099999999999  0.5487  1.0000
  C   C24       1.0  0.019599999999999965  0.4763199999999999  0.5422000000000002  1.0000
  O   O1        1.0  0.7664  0.15002  0.8153000000000002  1.0000
  O   O2        1.0  0.4893  0.11907  0.84772  1.0000
  O   O3        1.0  0.6091  0.3304  0.8418  1.0000
  O   O4        1.0  0.3274  0.2955899999999999  0.8213800000000002  1.0000
  O   O5        1.0  0.7336  0.8499799999999997  0.3153  1.0000
  O   O6        1.0  0.01069999999999993  0.8809299999999998  0.34772000000000003  1.0000
  O   O7        1.0  0.8908999999999999  0.6695999999999998  0.3418  1.0000
  O   O8        1.0  0.1726  0.70441  0.3213800000000001  1.0000
  O   O9        1.0  0.23359999999999995  0.8499799999999997  0.1847  1.0000
  O   O10       1.0  0.5106999999999999  0.8809299999999998  0.15228  1.0000
  O   O11       1.0  0.3909  0.6695999999999998  0.1582  1.0000
  O   O12       1.0  0.6726  0.70441  0.17862000000000006  1.0000
  O   O13       1.0  0.2664  0.15002  0.6847  1.0000
  O   O14       1.0  0.9893  0.11907  0.65228  1.0000
  O   O15       1.0  0.1091  0.3304  0.6582  1.0000
  O   O16       1.0  0.8273999999999999  0.2955899999999999  0.6786200000000002  1.0000
