data_image0
_chemical_formula_structural       Pr16H16C80N32O64
_chemical_formula_sum              "Pr16 H16 C80 N32 O64"
_cell_length_a       16.6004
_cell_length_b       16.6004
_cell_length_c       16.6004
_cell_angle_alpha    104.573
_cell_angle_beta     104.573
_cell_angle_gamma    119.78599999999999

_symmetry_space_group_name_H-M    'P 1'
_symmetry_Int_Tables_number       1

loop_
  _symmetry_equiv_pos_as_xyz
  'x,y,z'

loop_
  _atom_site_type_symbol
  _atom_site_label
  _atom_site_symmetry_multiplicity
  _atom_site_fract_x
  _atom_site_fract_y
  _atom_site_fract_z
  _atom_site_occupancy
  Pr  Pr1       1.0  0.7451  0.76164  0.36118000000000006  1.0000
  Pr  Pr2       1.0  0.4888299999999997  0.8708399999999997  0.017910000000000006  1.0000
  Pr  Pr3       1.0  0.90046  0.38391999999999993  0.13882  1.0000
  Pr  Pr4       1.0  0.35293  0.4709199999999999  0.48209  1.0000
  Pr  Pr5       1.0  0.88392  0.24509999999999996  0.48346  1.0000
  Pr  Pr6       1.0  0.9709199999999998  0.9888299999999998  0.11799  1.0000
  Pr  Pr7       1.0  0.26164  0.40046  0.01654  1.0000
  Pr  Pr8       1.0  0.37084000000000006  0.8529300000000001  0.38201  1.0000
  Pr  Pr9       1.0  0.2549  0.23836000000000004  0.63882  1.0000
  Pr  Pr10      1.0  0.5111700000000002  0.12916000000000008  0.9820900000000002  1.0000
  Pr  Pr11      1.0  0.09953999999999989  0.6160799999999997  0.86118  1.0000
  Pr  Pr12      1.0  0.6470699999999999  0.5290799999999998  0.51791  1.0000
  Pr  Pr13      1.0  0.11607999999999999  0.7548999999999998  0.51654  1.0000
  Pr  Pr14      1.0  0.02908000000000002  0.011170000000000008  0.88201  1.0000
  Pr  Pr15      1.0  0.73836  0.59954  0.9834600000000002  1.0000
  Pr  Pr16      1.0  0.62916  0.14706999999999995  0.6179900000000002  1.0000
  H   H1        1.0  0.6867  0.9125  0.2362  1.0000
  H   H2        1.0  0.6229999999999998  0.8960999999999998  0.3853  1.0000
  H   H3        1.0  0.17629999999999996  0.4504999999999999  0.2638  1.0000
  H   H4        1.0  0.01079999999999999  0.23769999999999997  0.1147  1.0000
  H   H5        1.0  0.9505  0.1867  0.2742  1.0000
  H   H6        1.0  0.7377  0.123  0.22690000000000005  1.0000
  H   H7        1.0  0.4124999999999999  0.6762999999999998  0.22580000000000003  1.0000
  H   H8        1.0  0.3961  0.5108  0.2731  1.0000
  H   H9        1.0  0.3133  0.08750000000000002  0.7638  1.0000
  H   H10       1.0  0.377  0.10389999999999994  0.6147  1.0000
  H   H11       1.0  0.8236999999999998  0.5494999999999998  0.7362  1.0000
  H   H12       1.0  0.9892  0.7623  0.8853  1.0000
  H   H13       1.0  0.049500000000000016  0.8133  0.7258000000000002  1.0000
  H   H14       1.0  0.26230000000000003  0.8770000000000001  0.7731000000000001  1.0000
  H   H15       1.0  0.5875  0.3237  0.7742  1.0000
  H   H16       1.0  0.6039  0.4891999999999999  0.7269  1.0000
  C   C1        1.0  0.6349999999999999  0.8414999999999998  0.2007  1.0000
  C   C2        1.0  0.5503999999999999  0.6799999999999998  0.15380000000000005  1.0000
  C   C3        1.0  0.4975  0.6971999999999998  0.0899  1.0000
  C   C4        1.0  0.4014999999999999  0.6327999999999998  0.0003  1.0000
  C   C5        1.0  0.531  0.5842999999999998  0.1633  1.0000
  C   C6        1.0  0.5907999999999999  0.8430999999999998  0.4019  1.0000
  C   C7        1.0  0.5563  0.7178999999999999  0.4354  1.0000
  C   C8        1.0  0.4896999999999999  0.7438999999999998  0.4446  1.0000
  C   C9        1.0  0.4004  0.6986  0.4668  1.0000
  C   C10       1.0  0.5734999999999999  0.6422999999999998  0.4478000000000001  1.0000
  C   C11       1.0  0.1408  0.43429999999999996  0.2993  1.0000
  C   C12       1.0  0.02620000000000004  0.3966  0.3462  1.0000
  C   C13       1.0  0.10729999999999996  0.4075999999999999  0.4101  1.0000
  C   C14       1.0  0.13249999999999998  0.4011999999999999  0.4997  1.0000
  C   C15       1.0  0.921  0.3676999999999999  0.3367  1.0000
  C   C16       1.0  0.9412000000000001  0.1889  0.09810000000000002  1.0000
  C   C17       1.0  0.7825  0.12089999999999995  0.0646  1.0000
  C   C18       1.0  0.7993  0.0451  0.0554  1.0000
  C   C19       1.0  0.7317999999999999  0.9335999999999998  0.0332  1.0000
  C   C20       1.0  0.6945  0.1257  0.0522  1.0000
  C   C21       1.0  0.9343  0.135  0.29350000000000004  1.0000
  C   C22       1.0  0.8966  0.05040000000000002  0.3704  1.0000
  C   C23       1.0  0.9076  0.9974999999999998  0.3003  1.0000
  C   C24       1.0  0.9011999999999999  0.9014999999999997  0.2687  1.0000
  C   C25       1.0  0.8677000000000001  0.031000000000000024  0.4467  1.0000
  C   C26       1.0  0.6889  0.0908  0.24770000000000006  1.0000
  C   C27       1.0  0.6209  0.0563  0.3384  1.0000
  C   C28       1.0  0.5450999999999999  0.9896999999999998  0.24580000000000005  1.0000
  C   C29       1.0  0.4336  0.9004  0.2018  1.0000
  C   C30       1.0  0.6257  0.07349999999999998  0.4312  1.0000
  C   C31       1.0  0.3415  0.6407999999999998  0.2065  1.0000
  C   C32       1.0  0.17999999999999994  0.5261999999999999  0.1296  1.0000
  C   C33       1.0  0.19719999999999993  0.6072999999999997  0.1997  1.0000
  C   C34       1.0  0.1327999999999999  0.6324999999999997  0.2313  1.0000
  C   C35       1.0  0.08429999999999994  0.4209999999999999  0.053300000000000014  1.0000
  C   C36       1.0  0.3431  0.4412  0.2523  1.0000
  C   C37       1.0  0.21789999999999995  0.28249999999999986  0.16160000000000002  1.0000
  C   C38       1.0  0.2439  0.2993  0.2542  1.0000
  C   C39       1.0  0.19860000000000005  0.2318  0.2982  1.0000
  C   C40       1.0  0.1423  0.1945  0.0688  1.0000
  C   C41       1.0  0.365  0.1585  0.7993  1.0000
  C   C42       1.0  0.44959999999999994  0.3199999999999999  0.8462  1.0000
  C   C43       1.0  0.5025000000000001  0.30280000000000007  0.9101  1.0000
  C   C44       1.0  0.5985  0.36719999999999997  0.9997  1.0000
  C   C45       1.0  0.4690000000000001  0.4157000000000001  0.8367000000000002  1.0000
  C   C46       1.0  0.40919999999999995  0.15689999999999996  0.5981  1.0000
  C   C47       1.0  0.4437  0.2820999999999999  0.5646  1.0000
  C   C48       1.0  0.5103  0.2561  0.5554  1.0000
  C   C49       1.0  0.5996000000000001  0.3014  0.5332  1.0000
  C   C50       1.0  0.42649999999999993  0.3577  0.5522  1.0000
  C   C51       1.0  0.8592000000000001  0.5657  0.7007  1.0000
  C   C52       1.0  0.9738000000000001  0.6033999999999998  0.6538  1.0000
  C   C53       1.0  0.8926999999999999  0.5923999999999999  0.5899  1.0000
  C   C54       1.0  0.8674999999999999  0.5987999999999998  0.5003  1.0000
  C   C55       1.0  0.0789999999999999  0.6322999999999998  0.6633  1.0000
  C   C56       1.0  0.05879999999999993  0.8110999999999998  0.9019  1.0000
  C   C57       1.0  0.21749999999999997  0.8790999999999999  0.9354000000000002  1.0000
  C   C58       1.0  0.20069999999999988  0.9548999999999997  0.9446  1.0000
  C   C59       1.0  0.26820000000000005  0.06639999999999999  0.9668000000000002  1.0000
  C   C60       1.0  0.3054999999999998  0.8742999999999997  0.9478  1.0000
  C   C61       1.0  0.06569999999999998  0.8649999999999998  0.7065000000000002  1.0000
  C   C62       1.0  0.10339999999999996  0.9495999999999999  0.6296  1.0000
  C   C63       1.0  0.09240000000000002  0.0024999999999999775  0.6997  1.0000
  C   C64       1.0  0.09879999999999997  0.09849999999999995  0.7313  1.0000
  C   C65       1.0  0.13229999999999995  0.9689999999999998  0.5533  1.0000
  C   C66       1.0  0.31110000000000004  0.9092  0.7523  1.0000
  C   C67       1.0  0.3790999999999999  0.9437  0.6616  1.0000
  C   C68       1.0  0.4549  0.010299999999999976  0.7542  1.0000
  C   C69       1.0  0.5664  0.09959999999999997  0.7982  1.0000
  C   C70       1.0  0.3742999999999998  0.9264999999999995  0.5688  1.0000
  C   C71       1.0  0.6585  0.3591999999999999  0.7935  1.0000
  C   C72       1.0  0.82  0.4738  0.8704  1.0000
  C   C73       1.0  0.8028  0.3926999999999999  0.8003  1.0000
  C   C74       1.0  0.8672  0.3675  0.7687  1.0000
  C   C75       1.0  0.9157000000000001  0.579  0.9467000000000001  1.0000
  C   C76       1.0  0.6568999999999999  0.5587999999999997  0.7477  1.0000
  C   C77       1.0  0.7821  0.7175  0.8384  1.0000
  C   C78       1.0  0.7561000000000001  0.7007000000000001  0.7458000000000002  1.0000
  C   C79       1.0  0.8014000000000001  0.7682000000000001  0.7018000000000001  1.0000
  C   C80       1.0  0.8577000000000002  0.8054999999999999  0.9312000000000001  1.0000
  N   N1        1.0  0.5530999999999998  0.8038999999999997  0.12240000000000002  1.0000
  N   N2        1.0  0.6393999999999999  0.7737999999999999  0.2254  1.0000
  N   N3        1.0  0.6212999999999999  0.7843999999999999  0.4069  1.0000
  N   N4        1.0  0.5112000000000001  0.8234  0.4214  1.0000
  N   N5        1.0  0.18149999999999997  0.4306999999999999  0.3776  1.0000
  N   N6        1.0  0.048399999999999985  0.414  0.2746  1.0000
  N   N7        1.0  0.8775  0.21439999999999998  0.0931  1.0000
  N   N8        1.0  0.902  0.08979999999999998  0.0786  1.0000
  N   N9        1.0  0.9307  0.0531  0.2492  1.0000
  N   N10       1.0  0.9140000000000003  0.1394  0.3656  1.0000
  N   N11       1.0  0.7144  0.12129999999999999  0.33690000000000003  1.0000
  N   N12       1.0  0.5898  0.011200000000000007  0.1878  1.0000
  N   N13       1.0  0.3038999999999999  0.6814999999999998  0.2508  1.0000
  N   N14       1.0  0.2738  0.5484  0.1344  1.0000
  N   N15       1.0  0.2844  0.3774999999999999  0.1631  1.0000
  N   N16       1.0  0.3234  0.40199999999999997  0.3122  1.0000
  N   N17       1.0  0.4469000000000001  0.19609999999999997  0.8776  1.0000
  N   N18       1.0  0.3606  0.22620000000000004  0.7746  1.0000
  N   N19       1.0  0.3787  0.21559999999999996  0.5931  1.0000
  N   N20       1.0  0.48879999999999996  0.1766  0.5786  1.0000
  N   N21       1.0  0.8184999999999999  0.5693  0.6224000000000001  1.0000
  N   N22       1.0  0.9516  0.586  0.7254  1.0000
  N   N23       1.0  0.12249999999999989  0.7855999999999997  0.9069  1.0000
  N   N24       1.0  0.098  0.9102  0.9214  1.0000
  N   N25       1.0  0.06929999999999982  0.9468999999999997  0.7508  1.0000
  N   N26       1.0  0.08599999999999992  0.8605999999999999  0.6344000000000001  1.0000
  N   N27       1.0  0.2855999999999999  0.8786999999999998  0.6631  1.0000
  N   N28       1.0  0.4102000000000001  0.9888  0.8122  1.0000
  N   N29       1.0  0.6960999999999999  0.3185  0.7492000000000001  1.0000
  N   N30       1.0  0.7262  0.45159999999999995  0.8656  1.0000
  N   N31       1.0  0.7156  0.6224999999999999  0.8369000000000002  1.0000
  N   N32       1.0  0.6765999999999999  0.5979999999999998  0.6878  1.0000
  O   O1        1.0  0.3909000000000001  0.6811  0.9564  1.0000
  O   O2        1.0  0.3378  0.5367  0.9701  1.0000
  O   O3        1.0  0.4455  0.4975  0.1052  1.0000
  O   O4        1.0  0.6022  0.5977999999999999  0.22700000000000006  1.0000
  O   O5        1.0  0.3498999999999999  0.7345999999999998  0.4563  1.0000
  O   O6        1.0  0.3824  0.6311999999999998  0.4958  1.0000
  O   O7        1.0  0.5274  0.5852  0.4844  1.0000
  O   O8        1.0  0.6397  0.6376  0.4253  1.0000
  O   O9        1.0  0.2247  0.4345  0.5436  1.0000
  O   O10       1.0  0.06659999999999994  0.3676999999999999  0.5299  1.0000
  O   O11       1.0  0.8923  0.3403  0.3948  1.0000
  O   O12       1.0  0.8708  0.3752  0.273  1.0000
  O   O13       1.0  0.7783000000000001  0.8935999999999997  0.0437  1.0000
  O   O14       1.0  0.6353999999999997  0.8865999999999998  0.0042  1.0000
  O   O15       1.0  0.6008  0.04299999999999999  0.015600000000000003  1.0000
  O   O16       1.0  0.7123  0.21439999999999998  0.0747  1.0000
  O   O17       1.0  0.9345  0.8909  0.2098  1.0000
  O   O18       1.0  0.8677  0.8378  0.3011  1.0000
  O   O19       1.0  0.8403000000000002  0.9455  0.4480000000000001  1.0000
  O   O20       1.0  0.8751999999999999  0.1022  0.5044  1.0000
  O   O21       1.0  0.39360000000000006  0.8499  0.1153  1.0000
  O   O22       1.0  0.3866  0.8824  0.2512  1.0000
  O   O23       1.0  0.5430000000000001  0.02740000000000006  0.4422000000000001  1.0000
  O   O24       1.0  0.7143999999999999  0.1396999999999999  0.5021  1.0000
  O   O25       1.0  0.1811  0.7247  0.2902  1.0000
  O   O26       1.0  0.036699999999999955  0.5665999999999999  0.1989  1.0000
  O   O27       1.0  0.9975  0.39229999999999987  0.052000000000000005  1.0000
  O   O28       1.0  0.09779999999999996  0.3707999999999999  0.9956  1.0000
  O   O29       1.0  0.23460000000000003  0.2783  0.3847000000000001  1.0000
  O   O30       1.0  0.1312  0.1354  0.24880000000000005  1.0000
  O   O31       1.0  0.0852  0.1008  0.0578  1.0000
  O   O32       1.0  0.1375999999999999  0.21229999999999988  0.9979  1.0000
  O   O33       1.0  0.6091  0.3189  0.0436  1.0000
  O   O34       1.0  0.6621999999999999  0.4632999999999999  0.0299  1.0000
  O   O35       1.0  0.5544999999999999  0.5024999999999998  0.8948  1.0000
  O   O36       1.0  0.39780000000000004  0.40219999999999995  0.7730000000000001  1.0000
  O   O37       1.0  0.6501  0.2654  0.5437  1.0000
  O   O38       1.0  0.6176  0.3688  0.5042  1.0000
  O   O39       1.0  0.47259999999999996  0.4147999999999999  0.5156  1.0000
  O   O40       1.0  0.3603  0.3623999999999999  0.5747  1.0000
  O   O41       1.0  0.7753  0.5654999999999998  0.4564  1.0000
  O   O42       1.0  0.9333999999999999  0.6322999999999998  0.4701  1.0000
  O   O43       1.0  0.10770000000000003  0.6597  0.6052  1.0000
  O   O44       1.0  0.1291999999999999  0.6247999999999998  0.727  1.0000
  O   O45       1.0  0.22170000000000004  0.10640000000000001  0.9563  1.0000
  O   O46       1.0  0.3646000000000001  0.11339999999999999  0.9958  1.0000
  O   O47       1.0  0.3991999999999999  0.9569999999999997  0.9844  1.0000
  O   O48       1.0  0.2876999999999999  0.7855999999999997  0.9253  1.0000
  O   O49       1.0  0.0655  0.10909999999999999  0.7902  1.0000
  O   O50       1.0  0.1323  0.16219999999999996  0.6989  1.0000
  O   O51       1.0  0.1597  0.05449999999999999  0.552  1.0000
  O   O52       1.0  0.12479999999999995  0.8977999999999999  0.4956000000000001  1.0000
  O   O53       1.0  0.6064  0.1501  0.8847  1.0000
  O   O54       1.0  0.6134  0.1176  0.7488  1.0000
  O   O55       1.0  0.45700000000000013  0.9726000000000001  0.5578  1.0000
  O   O56       1.0  0.28559999999999997  0.8602999999999997  0.4979  1.0000
  O   O57       1.0  0.8189000000000001  0.27529999999999993  0.7098000000000001  1.0000
  O   O58       1.0  0.9633  0.4334  0.8011000000000003  1.0000
  O   O59       1.0  0.0024999999999999606  0.6077  0.948  1.0000
  O   O60       1.0  0.9022000000000002  0.6291999999999998  0.0044  1.0000
  O   O61       1.0  0.7654  0.7217  0.6153000000000002  1.0000
  O   O62       1.0  0.8688  0.8646  0.7512  1.0000
  O   O63       1.0  0.9147999999999998  0.8991999999999998  0.9422  1.0000
  O   O64       1.0  0.8624  0.7876999999999997  0.0021  1.0000
