data_image0
_chemical_formula_structural       Nd16H16C80N32O64
_chemical_formula_sum              "Nd16 H16 C80 N32 O64"
_cell_length_a       16.5441
_cell_length_b       16.5441
_cell_length_c       16.5441
_cell_angle_alpha    60.1036
_cell_angle_beta     75.4761
_cell_angle_gamma    104.524

_symmetry_space_group_name_H-M    'P 1'
_symmetry_Int_Tables_number       1

loop_
  _symmetry_equiv_pos_as_xyz
  'x,y,z'

loop_
  _atom_site_type_symbol
  _atom_site_label
  _atom_site_symmetry_multiplicity
  _atom_site_fract_x
  _atom_site_fract_y
  _atom_site_fract_z
  _atom_site_occupancy
  Nd  Nd1       1.0  0.6390199999999999  0.40079000000000004  0.61579  1.0000
  Nd  Nd2       1.0  0.9818400000000002  0.85283  0.52945  1.0000
  Nd  Nd3       1.0  0.86098  0.24518999999999996  0.23823  1.0000
  Nd  Nd4       1.0  0.5181600000000001  0.98871  0.12901  1.0000
  Nd  Nd5       1.0  0.9834200000000003  0.38421000000000016  0.7548100000000001  1.0000
  Nd  Nd6       1.0  0.61772  0.47055  0.011290000000000003  1.0000
  Nd  Nd7       1.0  0.5165799999999999  0.76177  0.59921  1.0000
  Nd  Nd8       1.0  0.8822800000000001  0.8709900000000003  0.14717  1.0000
  Nd  Nd9       1.0  0.36098  0.59921  0.38421  1.0000
  Nd  Nd10      1.0  0.018159999999999975  0.14716999999999997  0.4705500000000001  1.0000
  Nd  Nd11      1.0  0.13902000000000003  0.7548100000000001  0.76177  1.0000
  Nd  Nd12      1.0  0.48184  0.011290000000000045  0.87099  1.0000
  Nd  Nd13      1.0  0.016579999999999973  0.61579  0.24519000000000002  1.0000
  Nd  Nd14      1.0  0.38227999999999995  0.52945  0.9887100000000001  1.0000
  Nd  Nd15      1.0  0.48342000000000007  0.23823  0.40079  1.0000
  Nd  Nd16      1.0  0.11772000000000005  0.12901000000000015  0.85283  1.0000
  H   H1        1.0  0.7605  0.6785000000000001  0.5506  1.0000
  H   H2        1.0  0.6155  0.5141999999999999  0.7619000000000001  1.0000
  H   H3        1.0  0.7395  0.1889  0.082  1.0000
  H   H4        1.0  0.8845  0.12260000000000001  0.10130000000000002  1.0000
  H   H5        1.0  0.7708999999999999  0.44939999999999997  0.8111  1.0000
  H   H6        1.0  0.7239  0.23810000000000006  0.8774  1.0000
  H   H7        1.0  0.7291000000000001  0.9180000000000005  0.3215  1.0000
  H   H8        1.0  0.7761  0.8986999999999999  0.48580000000000007  1.0000
  H   H9        1.0  0.23950000000000007  0.32150000000000006  0.4494  1.0000
  H   H10       1.0  0.38450000000000006  0.48580000000000023  0.2381  1.0000
  H   H11       1.0  0.2605  0.8111000000000004  0.918  1.0000
  H   H12       1.0  0.11550000000000009  0.8774000000000001  0.8987  1.0000
  H   H13       1.0  0.22910000000000003  0.5506  0.18890000000000004  1.0000
  H   H14       1.0  0.27610000000000007  0.7619000000000002  0.12260000000000001  1.0000
  H   H15       1.0  0.2709000000000001  0.08199999999999999  0.6785  1.0000
  H   H16       1.0  0.2239  0.1013000000000001  0.5142  1.0000
  C   C1        1.0  0.7963  0.6429000000000002  0.5658  1.0000
  C   C2        1.0  0.8447000000000001  0.5243  0.604  1.0000
  C   C3        1.0  0.9081  0.6077  0.593  1.0000
  C   C4        1.0  0.9968  0.6322000000000001  0.5998  1.0000
  C   C5        1.0  0.8385  0.42260000000000003  0.6305  1.0000
  C   C6        1.0  0.5996  0.4443  0.8101  1.0000
  C   C7        1.0  0.5674  0.28270000000000006  0.8777  1.0000
  C   C8        1.0  0.5575  0.2999999999999998  0.9547000000000001  1.0000
  C   C9        1.0  0.5352  0.23250000000000004  0.0659  1.0000
  C   C10       1.0  0.5527  0.19619999999999993  0.8739  1.0000
  C   C11       1.0  0.7037  0.13790000000000002  0.1534  1.0000
  C   C12       1.0  0.6553  0.051299999999999964  0.3204000000000001  1.0000
  C   C13       1.0  0.5919  0.9989  0.3004  1.0000
  C   C14       1.0  0.5032  0.9034000000000001  0.3646  1.0000
  C   C15       1.0  0.6615  0.030999999999999982  0.4159  1.0000
  C   C16       1.0  0.9004  0.0903  0.1553  1.0000
  C   C17       1.0  0.9326  0.05490000000000001  0.2847  1.0000
  C   C18       1.0  0.9425  0.9878000000000001  0.2575  1.0000
  C   C19       1.0  0.9648000000000002  0.8989000000000004  0.3027  1.0000
  C   C20       1.0  0.9473  0.07339999999999992  0.3565000000000001  1.0000
  C   C21       1.0  0.7913  0.43420000000000003  0.8621  1.0000
  C   C22       1.0  0.8717  0.39599999999999996  0.9487  1.0000
  C   C23       1.0  0.7993  0.407  0.0011  1.0000
  C   C24       1.0  0.768  0.4002000000000001  0.0966  1.0000
  C   C25       1.0  0.9469000000000001  0.3695  0.969  1.0000
  C   C26       1.0  0.7455999999999998  0.1898999999999999  0.9097000000000001  1.0000
  C   C27       1.0  0.8396  0.12230000000000003  0.9451  1.0000
  C   C28       1.0  0.7453  0.0453  0.012200000000000003  1.0000
  C   C29       1.0  0.7016000000000002  0.9341  0.1011  1.0000
  C   C30       1.0  0.9299  0.12609999999999993  0.9266000000000001  1.0000
  C   C31       1.0  0.7087  0.8466000000000001  0.3571  1.0000
  C   C32       1.0  0.6283000000000001  0.6796  0.4757  1.0000
  C   C33       1.0  0.7007  0.6996000000000001  0.3923  1.0000
  C   C34       1.0  0.7320000000000001  0.6354  0.3678  1.0000
  C   C35       1.0  0.5530999999999998  0.5840999999999998  0.5774  1.0000
  C   C36       1.0  0.7544  0.8447  0.5557  1.0000
  C   C37       1.0  0.6603999999999999  0.7152999999999999  0.7173000000000002  1.0000
  C   C38       1.0  0.7547  0.7425  0.7000000000000001  1.0000
  C   C39       1.0  0.7983999999999999  0.6973000000000001  0.7675  1.0000
  C   C40       1.0  0.5701  0.6435  0.8038  1.0000
  C   C41       1.0  0.20370000000000002  0.3570999999999999  0.4342  1.0000
  C   C42       1.0  0.1553  0.4757  0.396  1.0000
  C   C43       1.0  0.09189999999999998  0.39230000000000004  0.407  1.0000
  C   C44       1.0  0.003199999999999977  0.36779999999999996  0.4002  1.0000
  C   C45       1.0  0.16149999999999998  0.5774  0.3695  1.0000
  C   C46       1.0  0.4004  0.5557000000000002  0.1899  1.0000
  C   C47       1.0  0.43260000000000004  0.7173  0.12230000000000002  1.0000
  C   C48       1.0  0.4425  0.7  0.0453  1.0000
  C   C49       1.0  0.4648  0.7675  0.9341  1.0000
  C   C50       1.0  0.4473  0.8038  0.1261  1.0000
  C   C51       1.0  0.2962999999999999  0.8620999999999999  0.8466000000000002  1.0000
  C   C52       1.0  0.3447  0.9487  0.6796000000000001  1.0000
  C   C53       1.0  0.4081  0.0010999999999999953  0.6996  1.0000
  C   C54       1.0  0.4968  0.09660000000000002  0.6354  1.0000
  C   C55       1.0  0.3385  0.9690000000000001  0.5841  1.0000
  C   C56       1.0  0.09959999999999994  0.9096999999999998  0.8447000000000001  1.0000
  C   C57       1.0  0.06740000000000013  0.9451000000000005  0.7153  1.0000
  C   C58       1.0  0.057499999999999975  0.012199999999999978  0.7425000000000002  1.0000
  C   C59       1.0  0.03520000000000002  0.10110000000000004  0.6973  1.0000
  C   C60       1.0  0.052699999999999976  0.9266  0.6435  1.0000
  C   C61       1.0  0.2087  0.5658  0.1379  1.0000
  C   C62       1.0  0.1283  0.604  0.0513  1.0000
  C   C63       1.0  0.2007  0.593  0.9989  1.0000
  C   C64       1.0  0.23199999999999996  0.5998  0.9034000000000001  1.0000
  C   C65       1.0  0.0531  0.6305  0.031000000000000003  1.0000
  C   C66       1.0  0.2544  0.8101  0.0903  1.0000
  C   C67       1.0  0.16040000000000004  0.8777000000000003  0.0549  1.0000
  C   C68       1.0  0.2547  0.9547  0.9878  1.0000
  C   C69       1.0  0.2983999999999999  0.06589999999999985  0.8989000000000003  1.0000
  C   C70       1.0  0.07010000000000004  0.8739000000000002  0.0734  1.0000
  C   C71       1.0  0.2913  0.15339999999999998  0.6429  1.0000
  C   C72       1.0  0.3717  0.3204  0.5243  1.0000
  C   C73       1.0  0.2993  0.3004  0.6077  1.0000
  C   C74       1.0  0.2679999999999999  0.3645999999999999  0.6322000000000001  1.0000
  C   C75       1.0  0.44689999999999996  0.4158999999999999  0.4226000000000001  1.0000
  C   C76       1.0  0.2456  0.1553  0.4443  1.0000
  C   C77       1.0  0.33960000000000007  0.28470000000000023  0.2827  1.0000
  C   C78       1.0  0.2453  0.25749999999999995  0.3  1.0000
  C   C79       1.0  0.20159999999999997  0.3027  0.2325  1.0000
  C   C80       1.0  0.4299  0.3565  0.1962  1.0000
  N   N1        1.0  0.8754  0.6798000000000001  0.5694  1.0000
  N   N2        1.0  0.7737  0.5489000000000003  0.5864  1.0000
  N   N3        1.0  0.5965999999999999  0.37989999999999985  0.7837000000000002  1.0000
  N   N4        1.0  0.5784  0.4027  0.9091000000000001  1.0000
  N   N5        1.0  0.6246  0.05520000000000001  0.1956  1.0000
  N   N6        1.0  0.7263  0.13989999999999997  0.2248  1.0000
  N   N7        1.0  0.9034  0.1197  0.2167  1.0000
  N   N8        1.0  0.9216  0.012499999999999997  0.1757  1.0000
  N   N9        1.0  0.7508  0.43060000000000004  0.9448  1.0000
  N   N10       1.0  0.8647000000000001  0.4136000000000001  0.8601  1.0000
  N   N11       1.0  0.8364  0.2163  0.8803  1.0000
  N   N12       1.0  0.6881999999999998  0.09089999999999987  0.9875000000000003  1.0000
  N   N13       1.0  0.7491999999999999  0.8044  0.32020000000000004  1.0000
  N   N14       1.0  0.6353  0.7752  0.4511  1.0000
  N   N15       1.0  0.6636  0.7833  0.6201  1.0000
  N   N16       1.0  0.8118  0.8243000000000001  0.5973  1.0000
  N   N17       1.0  0.1246  0.3202  0.43060000000000004  1.0000
  N   N18       1.0  0.22629999999999995  0.4510999999999999  0.41360000000000013  1.0000
  N   N19       1.0  0.4034000000000001  0.6201000000000002  0.2163  1.0000
  N   N20       1.0  0.4216  0.5973  0.0909  1.0000
  N   N21       1.0  0.3754  0.9447999999999999  0.8044  1.0000
  N   N22       1.0  0.27370000000000005  0.8601000000000001  0.7752  1.0000
  N   N23       1.0  0.0966  0.8803  0.7833  1.0000
  N   N24       1.0  0.07839999999999998  0.9875000000000002  0.8243000000000003  1.0000
  N   N25       1.0  0.2492  0.5694000000000002  0.0552  1.0000
  N   N26       1.0  0.1353  0.5864  0.1399  1.0000
  N   N27       1.0  0.1636  0.7837  0.11970000000000001  1.0000
  N   N28       1.0  0.3118  0.9091  0.0125  1.0000
  N   N29       1.0  0.2508  0.19560000000000002  0.6798  1.0000
  N   N30       1.0  0.3647  0.22480000000000003  0.5489  1.0000
  N   N31       1.0  0.3364  0.2167  0.3799  1.0000
  N   N32       1.0  0.1882  0.17570000000000002  0.4027  1.0000
  O   O1        1.0  0.04230000000000003  0.7252000000000001  0.5667  1.0000
  O   O2        1.0  0.027300000000000053  0.5656000000000002  0.6333  1.0000
  O   O3        1.0  0.8925  0.3898  0.6635  1.0000
  O   O4        1.0  0.7718  0.3700999999999999  0.6283000000000001  1.0000
  O   O5        1.0  0.5468  0.2803  0.1067  1.0000
  O   O6        1.0  0.5038  0.13440000000000005  0.11480000000000001  1.0000
  O   O7        1.0  0.5160999999999999  0.10139999999999995  0.9569  1.0000
  O   O8        1.0  0.5732  0.21199999999999988  0.7866000000000002  1.0000
  O   O9        1.0  0.45769999999999994  0.891  0.3171  1.0000
  O   O10       1.0  0.4727  0.8394  0.4617  1.0000
  O   O11       1.0  0.6075000000000003  0.944  0.5027  1.0000
  O   O12       1.0  0.7282000000000002  0.09990000000000003  0.4017  1.0000
  O   O13       1.0  0.9532  0.8465  0.2665  1.0000
  O   O14       1.0  0.9962000000000001  0.8813999999999999  0.3694  1.0000
  O   O15       1.0  0.9839  0.02700000000000001  0.4147  1.0000
  O   O16       1.0  0.9268000000000002  0.1402  0.3612  1.0000
  O   O17       1.0  0.7081  0.4333  0.109  1.0000
  O   O18       1.0  0.8011  0.3667  0.1606  1.0000
  O   O19       1.0  0.9467  0.3365  0.056000000000000015  1.0000
  O   O20       1.0  0.0015999999999999953  0.3717  0.9001  1.0000
  O   O21       1.0  0.613  0.8933  0.1535  1.0000
  O   O22       1.0  0.7508  0.8852  0.11860000000000002  1.0000
  O   O23       1.0  0.9416999999999999  0.04309999999999982  0.9730000000000002  1.0000
  O   O24       1.0  0.001400000000000036  0.21340000000000006  0.8598  1.0000
  O   O25       1.0  0.7919000000000002  0.6829  0.2748  1.0000
  O   O26       1.0  0.6989  0.5383000000000001  0.4344  1.0000
  O   O27       1.0  0.5533  0.4973000000000001  0.6102  1.0000
  O   O28       1.0  0.4984  0.5982999999999999  0.6299  1.0000
  O   O29       1.0  0.887  0.7335000000000002  0.7197  1.0000
  O   O30       1.0  0.7492  0.6306  0.8656  1.0000
  O   O31       1.0  0.5583  0.5853  0.8986  1.0000
  O   O32       1.0  0.49859999999999993  0.6387999999999999  0.7880000000000003  1.0000
  O   O33       1.0  0.9577  0.2748  0.4333  1.0000
  O   O34       1.0  0.9727  0.43440000000000006  0.3667  1.0000
  O   O35       1.0  0.1075  0.6102  0.3365  1.0000
  O   O36       1.0  0.2282  0.6299  0.3717  1.0000
  O   O37       1.0  0.45319999999999994  0.7197  0.8933  1.0000
  O   O38       1.0  0.4962000000000001  0.8656000000000005  0.8852  1.0000
  O   O39       1.0  0.48390000000000005  0.8986  0.0431  1.0000
  O   O40       1.0  0.4268  0.788  0.2134  1.0000
  O   O41       1.0  0.5423000000000002  0.10900000000000006  0.6829  1.0000
  O   O42       1.0  0.5273  0.16059999999999997  0.5383  1.0000
  O   O43       1.0  0.39250000000000007  0.05600000000000001  0.4973  1.0000
  O   O44       1.0  0.2718  0.9001  0.5983  1.0000
  O   O45       1.0  0.046799999999999994  0.15349999999999997  0.7335  1.0000
  O   O46       1.0  0.003799999999999908  0.11859999999999987  0.6306000000000003  1.0000
  O   O47       1.0  0.016099999999999923  0.9729999999999999  0.5853  1.0000
  O   O48       1.0  0.07319999999999997  0.8597999999999999  0.6388  1.0000
  O   O49       1.0  0.29190000000000005  0.5667  0.891  1.0000
  O   O50       1.0  0.19889999999999997  0.6332999999999999  0.8394000000000001  1.0000
  O   O51       1.0  0.053299999999999924  0.6634999999999999  0.9440000000000002  1.0000
  O   O52       1.0  0.9984000000000001  0.6283  0.09990000000000002  1.0000
  O   O53       1.0  0.38699999999999996  0.10669999999999993  0.8465  1.0000
  O   O54       1.0  0.2492  0.11479999999999996  0.8814  1.0000
  O   O55       1.0  0.05830000000000001  0.9569  0.027  1.0000
  O   O56       1.0  0.9986  0.7866  0.1402  1.0000
  O   O57       1.0  0.20809999999999995  0.3171  0.7252000000000001  1.0000
  O   O58       1.0  0.3011  0.4617  0.5656  1.0000
  O   O59       1.0  0.44670000000000004  0.5027000000000003  0.3898  1.0000
  O   O60       1.0  0.5016000000000002  0.40169999999999995  0.37010000000000004  1.0000
  O   O61       1.0  0.11300000000000004  0.26650000000000024  0.2803  1.0000
  O   O62       1.0  0.2508  0.3694  0.1344  1.0000
  O   O63       1.0  0.4417  0.4147  0.1014  1.0000
  O   O64       1.0  0.5014  0.36120000000000024  0.212  1.0000
