data_image0
_chemical_formula_structural       Er16H16C80N32O64
_chemical_formula_sum              "Er16 H16 C80 N32 O64"
_cell_length_a       15.873
_cell_length_b       16.3062
_cell_length_c       16.3062
_cell_angle_alpha    76.2967
_cell_angle_beta     60.87499999999999
_cell_angle_gamma    60.87499999999999

_space_group_name_H-M_alt    "P 1"
_space_group_IT_number       1

loop_
  _space_group_symop_operation_xyz
  'x, y, z'

loop_
  _atom_site_type_symbol
  _atom_site_label
  _atom_site_symmetry_multiplicity
  _atom_site_fract_x
  _atom_site_fract_y
  _atom_site_fract_z
  _atom_site_occupancy
  Er  Er1       1.0  0.7356900000000001  0.4653100000000001  0.8801599999999998  1.0000
  Er  Er2       1.0  0.011109999999999938  0.11265000000000003  0.52625  1.0000
  Er  Er3       1.0  0.58115  0.03469000000000001  0.61984  1.0000
  Er  Er4       1.0  0.15001000000000003  0.38735  0.97375  1.0000
  Er  Er5       1.0  0.6158400000000003  0.11984000000000003  0.9653199999999997  1.0000
  Er  Er6       1.0  0.5373599999999994  0.4737500000000001  0.61265  1.0000
  Er  Er7       1.0  0.2009999999999999  0.3801600000000001  0.53468  1.0000
  Er  Er8       1.0  0.1237600000000001  0.02625  0.8873499999999998  1.0000
  Er  Er9       1.0  0.26431000000000004  0.53469  0.11983999999999997  1.0000
  Er  Er10      1.0  0.98889  0.8873500000000002  0.47375  1.0000
  Er  Er11      1.0  0.4188499999999997  0.9653100000000002  0.38015999999999994  1.0000
  Er  Er12      1.0  0.84999  0.6126500000000002  0.02625  1.0000
  Er  Er13      1.0  0.3841599999999999  0.8801600000000003  0.034679999999999996  1.0000
  Er  Er14      1.0  0.46263999999999983  0.52625  0.38735  1.0000
  Er  Er15      1.0  0.799  0.6198400000000002  0.46532  1.0000
  Er  Er16      1.0  0.8762399999999999  0.9737500000000002  0.11265  1.0000
  H   H1        1.0  0.8044999999999999  0.24590000000000006  0.7561  1.0000
  H   H2        1.0  0.8591  0.21660000000000001  0.9036  1.0000
  H   H3        1.0  0.30650000000000005  0.2541  0.7438999999999998  1.0000
  H   H4        1.0  0.47930000000000006  0.2834000000000001  0.5963999999999998  1.0000
  H   H5        1.0  0.5605999999999997  0.24390000000000006  0.7459  1.0000
  H   H6        1.0  0.7626999999999999  0.0964  0.7166  1.0000
  H   H7        1.0  0.050399999999999986  0.2561  0.7541  1.0000
  H   H8        1.0  0.07570000000000006  0.4036  0.7834  1.0000
  H   H9        1.0  0.19549999999999995  0.7541000000000002  0.2439  1.0000
  H   H10       1.0  0.14090000000000003  0.7834  0.09639999999999997  1.0000
  H   H11       1.0  0.6934999999999995  0.7459000000000002  0.25609999999999994  1.0000
  H   H12       1.0  0.5207  0.7166  0.4035999999999999  1.0000
  H   H13       1.0  0.4394  0.7561  0.2541  1.0000
  H   H14       1.0  0.23730000000000007  0.9036  0.2834  1.0000
  H   H15       1.0  0.9496  0.7439  0.24589999999999995  1.0000
  H   H16       1.0  0.9242999999999997  0.5964  0.21659999999999993  1.0000
  C   C1        1.0  0.8507999999999997  0.27340000000000003  0.7196  1.0000
  C   C2        1.0  0.9238999999999999  0.3669000000000001  0.6729  1.0000
  C   C3        1.0  0.9834000000000003  0.2956000000000001  0.6071999999999999  1.0000
  C   C4        1.0  0.0778  0.2746  0.517  1.0000
  C   C5        1.0  0.9361000000000003  0.4477  0.6806999999999997  1.0000
  C   C6        1.0  0.8941999999999999  0.24010000000000006  0.9166999999999997  1.0000
  C   C7        1.0  0.9319999999999996  0.3375000000000001  0.9444999999999998  1.0000
  C   C8        1.0  0.004600000000000117  0.24590000000000006  0.9512999999999998  1.0000
  C   C9        1.0  0.10050000000000002  0.20620000000000005  0.9681999999999997  1.0000
  C   C10       1.0  0.9151  0.4312  0.9556  1.0000
  C   C11       1.0  0.34380000000000016  0.22660000000000002  0.7803999999999998  1.0000
  C   C12       1.0  0.46369999999999967  0.13310000000000005  0.8271  1.0000
  C   C13       1.0  0.38619999999999993  0.20440000000000005  0.8928  1.0000
  C   C14       1.0  0.3693999999999998  0.22540000000000004  0.983  1.0000
  C   C15       1.0  0.5645  0.05230000000000001  0.8193  1.0000
  C   C16       1.0  0.551  0.2599  0.5833  1.0000
  C   C17       1.0  0.7139999999999999  0.16250000000000006  0.5555  1.0000
  C   C18       1.0  0.7017999999999999  0.2541  0.5486999999999999  1.0000
  C   C19       1.0  0.7749  0.29380000000000006  0.5318  1.0000
  C   C20       1.0  0.8019  0.06880000000000001  0.5444  1.0000
  C   C21       1.0  0.5703999999999999  0.28040000000000004  0.7734  1.0000
  C   C22       1.0  0.5968  0.3271000000000001  0.8668999999999998  1.0000
  C   C23       1.0  0.5905999999999999  0.3928000000000001  0.7956  1.0000
  C   C24       1.0  0.5947999999999999  0.48300000000000004  0.7746  1.0000
  C   C25       1.0  0.6168  0.3193000000000001  0.9476999999999998  1.0000
  C   C26       1.0  0.8108999999999995  0.08330000000000003  0.7401  1.0000
  C   C27       1.0  0.8765  0.055500000000000015  0.8374999999999998  1.0000
  C   C28       1.0  0.9558999999999999  0.0487  0.7459  1.0000
  C   C29       1.0  0.06869999999999996  0.03180000000000001  0.7062  1.0000
  C   C30       1.0  0.8707  0.044400000000000016  0.9311999999999998  1.0000
  C   C31       1.0  0.12420000000000009  0.21960000000000002  0.7265999999999999  1.0000
  C   C32       1.0  0.2908  0.1729  0.6331  1.0000
  C   C33       1.0  0.27900000000000014  0.10720000000000003  0.7043999999999998  1.0000
  C   C34       1.0  0.35239999999999994  0.017  0.7253999999999998  1.0000
  C   C35       1.0  0.3837999999999999  0.18070000000000003  0.5523  1.0000
  C   C36       1.0  0.13430000000000014  0.4167000000000001  0.7598999999999998  1.0000
  C   C37       1.0  0.26949999999999996  0.4445000000000001  0.6625  1.0000
  C   C38       1.0  0.2505  0.4513  0.7541  1.0000
  C   C39       1.0  0.3067  0.4682000000000001  0.7937999999999997  1.0000
  C   C40       1.0  0.3463000000000001  0.4556  0.5688  1.0000
  C   C41       1.0  0.1492  0.7266000000000001  0.2803999999999999  1.0000
  C   C42       1.0  0.07610000000000006  0.6331  0.3271  1.0000
  C   C43       1.0  0.016600000000000094  0.7044  0.39279999999999987  1.0000
  C   C44       1.0  0.9221999999999999  0.7254000000000003  0.483  1.0000
  C   C45       1.0  0.06389999999999996  0.5523000000000001  0.3192999999999999  1.0000
  C   C46       1.0  0.10580000000000003  0.7599  0.08329999999999999  1.0000
  C   C47       1.0  0.0679999999999999  0.6625000000000002  0.05549999999999999  1.0000
  C   C48       1.0  0.9953999999999998  0.7541000000000002  0.0487  1.0000
  C   C49       1.0  0.8994999999999999  0.7938000000000002  0.0318  1.0000
  C   C50       1.0  0.08489999999999999  0.5688  0.0444  1.0000
  C   C51       1.0  0.6562  0.7734000000000002  0.2196  1.0000
  C   C52       1.0  0.5363000000000003  0.8669  0.17289999999999997  1.0000
  C   C53       1.0  0.6138  0.7956  0.10719999999999998  1.0000
  C   C54       1.0  0.6306  0.7746000000000002  0.017  1.0000
  C   C55       1.0  0.43549999999999983  0.9477000000000002  0.18069999999999994  1.0000
  C   C56       1.0  0.4490000000000001  0.7401  0.4166999999999999  1.0000
  C   C57       1.0  0.2859999999999998  0.8375000000000002  0.4444999999999999  1.0000
  C   C58       1.0  0.2981999999999999  0.7459000000000002  0.4513  1.0000
  C   C59       1.0  0.22509999999999997  0.7062000000000003  0.4681999999999999  1.0000
  C   C60       1.0  0.19810000000000003  0.9312  0.4555999999999999  1.0000
  C   C61       1.0  0.4296000000000001  0.7196  0.22659999999999994  1.0000
  C   C62       1.0  0.4032  0.6729  0.1331  1.0000
  C   C63       1.0  0.4093999999999999  0.6072000000000002  0.20439999999999997  1.0000
  C   C64       1.0  0.40520000000000006  0.517  0.2254  1.0000
  C   C65       1.0  0.3832  0.6807  0.0523  1.0000
  C   C66       1.0  0.18909999999999985  0.9167000000000002  0.2599  1.0000
  C   C67       1.0  0.1234999999999999  0.9445000000000002  0.1625  1.0000
  C   C68       1.0  0.044100000000000056  0.9513  0.2541  1.0000
  C   C69       1.0  0.9312999999999999  0.9682000000000002  0.2937999999999999  1.0000
  C   C70       1.0  0.12929999999999983  0.9556000000000002  0.0688  1.0000
  C   C71       1.0  0.8758  0.7804  0.2734  1.0000
  C   C72       1.0  0.7092  0.8271  0.36689999999999995  1.0000
  C   C73       1.0  0.7209999999999998  0.8928000000000003  0.29559999999999986  1.0000
  C   C74       1.0  0.6475999999999996  0.983  0.2746  1.0000
  C   C75       1.0  0.6162  0.8193  0.4477  1.0000
  C   C76       1.0  0.8656999999999997  0.5833000000000002  0.2401  1.0000
  C   C77       1.0  0.7304999999999999  0.5555  0.3374999999999999  1.0000
  C   C78       1.0  0.7495  0.5487000000000001  0.24589999999999995  1.0000
  C   C79       1.0  0.6933  0.5318  0.20619999999999997  1.0000
  C   C80       1.0  0.6537  0.5444000000000002  0.43119999999999997  1.0000
  N   N1        1.0  0.9357999999999995  0.23640000000000005  0.6382  1.0000
  N   N2        1.0  0.8376000000000002  0.35340000000000005  0.7443999999999997  1.0000
  N   N3        1.0  0.8631000000000001  0.3319  0.9198999999999998  1.0000
  N   N4        1.0  0.9789999999999999  0.18460000000000004  0.9334  1.0000
  N   N5        1.0  0.31040000000000006  0.2636  0.8617999999999998  1.0000
  N   N6        1.0  0.43539999999999995  0.14660000000000006  0.7556  1.0000
  N   N7        1.0  0.6149  0.1681  0.5801  1.0000
  N   N8        1.0  0.5969999999999996  0.3154000000000001  0.5665999999999999  1.0000
  N   N9        1.0  0.5740000000000001  0.3618  0.7364  1.0000
  N   N10       1.0  0.582  0.2556  0.8534  1.0000
  N   N11       1.0  0.7830000000000001  0.0801  0.8318999999999998  1.0000
  N   N12       1.0  0.9123999999999999  0.0666  0.6846  1.0000
  N   N13       1.0  0.17220000000000002  0.13820000000000002  0.7635999999999998  1.0000
  N   N14       1.0  0.191  0.24440000000000003  0.6466  1.0000
  N   N15       1.0  0.19499999999999995  0.4199  0.6681  1.0000
  N   N16       1.0  0.16360000000000008  0.4334  0.8153999999999998  1.0000
  N   N17       1.0  0.06419999999999997  0.7636  0.3618  1.0000
  N   N18       1.0  0.1623999999999998  0.6466000000000002  0.2556  1.0000
  N   N19       1.0  0.1368999999999999  0.6681  0.0801  1.0000
  N   N20       1.0  0.021000000000000036  0.8154  0.06659999999999999  1.0000
  N   N21       1.0  0.6896  0.7364  0.1382  1.0000
  N   N22       1.0  0.5645999999999995  0.8534000000000003  0.24439999999999998  1.0000
  N   N23       1.0  0.3851  0.8319  0.4199  1.0000
  N   N24       1.0  0.4029999999999998  0.6846  0.4334  1.0000
  N   N25       1.0  0.42599999999999993  0.6382000000000002  0.2636  1.0000
  N   N26       1.0  0.4179999999999999  0.7444  0.1466  1.0000
  N   N27       1.0  0.21699999999999992  0.9199000000000003  0.16809999999999994  1.0000
  N   N28       1.0  0.08759999999999987  0.9334000000000002  0.3153999999999999  1.0000
  N   N29       1.0  0.8277999999999998  0.8618000000000002  0.23639999999999994  1.0000
  N   N30       1.0  0.8090000000000002  0.7556  0.3534  1.0000
  N   N31       1.0  0.8050000000000002  0.5801  0.3318999999999999  1.0000
  N   N32       1.0  0.8363999999999995  0.5666000000000002  0.1846  1.0000
  O   O1        1.0  0.10459999999999997  0.20370000000000002  0.4717  1.0000
  O   O2        1.0  0.13409999999999989  0.3190000000000001  0.4827999999999999  1.0000
  O   O3        1.0  0.020899999999999995  0.4558  0.6276  1.0000
  O   O4        1.0  0.8575999999999999  0.5056  0.7455999999999999  1.0000
  O   O5        1.0  0.1553  0.1184  0.9562  1.0000
  O   O6        1.0  0.12100000000000018  0.2576  0.9943999999999997  1.0000
  O   O7        1.0  0.9646999999999999  0.44710000000000005  0.9878999999999999  1.0000
  O   O8        1.0  0.8457999999999999  0.4997000000000001  0.9331  1.0000
  O   O9        1.0  0.28  0.2963  0.0283  1.0000
  O   O10       1.0  0.4359  0.181  0.0172  1.0000
  O   O11       1.0  0.6043  0.0442  0.8724  1.0000
  O   O12       1.0  0.6088  0.9944  0.7544  1.0000
  O   O13       1.0  0.7298999999999997  0.3816  0.5437999999999998  1.0000
  O   O14       1.0  0.8729999999999996  0.24240000000000006  0.5056  1.0000
  O   O15       1.0  0.8997  0.05290000000000001  0.5121  1.0000
  O   O16       1.0  0.7786000000000001  0.0003000000000000001  0.5669  1.0000
  O   O17       1.0  0.5763  0.5283  0.7037  1.0000
  O   O18       1.0  0.6169  0.5172  0.8189999999999997  1.0000
  O   O19       1.0  0.6485000000000001  0.3724000000000001  0.9557999999999998  1.0000
  O   O20       1.0  0.6031999999999996  0.25440000000000007  0.005599999999999999  1.0000
  O   O21       1.0  0.1115000000000001  0.0438  0.6183999999999997  1.0000
  O   O22       1.0  0.1154  0.0056  0.7576  1.0000
  O   O23       1.0  0.9526000000000001  0.012100000000000003  0.9470999999999998  1.0000
  O   O24       1.0  0.7789  0.0669  0.9996999999999998  1.0000
  O   O25       1.0  0.3082999999999999  0.9717000000000002  0.7963  1.0000
  O   O26       1.0  0.45310000000000006  0.9828  0.681  1.0000
  O   O27       1.0  0.4767  0.1276  0.5442  1.0000
  O   O28       1.0  0.3632000000000001  0.2456  0.4943999999999999  1.0000
  O   O29       1.0  0.2737  0.4562000000000001  0.8816  1.0000
  O   O30       1.0  0.3785999999999997  0.4944000000000001  0.7423999999999997  1.0000
  O   O31       1.0  0.4118  0.4879000000000001  0.5529  1.0000
  O   O32       1.0  0.3454999999999999  0.4331000000000001  0.5003  1.0000
  O   O33       1.0  0.8953999999999999  0.7963  0.5283  1.0000
  O   O34       1.0  0.8658999999999997  0.681  0.5172  1.0000
  O   O35       1.0  0.9790999999999997  0.5442000000000002  0.3724  1.0000
  O   O36       1.0  0.1423999999999999  0.4944000000000001  0.2544  1.0000
  O   O37       1.0  0.8446999999999999  0.8816000000000003  0.043799999999999985  1.0000
  O   O38       1.0  0.8789999999999994  0.7424000000000002  0.005599999999999999  1.0000
  O   O39       1.0  0.03529999999999995  0.5529000000000001  0.012099999999999998  1.0000
  O   O40       1.0  0.1542  0.5003  0.0669  1.0000
  O   O41       1.0  0.7199999999999999  0.7037  0.9717  1.0000
  O   O42       1.0  0.5641000000000002  0.819  0.9828  1.0000
  O   O43       1.0  0.39569999999999983  0.9558000000000002  0.1276  1.0000
  O   O44       1.0  0.3912  0.0056  0.2456  1.0000
  O   O45       1.0  0.2700999999999996  0.6184000000000002  0.4562  1.0000
  O   O46       1.0  0.12699999999999992  0.7576000000000003  0.4943999999999999  1.0000
  O   O47       1.0  0.10029999999999994  0.9471  0.4879  1.0000
  O   O48       1.0  0.2213999999999998  0.9997000000000003  0.4331  1.0000
  O   O49       1.0  0.4237  0.4717  0.2963  1.0000
  O   O50       1.0  0.38309999999999994  0.4828000000000001  0.18099999999999997  1.0000
  O   O51       1.0  0.3515000000000001  0.6276  0.0442  1.0000
  O   O52       1.0  0.39680000000000004  0.7456000000000003  0.9943999999999997  1.0000
  O   O53       1.0  0.8885  0.9562000000000003  0.3816  1.0000
  O   O54       1.0  0.8845999999999999  0.9944  0.2424  1.0000
  O   O55       1.0  0.0473999999999999  0.9879000000000002  0.05289999999999999  1.0000
  O   O56       1.0  0.2210999999999999  0.9331000000000003  0.0002999999999999999  1.0000
  O   O57       1.0  0.6917  0.028300000000000006  0.2037  1.0000
  O   O58       1.0  0.5469000000000002  0.017200000000000003  0.3189999999999999  1.0000
  O   O59       1.0  0.5232999999999998  0.8724000000000002  0.45579999999999987  1.0000
  O   O60       1.0  0.6368  0.7544000000000002  0.5056  1.0000
  O   O61       1.0  0.7263000000000001  0.5438  0.11839999999999998  1.0000
  O   O62       1.0  0.6213999999999997  0.5056  0.2576  1.0000
  O   O63       1.0  0.5882000000000001  0.5121  0.4470999999999999  1.0000
  O   O64       1.0  0.6544999999999999  0.5669000000000002  0.4997  1.0000
