data_image0
_chemical_formula_structural       Cd16H64C128N64O32
_chemical_formula_sum              "Cd16 H64 C128 N64 O32"
_cell_length_a       12.38
_cell_length_b       16.488
_cell_length_c       21.246
_cell_angle_alpha    90.0
_cell_angle_beta     90.0
_cell_angle_gamma    90.0

_space_group_name_H-M_alt    "P 1"
_space_group_IT_number       1

loop_
  _space_group_symop_operation_xyz
  'x, y, z'

loop_
  _atom_site_type_symbol
  _atom_site_label
  _atom_site_symmetry_multiplicity
  _atom_site_fract_x
  _atom_site_fract_y
  _atom_site_fract_z
  _atom_site_occupancy
  Cd  Cd1       1.0  0.4808100000000001  0.9396899999999998  0.7287  1.0000
  Cd  Cd2       1.0  0.22644  0.82072  0.68725  1.0000
  Cd  Cd3       1.0  0.7291500000000001  0.79922  0.7316  1.0000
  Cd  Cd4       1.0  0.4881800000000001  0.82997  0.20023  1.0000
  Cd  Cd5       1.0  0.019190000000000002  0.43969  0.7713000000000001  1.0000
  Cd  Cd6       1.0  0.27356  0.32072  0.8127500000000001  1.0000
  Cd  Cd7       1.0  0.7708500000000003  0.2992199999999999  0.7684  1.0000
  Cd  Cd8       1.0  0.01182  0.32997  0.29977  1.0000
  Cd  Cd9       1.0  0.51919  0.060309999999999996  0.2713  1.0000
  Cd  Cd10      1.0  0.77356  0.17928  0.31275  1.0000
  Cd  Cd11      1.0  0.27085000000000004  0.20078  0.2684  1.0000
  Cd  Cd12      1.0  0.51182  0.17002999999999993  0.7997700000000001  1.0000
  Cd  Cd13      1.0  0.9808100000000002  0.56031  0.2287  1.0000
  Cd  Cd14      1.0  0.72644  0.67928  0.18725  1.0000
  Cd  Cd15      1.0  0.22915  0.70078  0.23160000000000003  1.0000
  Cd  Cd16      1.0  0.9881800000000001  0.67003  0.7002300000000001  1.0000
  H   H1        1.0  0.7293000000000002  0.4153  0.617  1.0000
  H   H2        1.0  0.5859  0.4593  0.5594  1.0000
  H   H3        1.0  0.4882  0.572  0.5905  1.0000
  H   H4        1.0  0.703  0.6109  0.7287  1.0000
  H   H5        1.0  0.36390000000000006  0.8733  0.9458000000000001  1.0000
  H   H6        1.0  0.071  0.7962  0.9958000000000001  1.0000
  H   H7        1.0  0.009000000000000001  0.8223  0.8949  1.0000
  H   H8        1.0  0.1266  0.8728  0.8196000000000001  1.0000
  H   H9        1.0  0.20030000000000003  0.0056  0.7389  1.0000
  H   H10       1.0  0.9447000000000002  0.082  0.6405  1.0000
  H   H11       1.0  0.031  0.20419999999999996  0.6224  1.0000
  H   H12       1.0  0.1938  0.2315  0.6698000000000001  1.0000
  H   H13       1.0  0.6927  0.23479999999999995  0.548  1.0000
  H   H14       1.0  0.6021000000000001  0.18  0.4656  1.0000
  H   H15       1.0  0.4598000000000001  0.0891  0.48410000000000003  1.0000
  H   H16       1.0  0.5254000000000001  0.0987  0.6696  1.0000
  H   H17       1.0  0.7707000000000002  0.9153  0.883  1.0000
  H   H18       1.0  0.9141  0.9592999999999998  0.9406  1.0000
  H   H19       1.0  0.011800000000000001  0.072  0.9095000000000001  1.0000
  H   H20       1.0  0.797  0.1109  0.7713000000000001  1.0000
  H   H21       1.0  0.1361  0.3732999999999999  0.5542  1.0000
  H   H22       1.0  0.429  0.2962  0.5042  1.0000
  H   H23       1.0  0.49100000000000005  0.3223  0.6051  1.0000
  H   H24       1.0  0.37340000000000007  0.3728  0.6804  1.0000
  H   H25       1.0  0.2997  0.5056  0.7611000000000001  1.0000
  H   H26       1.0  0.5553  0.582  0.8595  1.0000
  H   H27       1.0  0.469  0.7041999999999998  0.8776000000000002  1.0000
  H   H28       1.0  0.3062  0.7314999999999998  0.8302000000000002  1.0000
  H   H29       1.0  0.8073  0.7348  0.952  1.0000
  H   H30       1.0  0.8979000000000001  0.68  0.0344  1.0000
  H   H31       1.0  0.0402  0.5890999999999998  0.0159  1.0000
  H   H32       1.0  0.9746000000000002  0.5987  0.8304000000000001  1.0000
  H   H33       1.0  0.27070000000000005  0.5847  0.383  1.0000
  H   H34       1.0  0.4141000000000001  0.5407  0.44060000000000005  1.0000
  H   H35       1.0  0.5118  0.428  0.40950000000000003  1.0000
  H   H36       1.0  0.297  0.3891  0.2713  1.0000
  H   H37       1.0  0.6361  0.1267  0.0542  1.0000
  H   H38       1.0  0.929  0.2038  0.0042  1.0000
  H   H39       1.0  0.991  0.1777  0.1051  1.0000
  H   H40       1.0  0.8734000000000002  0.12719999999999995  0.1804  1.0000
  H   H41       1.0  0.7997  0.9943999999999998  0.2611  1.0000
  H   H42       1.0  0.0553  0.918  0.3595  1.0000
  H   H43       1.0  0.9690000000000001  0.7958  0.37760000000000005  1.0000
  H   H44       1.0  0.8062000000000002  0.7685  0.33020000000000005  1.0000
  H   H45       1.0  0.3073000000000001  0.7652  0.452  1.0000
  H   H46       1.0  0.39790000000000003  0.82  0.5344  1.0000
  H   H47       1.0  0.5402  0.9109  0.5159  1.0000
  H   H48       1.0  0.4746  0.9012999999999998  0.3304  1.0000
  H   H49       1.0  0.2293  0.0847  0.117  1.0000
  H   H50       1.0  0.08590000000000002  0.0407  0.0594  1.0000
  H   H51       1.0  0.9882000000000002  0.928  0.0905  1.0000
  H   H52       1.0  0.20300000000000007  0.8890999999999998  0.2287  1.0000
  H   H53       1.0  0.8639000000000002  0.6266999999999999  0.4458  1.0000
  H   H54       1.0  0.571  0.7037999999999998  0.4958000000000001  1.0000
  H   H55       1.0  0.509  0.6777  0.3949  1.0000
  H   H56       1.0  0.6266  0.6272  0.3196  1.0000
  H   H57       1.0  0.7003  0.4944  0.2389  1.0000
  H   H58       1.0  0.44470000000000004  0.418  0.1405  1.0000
  H   H59       1.0  0.5310000000000001  0.2957999999999999  0.1224  1.0000
  H   H60       1.0  0.6938000000000001  0.2685  0.1698  1.0000
  H   H61       1.0  0.1927  0.2652  0.04800000000000001  1.0000
  H   H62       1.0  0.1021  0.32  0.9656  1.0000
  H   H63       1.0  0.9598000000000002  0.41089999999999993  0.9841000000000001  1.0000
  H   H64       1.0  0.025400000000000006  0.4013  0.1696  1.0000
  C   C1        1.0  0.8313000000000001  0.483  0.7116000000000001  1.0000
  C   C2        1.0  0.7319  0.51  0.6774  1.0000
  C   C3        1.0  0.6946000000000001  0.4635  0.6276  1.0000
  C   C4        1.0  0.6078  0.48839999999999995  0.5947  1.0000
  C   C5        1.0  0.5501  0.5571  0.6125  1.0000
  C   C6        1.0  0.585  0.6033  0.663  1.0000
  C   C7        1.0  0.5234  0.6768  0.6804  1.0000
  C   C8        1.0  0.6776  0.5799  0.6953  1.0000
  C   C9        1.0  0.3347  0.9016999999999997  0.8253  1.0000
  C   C10       1.0  0.258  0.876  0.8748000000000001  1.0000
  C   C11       1.0  0.2926  0.8617999999999998  0.9353000000000001  1.0000
  C   C12       1.0  0.22550000000000003  0.8312999999999998  0.9806  1.0000
  C   C13       1.0  0.2644  0.8131  0.0437  1.0000
  C   C14       1.0  0.118  0.8164999999999998  0.9655000000000001  1.0000
  C   C15       1.0  0.08090000000000001  0.832  0.9052  1.0000
  C   C16       1.0  0.1516  0.8621  0.8601000000000001  1.0000
  C   C17       1.0  0.3193  0.1392  0.74  1.0000
  C   C18       1.0  0.2139  0.12209999999999999  0.709  1.0000
  C   C19       1.0  0.16500000000000004  0.0459  0.7161  1.0000
  C   C20       1.0  0.0656  0.03  0.6899  1.0000
  C   C21       1.0  0.012400000000000003  0.9526  0.6986  1.0000
  C   C22       1.0  0.0136  0.0909  0.6566  1.0000
  C   C23       1.0  0.064  0.165  0.6473  1.0000
  C   C24       1.0  0.1621  0.1808  0.6746  1.0000
  C   C25       1.0  0.6774  0.21  0.6715  1.0000
  C   C26       1.0  0.6196  0.17159999999999995  0.6164000000000001  1.0000
  C   C27       1.0  0.6398  0.1959  0.5554  1.0000
  C   C28       1.0  0.5848000000000001  0.16479999999999997  0.5065  1.0000
  C   C29       1.0  0.5003  0.1087  0.5177  1.0000
  C   C30       1.0  0.4773000000000001  0.08239999999999999  0.579  1.0000
  C   C31       1.0  0.39370000000000005  0.0225  0.5905  1.0000
  C   C32       1.0  0.5388000000000001  0.115  0.6284  1.0000
  C   C33       1.0  0.6687000000000002  0.983  0.7884  1.0000
  C   C34       1.0  0.7681  0.01  0.8226  1.0000
  C   C35       1.0  0.8054000000000002  0.9635  0.8724  1.0000
  C   C36       1.0  0.8922  0.9883999999999998  0.9053000000000001  1.0000
  C   C37       1.0  0.9499000000000002  0.0571  0.8875000000000001  1.0000
  C   C38       1.0  0.9150000000000001  0.10329999999999998  0.837  1.0000
  C   C39       1.0  0.9766  0.1768  0.8196000000000001  1.0000
  C   C40       1.0  0.8224  0.07989999999999998  0.8047  1.0000
  C   C41       1.0  0.1653  0.4017  0.6747  1.0000
  C   C42       1.0  0.24200000000000005  0.376  0.6252  1.0000
  C   C43       1.0  0.2074  0.3618  0.5647  1.0000
  C   C44       1.0  0.2745  0.3313  0.5194  1.0000
  C   C45       1.0  0.23560000000000003  0.3131  0.4563  1.0000
  C   C46       1.0  0.382  0.3165  0.5345  1.0000
  C   C47       1.0  0.4191  0.3319999999999999  0.5948000000000001  1.0000
  C   C48       1.0  0.3484  0.3620999999999999  0.6399000000000001  1.0000
  C   C49       1.0  0.1807  0.6391999999999999  0.7600000000000001  1.0000
  C   C50       1.0  0.2861  0.6221  0.791  1.0000
  C   C51       1.0  0.335  0.5459  0.7839  1.0000
  C   C52       1.0  0.43440000000000006  0.53  0.8101  1.0000
  C   C53       1.0  0.4876000000000001  0.4526  0.8014  1.0000
  C   C54       1.0  0.4864000000000001  0.5909  0.8434  1.0000
  C   C55       1.0  0.436  0.665  0.8527  1.0000
  C   C56       1.0  0.3379  0.6808  0.8253999999999999  1.0000
  C   C57       1.0  0.8226  0.71  0.8285000000000001  1.0000
  C   C58       1.0  0.8804000000000002  0.6715999999999998  0.8836  1.0000
  C   C59       1.0  0.8602000000000002  0.6959  0.9446  1.0000
  C   C60       1.0  0.9152000000000001  0.6648  0.9935  1.0000
  C   C61       1.0  0.9997  0.6087  0.9823  1.0000
  C   C62       1.0  0.022700000000000005  0.5824  0.921  1.0000
  C   C63       1.0  0.1063  0.5225  0.9095000000000001  1.0000
  C   C64       1.0  0.9612000000000002  0.615  0.8716  1.0000
  C   C65       1.0  0.16870000000000002  0.517  0.2884  1.0000
  C   C66       1.0  0.2681  0.49  0.3226  1.0000
  C   C67       1.0  0.3054  0.5364999999999998  0.3724  1.0000
  C   C68       1.0  0.3922  0.5115999999999999  0.4053  1.0000
  C   C69       1.0  0.44990000000000013  0.4429  0.38750000000000007  1.0000
  C   C70       1.0  0.415  0.3967  0.337  1.0000
  C   C71       1.0  0.47660000000000013  0.3231999999999999  0.3196  1.0000
  C   C72       1.0  0.3224000000000001  0.4201  0.3047  1.0000
  C   C73       1.0  0.6653  0.09829999999999997  0.1747  1.0000
  C   C74       1.0  0.742  0.124  0.1252  1.0000
  C   C75       1.0  0.7074000000000001  0.1382  0.0647  1.0000
  C   C76       1.0  0.7745  0.1687  0.0194  1.0000
  C   C77       1.0  0.7356  0.1869  0.9563  1.0000
  C   C78       1.0  0.8820000000000001  0.18349999999999994  0.0345  1.0000
  C   C79       1.0  0.9191  0.168  0.0948  1.0000
  C   C80       1.0  0.8484000000000002  0.13789999999999997  0.1399  1.0000
  C   C81       1.0  0.6807  0.8608  0.26  1.0000
  C   C82       1.0  0.7861  0.8779  0.291  1.0000
  C   C83       1.0  0.8350000000000001  0.9540999999999997  0.2839  1.0000
  C   C84       1.0  0.9344000000000002  0.97  0.3101  1.0000
  C   C85       1.0  0.9876000000000003  0.0474  0.3014  1.0000
  C   C86       1.0  0.9864000000000003  0.9090999999999998  0.3434  1.0000
  C   C87       1.0  0.936  0.835  0.3527  1.0000
  C   C88       1.0  0.8379000000000001  0.8191999999999998  0.3254  1.0000
  C   C89       1.0  0.32260000000000005  0.79  0.3285  1.0000
  C   C90       1.0  0.38040000000000007  0.8284  0.38360000000000005  1.0000
  C   C91       1.0  0.3602000000000001  0.8040999999999998  0.44460000000000005  1.0000
  C   C92       1.0  0.4152  0.8352  0.4935  1.0000
  C   C93       1.0  0.4997  0.8912999999999998  0.4823  1.0000
  C   C94       1.0  0.5227  0.9176  0.42099999999999993  1.0000
  C   C95       1.0  0.6063000000000001  0.9775  0.40950000000000003  1.0000
  C   C96       1.0  0.46120000000000005  0.885  0.3716  1.0000
  C   C97       1.0  0.3313  0.016999999999999994  0.2116  1.0000
  C   C98       1.0  0.23190000000000005  0.99  0.1774  1.0000
  C   C99       1.0  0.1946  0.036499999999999984  0.1276  1.0000
  C   C100      1.0  0.1078  0.0116  0.0947  1.0000
  C   C101      1.0  0.050100000000000006  0.9429  0.1125  1.0000
  C   C102      1.0  0.08500000000000002  0.8966999999999998  0.163  1.0000
  C   C103      1.0  0.0234  0.8232  0.1804  1.0000
  C   C104      1.0  0.1776  0.9201  0.1953  1.0000
  C   C105      1.0  0.8347  0.5983  0.3253  1.0000
  C   C106      1.0  0.758  0.6239999999999998  0.3748  1.0000
  C   C107      1.0  0.7926000000000002  0.6382  0.4353  1.0000
  C   C108      1.0  0.7255  0.6687  0.4806  1.0000
  C   C109      1.0  0.7644  0.6869  0.5437  1.0000
  C   C110      1.0  0.618  0.6835  0.4655  1.0000
  C   C111      1.0  0.5809  0.668  0.4052  1.0000
  C   C112      1.0  0.6516  0.6379  0.3601  1.0000
  C   C113      1.0  0.8193  0.3607999999999999  0.24  1.0000
  C   C114      1.0  0.7139  0.3779  0.209  1.0000
  C   C115      1.0  0.6650000000000003  0.4541  0.2161  1.0000
  C   C116      1.0  0.5656  0.47  0.1899  1.0000
  C   C117      1.0  0.5124  0.5474  0.1986  1.0000
  C   C118      1.0  0.5136  0.4091  0.1566  1.0000
  C   C119      1.0  0.564  0.335  0.1473  1.0000
  C   C120      1.0  0.6621000000000002  0.3192  0.1746  1.0000
  C   C121      1.0  0.1774  0.29  0.1715  1.0000
  C   C122      1.0  0.1196  0.3284  0.1164  1.0000
  C   C123      1.0  0.1398  0.3041  0.055400000000000005  1.0000
  C   C124      1.0  0.08480000000000003  0.3352  0.0065  1.0000
  C   C125      1.0  0.0003  0.3913  0.0177  1.0000
  C   C126      1.0  0.9773000000000002  0.4176  0.079  1.0000
  C   C127      1.0  0.8937  0.4775  0.0905  1.0000
  C   C128      1.0  0.0388  0.385  0.1284  1.0000
  N   N1        1.0  0.5626  0.7423  0.7088000000000001  1.0000
  N   N2        1.0  0.4789  0.7951  0.7115  1.0000
  N   N3        1.0  0.3947  0.7611  0.6856  1.0000
  N   N4        1.0  0.4198000000000001  0.686  0.6656  1.0000
  N   N5        1.0  0.3545  0.8434  0.0694  1.0000
  N   N6        1.0  0.3599000000000001  0.8104  0.127  1.0000
  N   N7        1.0  0.2764  0.762  0.1353  1.0000
  N   N8        1.0  0.2144  0.7624  0.0835  1.0000
  N   N9        1.0  0.06090000000000001  0.8783  0.6994000000000001  1.0000
  N   N10       1.0  0.9803000000000001  0.8242999999999998  0.7093  1.0000
  N   N11       1.0  0.8892000000000001  0.8642999999999997  0.7132000000000001  1.0000
  N   N12       1.0  0.9060000000000002  0.9448  0.706  1.0000
  N   N13       1.0  0.3916  0.9675  0.6372  1.0000
  N   N14       1.0  0.298  0.9266999999999997  0.6278  1.0000
  N   N15       1.0  0.2498  0.9539999999999997  0.5782000000000002  1.0000
  N   N16       1.0  0.3079  0.0147  0.5539  1.0000
  N   N17       1.0  0.9374  0.24229999999999993  0.7912  1.0000
  N   N18       1.0  0.0211  0.2951  0.7885000000000001  1.0000
  N   N19       1.0  0.1053  0.2611  0.8144  1.0000
  N   N20       1.0  0.0802  0.18599999999999994  0.8344  1.0000
  N   N21       1.0  0.14550000000000002  0.3434  0.43060000000000004  1.0000
  N   N22       1.0  0.1401  0.3104  0.373  1.0000
  N   N23       1.0  0.22360000000000005  0.2619999999999999  0.3647  1.0000
  N   N24       1.0  0.2856000000000001  0.2624  0.4165  1.0000
  N   N25       1.0  0.4391  0.3782999999999999  0.8006  1.0000
  N   N26       1.0  0.5197  0.3243  0.7907000000000001  1.0000
  N   N27       1.0  0.6108  0.3643  0.7868  1.0000
  N   N28       1.0  0.594  0.4448  0.794  1.0000
  N   N29       1.0  0.10840000000000002  0.4675  0.8628  1.0000
  N   N30       1.0  0.20200000000000004  0.4267  0.8722  1.0000
  N   N31       1.0  0.2502  0.454  0.9218  1.0000
  N   N32       1.0  0.19210000000000002  0.5147  0.9461000000000002  1.0000
  N   N33       1.0  0.43740000000000007  0.2577  0.2912  1.0000
  N   N34       1.0  0.5211000000000001  0.2049  0.2885  1.0000
  N   N35       1.0  0.6053000000000001  0.2389  0.3144  1.0000
  N   N36       1.0  0.5802  0.314  0.3344  1.0000
  N   N37       1.0  0.6455000000000001  0.15659999999999993  0.9306  1.0000
  N   N38       1.0  0.6401  0.1896  0.873  1.0000
  N   N39       1.0  0.7236  0.238  0.8647  1.0000
  N   N40       1.0  0.7856  0.2376  0.9165  1.0000
  N   N41       1.0  0.9391  0.12169999999999999  0.3006  1.0000
  N   N42       1.0  0.0197  0.1757  0.2907  1.0000
  N   N43       1.0  0.11080000000000002  0.1357  0.2868  1.0000
  N   N44       1.0  0.09400000000000003  0.0552  0.294  1.0000
  N   N45       1.0  0.6084  0.0325  0.3628  1.0000
  N   N46       1.0  0.702  0.07329999999999998  0.3722  1.0000
  N   N47       1.0  0.7502  0.046  0.4218  1.0000
  N   N48       1.0  0.6921  0.9853  0.4461  1.0000
  N   N49       1.0  0.06260000000000002  0.7577  0.20880000000000004  1.0000
  N   N50       1.0  0.9789000000000001  0.7049  0.2115  1.0000
  N   N51       1.0  0.8947  0.7388999999999998  0.1856  1.0000
  N   N52       1.0  0.9198000000000002  0.8139999999999997  0.1656  1.0000
  N   N53       1.0  0.8545  0.6565999999999997  0.5694  1.0000
  N   N54       1.0  0.8599  0.6896  0.627  1.0000
  N   N55       1.0  0.7764  0.738  0.6353  1.0000
  N   N56       1.0  0.7144  0.7376  0.5835  1.0000
  N   N57       1.0  0.5609  0.6216999999999999  0.1994  1.0000
  N   N58       1.0  0.4803000000000001  0.6757  0.2093  1.0000
  N   N59       1.0  0.3892  0.6357  0.2132  1.0000
  N   N60       1.0  0.40600000000000014  0.5552  0.20600000000000002  1.0000
  N   N61       1.0  0.8916  0.5325  0.1372  1.0000
  N   N62       1.0  0.798  0.5733  0.1278  1.0000
  N   N63       1.0  0.7498  0.546  0.0782  1.0000
  N   N64       1.0  0.8079  0.48529999999999995  0.05390000000000001  1.0000
  O   O1        1.0  0.8956000000000001  0.5334  0.7338  1.0000
  O   O2        1.0  0.8494  0.4073  0.7179  1.0000
  O   O3        1.0  0.4286  0.9258  0.8391  1.0000
  O   O4        1.0  0.3073000000000001  0.8957  0.7674000000000001  1.0000
  O   O5        1.0  0.38400000000000006  0.0837  0.7537  1.0000
  O   O6        1.0  0.3446  0.2126  0.7538  1.0000
  O   O7        1.0  0.6424000000000001  0.2  0.7267  1.0000
  O   O8        1.0  0.7594000000000002  0.2526  0.6627  1.0000
  O   O9        1.0  0.6044000000000002  0.0334  0.7662  1.0000
  O   O10       1.0  0.6506  0.9073  0.7821  1.0000
  O   O11       1.0  0.07140000000000002  0.4257999999999999  0.6609  1.0000
  O   O12       1.0  0.1927  0.3956999999999999  0.7326  1.0000
  O   O13       1.0  0.11600000000000002  0.5837  0.7463  1.0000
  O   O14       1.0  0.15540000000000004  0.7126  0.7462  1.0000
  O   O15       1.0  0.8576  0.7  0.7733000000000001  1.0000
  O   O16       1.0  0.7406000000000001  0.7526  0.8373  1.0000
  O   O17       1.0  0.1044  0.4666  0.2662  1.0000
  O   O18       1.0  0.1506  0.5927  0.2821  1.0000
  O   O19       1.0  0.5714000000000001  0.0742  0.1609  1.0000
  O   O20       1.0  0.6927  0.10429999999999999  0.2326  1.0000
  O   O21       1.0  0.616  0.9162999999999998  0.24630000000000002  1.0000
  O   O22       1.0  0.6554  0.7874  0.2462  1.0000
  O   O23       1.0  0.35760000000000003  0.8  0.2733  1.0000
  O   O24       1.0  0.24060000000000004  0.7474  0.3373  1.0000
  O   O25       1.0  0.3956  0.9665999999999998  0.2338  1.0000
  O   O26       1.0  0.3494000000000001  0.09269999999999998  0.2179  1.0000
  O   O27       1.0  0.9286000000000001  0.5741999999999999  0.3391  1.0000
  O   O28       1.0  0.8073  0.6043  0.2674  1.0000
  O   O29       1.0  0.884  0.4163  0.2537  1.0000
  O   O30       1.0  0.8446  0.2874  0.2538  1.0000
  O   O31       1.0  0.1424  0.3  0.2267  1.0000
  O   O32       1.0  0.2594  0.2474  0.1627  1.0000
