data_image0
_chemical_formula_structural       Na8Co4H48C96O32
_chemical_formula_sum              "Na8 Co4 H48 C96 O32"
_cell_length_a       13.3297
_cell_length_b       16.3213
_cell_length_c       16.3213
_cell_angle_alpha    80.401
_cell_angle_beta     65.8987
_cell_angle_gamma    65.8987

_symmetry_space_group_name_H-M    'P 1'
_symmetry_Int_Tables_number       1

loop_
  _symmetry_equiv_pos_as_xyz
  'x,y,z'

loop_
  _atom_site_type_symbol
  _atom_site_label
  _atom_site_symmetry_multiplicity
  _atom_site_fract_x
  _atom_site_fract_y
  _atom_site_fract_z
  _atom_site_occupancy
  Na  Na1       1.0  0.39379  0.9304  0.09248  1.0000
  Na  Na2       1.0  0.41666999999999993  0.0696  0.90752  1.0000
  Na  Na3       1.0  0.73627  0.40752  0.4304  1.0000
  Na  Na4       1.0  0.5741900000000001  0.59248  0.5695999999999999  1.0000
  Na  Na5       1.0  0.91667  0.90752  0.0696  1.0000
  Na  Na6       1.0  0.8937900000000001  0.09248  0.9304  1.0000
  Na  Na7       1.0  0.07418999999999994  0.5696  0.59248  1.0000
  Na  Na8       1.0  0.23626999999999995  0.4304  0.40752  1.0000
  Co  Co1       1.0  0.63702  0.0  0.0  1.0000
  Co  Co2       1.0  0.8870199999999999  0.5  0.5  1.0000
  Co  Co3       1.0  0.13702  0.0  0.0  1.0000
  Co  Co4       1.0  0.38701999999999986  0.5  0.5  1.0000
  H   H1        1.0  0.6410999999999999  0.7304  0.1602  1.0000
  H   H2        1.0  0.6755999999999999  0.6233  0.2689  1.0000
  H   H3        1.0  0.7901  0.7469  0.4355  1.0000
  H   H4        1.0  0.8018999999999995  0.8819  0.4361  1.0000
  H   H5        1.0  0.7670999999999998  0.9889  0.3289  1.0000
  H   H6        1.0  0.7081000000000001  0.9653  0.22549999999999995  1.0000
  H   H7        1.0  0.5317  0.2696  0.8398  1.0000
  H   H8        1.0  0.5678  0.3767  0.7311  1.0000
  H   H9        1.0  0.9724999999999996  0.2531  0.5645  1.0000
  H   H10       1.0  0.11989999999999998  0.1181  0.5639  1.0000
  H   H11       1.0  0.08490000000000004  0.0111  0.6710999999999999  1.0000
  H   H12       1.0  0.8989000000000001  0.0347  0.7744999999999997  1.0000
  H   H13       1.0  0.05130000000000003  0.3398  0.2304  1.0000
  H   H14       1.0  0.19449999999999995  0.2311  0.1233  1.0000
  H   H15       1.0  0.47559999999999997  0.0645  0.2469  1.0000
  H   H16       1.0  0.48800000000000004  0.0639  0.3819  1.0000
  H   H17       1.0  0.34600000000000003  0.17109999999999997  0.4889  1.0000
  H   H18       1.0  0.18360000000000018  0.2745  0.4652999999999999  1.0000
  H   H19       1.0  0.6215  0.6602  0.7696  1.0000
  H   H20       1.0  0.5489  0.7689  0.8766999999999999  1.0000
  H   H21       1.0  0.787  0.9355  0.7531  1.0000
  H   H22       1.0  0.9338  0.9361  0.6181  1.0000
  H   H23       1.0  0.006000000000000016  0.8289  0.5111  1.0000
  H   H24       1.0  0.9234  0.7255  0.5347  1.0000
  H   H25       1.0  0.0317  0.8398  0.2696  1.0000
  H   H26       1.0  0.06780000000000003  0.7311  0.3767  1.0000
  H   H27       1.0  0.47249999999999975  0.5645  0.2531  1.0000
  H   H28       1.0  0.6198999999999999  0.5639  0.11809999999999997  1.0000
  H   H29       1.0  0.5849  0.6711  0.0111  1.0000
  H   H30       1.0  0.3989  0.7745  0.03469999999999999  1.0000
  H   H31       1.0  0.14110000000000006  0.16019999999999998  0.7304  1.0000
  H   H32       1.0  0.17560000000000003  0.2689  0.6233  1.0000
  H   H33       1.0  0.29010000000000014  0.4355  0.7469  1.0000
  H   H34       1.0  0.3019000000000003  0.4361  0.8818999999999999  1.0000
  H   H35       1.0  0.2670999999999998  0.3289  0.9889  1.0000
  H   H36       1.0  0.20809999999999995  0.2255  0.9653  1.0000
  H   H37       1.0  0.12150000000000004  0.7696  0.6602  1.0000
  H   H38       1.0  0.048900000000000055  0.8767  0.7689  1.0000
  H   H39       1.0  0.287  0.7531  0.9355  1.0000
  H   H40       1.0  0.4338  0.6181  0.9361  1.0000
  H   H41       1.0  0.5059999999999998  0.5111  0.8289  1.0000
  H   H42       1.0  0.42340000000000005  0.5347  0.7255  1.0000
  H   H43       1.0  0.5513000000000001  0.2304  0.3398  1.0000
  H   H44       1.0  0.6945  0.1233  0.2311  1.0000
  H   H45       1.0  0.9756  0.2469  0.0645  1.0000
  H   H46       1.0  0.9879999999999995  0.3819  0.0639  1.0000
  H   H47       1.0  0.846  0.4889  0.1711  1.0000
  H   H48       1.0  0.6836  0.4653  0.2745  1.0000
  C   C1        1.0  0.66129  0.8821599999999999  0.12145999999999998  1.0000
  C   C2        1.0  0.68249  0.81863  0.19739  1.0000
  C   C3        1.0  0.6666  0.74076  0.20123999999999995  1.0000
  C   C4        1.0  0.6883999999999998  0.67569  0.26671  1.0000
  C   C5        1.0  0.7277199999999999  0.6876499999999999  0.3267099999999999  1.0000
  C   C6        1.0  0.7405399999999998  0.77029  0.32743  1.0000
  C   C7        1.0  0.7736000000000001  0.78977  0.39263  1.0000
  C   C8        1.0  0.7814000000000001  0.8701  0.3925  1.0000
  C   C9        1.0  0.7591199999999999  0.93499  0.32877  1.0000
  C   C10       1.0  0.7258800000000003  0.92024  0.2664  1.0000
  C   C11       1.0  0.7177  0.83742  0.26218  1.0000
  C   C12       1.0  0.753  0.60991  0.39148999999999995  1.0000
  C   C13       1.0  0.6649100000000001  0.11784  0.8785399999999998  1.0000
  C   C14       1.0  0.69851  0.18136999999999998  0.80261  1.0000
  C   C15       1.0  0.6086  0.25924  0.79876  1.0000
  C   C16       1.0  0.6308  0.32431  0.73329  1.0000
  C   C17       1.0  0.7420800000000001  0.31235  0.6732899999999998  1.0000
  C   C18       1.0  0.8382600000000001  0.22971  0.6725699999999998  1.0000
  C   C19       1.0  0.956  0.21023  0.60737  1.0000
  C   C20       1.0  0.04400000000000002  0.1299  0.6075  1.0000
  C   C21       1.0  0.022879999999999987  0.06501  0.67123  1.0000
  C   C22       1.0  0.91252  0.07976  0.7336  1.0000
  C   C23       1.0  0.8172999999999999  0.16257999999999997  0.73782  1.0000
  C   C24       1.0  0.7544000000000001  0.39009  0.60851  1.0000
  C   C25       1.0  0.03275000000000006  0.37854  0.38216  1.0000
  C   C26       1.0  0.12988000000000005  0.30260999999999993  0.31862999999999997  1.0000
  C   C27       1.0  0.11784000000000006  0.29876  0.24075999999999995  1.0000
  C   C28       1.0  0.20511000000000001  0.23329  0.17569  1.0000
  C   C29       1.0  0.30443  0.17329  0.18765  1.0000
  C   C30       1.0  0.3179699999999999  0.17257  0.27029  1.0000
  C   C31       1.0  0.41622999999999993  0.10737  0.28977  1.0000
  C   C32       1.0  0.42390000000000005  0.1075  0.3701  1.0000
  C   C33       1.0  0.33789  0.17123  0.4349899999999999  1.0000
  C   C34       1.0  0.24228000000000002  0.2336  0.42024  1.0000
  C   C35       1.0  0.22988000000000006  0.23782  0.3374199999999999  1.0000
  C   C36       1.0  0.39448999999999995  0.10851  0.10990999999999998  1.0000
  C   C37       1.0  0.7934499999999999  0.62146  0.61784  1.0000
  C   C38       1.0  0.7511199999999999  0.69739  0.68137  1.0000
  C   C39       1.0  0.6573599999999999  0.70124  0.75924  1.0000
  C   C40       1.0  0.6140900000000001  0.76671  0.8243099999999999  1.0000
  C   C41       1.0  0.6653699999999999  0.82671  0.81235  1.0000
  C   C42       1.0  0.7608300000000006  0.82743  0.72971  1.0000
  C   C43       1.0  0.81337  0.89263  0.71023  1.0000
  C   C44       1.0  0.9015000000000002  0.8924999999999997  0.6299  1.0000
  C   C45       1.0  0.94411  0.82877  0.56501  1.0000
  C   C46       1.0  0.8961199999999999  0.7663999999999999  0.57976  1.0000
  C   C47       1.0  0.8051200000000003  0.76218  0.6625799999999997  1.0000
  C   C48       1.0  0.6129099999999998  0.89149  0.89009  1.0000
  C   C49       1.0  0.16490999999999997  0.87854  0.11784  1.0000
  C   C50       1.0  0.19850999999999996  0.80261  0.18137  1.0000
  C   C51       1.0  0.10859999999999995  0.79876  0.25924  1.0000
  C   C52       1.0  0.1308000000000001  0.73329  0.32431  1.0000
  C   C53       1.0  0.24208000000000007  0.6732899999999999  0.31235  1.0000
  C   C54       1.0  0.33826  0.67257  0.22970999999999994  1.0000
  C   C55       1.0  0.45600000000000007  0.60737  0.21022999999999997  1.0000
  C   C56       1.0  0.544  0.6075  0.1299  1.0000
  C   C57       1.0  0.52288  0.67123  0.06501  1.0000
  C   C58       1.0  0.41252  0.7336  0.07976  1.0000
  C   C59       1.0  0.3172999999999999  0.73782  0.16258  1.0000
  C   C60       1.0  0.2544  0.60851  0.39009  1.0000
  C   C61       1.0  0.16129000000000007  0.12145999999999998  0.88216  1.0000
  C   C62       1.0  0.18248999999999996  0.19739  0.81863  1.0000
  C   C63       1.0  0.1666  0.20124  0.74076  1.0000
  C   C64       1.0  0.18840000000000007  0.26671  0.67569  1.0000
  C   C65       1.0  0.22772000000000012  0.32671  0.6876499999999998  1.0000
  C   C66       1.0  0.24054000000000023  0.32743  0.7702899999999998  1.0000
  C   C67       1.0  0.2736000000000003  0.39263  0.7897699999999997  1.0000
  C   C68       1.0  0.28140000000000004  0.3925  0.8700999999999998  1.0000
  C   C69       1.0  0.25911999999999996  0.32877  0.93499  1.0000
  C   C70       1.0  0.22588000000000008  0.2664  0.9202399999999998  1.0000
  C   C71       1.0  0.21769999999999998  0.26218  0.83742  1.0000
  C   C72       1.0  0.253  0.39149  0.60991  1.0000
  C   C73       1.0  0.29344999999999993  0.61784  0.62146  1.0000
  C   C74       1.0  0.2511200000000001  0.68137  0.6973899999999997  1.0000
  C   C75       1.0  0.15735999999999992  0.75924  0.70124  1.0000
  C   C76       1.0  0.11409  0.82431  0.76671  1.0000
  C   C77       1.0  0.1653700000000001  0.81235  0.8267099999999997  1.0000
  C   C78       1.0  0.2608300000000002  0.72971  0.8274299999999998  1.0000
  C   C79       1.0  0.3133700000000001  0.71023  0.8926299999999999  1.0000
  C   C80       1.0  0.40149999999999997  0.6299  0.8925  1.0000
  C   C81       1.0  0.4441100000000001  0.56501  0.8287699999999998  1.0000
  C   C82       1.0  0.3961199999999998  0.57976  0.7664  1.0000
  C   C83       1.0  0.3051200000000001  0.66258  0.7621799999999999  1.0000
  C   C84       1.0  0.11291000000000002  0.8900899999999999  0.89149  1.0000
  C   C85       1.0  0.53275  0.38216  0.37854  1.0000
  C   C86       1.0  0.62988  0.31863  0.30261  1.0000
  C   C87       1.0  0.6178400000000001  0.24076  0.2987599999999999  1.0000
  C   C88       1.0  0.70511  0.17569  0.23328999999999994  1.0000
  C   C89       1.0  0.80443  0.18765  0.17328999999999994  1.0000
  C   C90       1.0  0.8179700000000001  0.2702899999999999  0.17257  1.0000
  C   C91       1.0  0.9162299999999998  0.28977  0.10736999999999997  1.0000
  C   C92       1.0  0.9239000000000002  0.3701  0.1075  1.0000
  C   C93       1.0  0.83789  0.43499  0.17123  1.0000
  C   C94       1.0  0.7422800000000002  0.42024  0.23359999999999995  1.0000
  C   C95       1.0  0.7298800000000001  0.33742  0.23782  1.0000
  C   C96       1.0  0.89449  0.10991  0.10850999999999997  1.0000
  O   O1        1.0  0.57903  0.88949  0.10004999999999997  1.0000
  O   O2        1.0  0.72755  0.9262  0.0818  1.0000
  O   O3        1.0  0.8378300000000001  0.59664  0.41549999999999987  1.0000
  O   O4        1.0  0.69024  0.56513  0.41599  1.0000
  O   O5        1.0  0.5685700000000001  0.11051  0.89995  1.0000
  O   O6        1.0  0.7355500000000004  0.0738  0.9181999999999998  1.0000
  O   O7        1.0  0.8499700000000001  0.40336  0.5844999999999998  1.0000
  O   O8        1.0  0.67136  0.43487  0.58401  1.0000
  O   O9        1.0  0.92908  0.39995  0.3894899999999999  1.0000
  O   O10       1.0  0.05935  0.4182  0.4262  1.0000
  O   O11       1.0  0.50333  0.0845  0.09663999999999998  1.0000
  O   O12       1.0  0.35623  0.08401  0.06513  1.0000
  O   O13       1.0  0.71852  0.60005  0.61051  1.0000
  O   O14       1.0  0.9037499999999999  0.5818  0.5738  1.0000
  O   O15       1.0  0.68447  0.9155  0.9033599999999999  1.0000
  O   O16       1.0  0.5053700000000001  0.91599  0.9348699999999998  1.0000
  O   O17       1.0  0.0685700000000001  0.8999499999999999  0.11051  1.0000
  O   O18       1.0  0.2355500000000001  0.9182  0.07379999999999998  1.0000
  O   O19       1.0  0.34997000000000006  0.5845  0.40336  1.0000
  O   O20       1.0  0.17135999999999998  0.58401  0.43487  1.0000
  O   O21       1.0  0.07902999999999999  0.10005  0.88949  1.0000
  O   O22       1.0  0.22754999999999995  0.0818  0.9262  1.0000
  O   O23       1.0  0.3378300000000003  0.4155  0.59664  1.0000
  O   O24       1.0  0.19024  0.41599  0.56513  1.0000
  O   O25       1.0  0.2185199999999999  0.61051  0.60005  1.0000
  O   O26       1.0  0.40375000000000005  0.5738  0.5818  1.0000
  O   O27       1.0  0.18447  0.90336  0.9155  1.0000
  O   O28       1.0  0.005370000000000101  0.93487  0.9159899999999997  1.0000
  O   O29       1.0  0.4290800000000002  0.38949  0.3999499999999999  1.0000
  O   O30       1.0  0.55935  0.4262  0.4182  1.0000
  O   O31       1.0  0.0033300000000000005  0.09664  0.0845  1.0000
  O   O32       1.0  0.85623  0.06513  0.08401  1.0000
