data_image0
_chemical_formula_structural       Ca6H24C48O24
_chemical_formula_sum              "Ca6 H24 C48 O24"
_cell_length_a       10.15040841
_cell_length_b       13.82394771
_cell_length_c       14.88179243
_cell_angle_alpha    77.88624273999999
_cell_angle_beta     70.05998003
_cell_angle_gamma    68.46108229

_symmetry_space_group_name_H-M    'P 1'
_symmetry_Int_Tables_number       1

loop_
  _symmetry_equiv_pos_as_xyz
  'x,y,z'

loop_
  _atom_site_type_symbol
  _atom_site_label
  _atom_site_symmetry_multiplicity
  _atom_site_fract_x
  _atom_site_fract_y
  _atom_site_fract_z
  _atom_site_occupancy
  Ca  Ca1       1.0  0.4755614799999999  0.52591482  0.12369090999999997  1.0000
  Ca  Ca2       1.0  0.5244385200000001  0.4740851800000001  0.87630909  1.0000
  Ca  Ca3       1.0  0.12516718000000004  0.97408516  0.3763091  1.0000
  Ca  Ca4       1.0  0.21559282999999996  0.7499999900000001  0.24999999999999994  1.0000
  Ca  Ca5       1.0  0.8748328199999997  0.025914839999999995  0.6236909  1.0000
  Ca  Ca6       1.0  0.7844071699999998  0.2500000100000001  0.7499999999999998  1.0000
  H   H1        1.0  0.59051243  0.34391625000000003  0.4104907299999999  1.0000
  H   H2        1.0  0.50542598  0.82277213  0.08237766  1.0000
  H   H3        1.0  0.8275034099999999  0.17349151000000004  0.26125649  1.0000
  H   H4        1.0  0.40948757  0.6560837499999999  0.58950927  1.0000
  H   H5        1.0  0.2622514100000001  0.32650848  0.23874350999999994  1.0000
  H   H6        1.0  0.82461885  0.8163442  0.6591095699999998  1.0000
  H   H7        1.0  0.23139593000000003  0.90507686  0.03121183  1.0000
  H   H8        1.0  0.16768461999999995  0.5949231400000002  0.4687881599999999  1.0000
  H   H9        1.0  0.1724965899999998  0.82650849  0.7387435099999998  1.0000
  H   H10       1.0  0.65508059  0.84391625  0.91049073  1.0000
  H   H11       1.0  0.34491941  0.15608375  0.08950927  1.0000
  H   H12       1.0  0.7377485899999997  0.6734915200000003  0.7612564899999997  1.0000
  H   H13       1.0  0.10806432999999996  0.04952995000000001  0.9249889  1.0000
  H   H14       1.0  0.9174168300000001  0.54952995  0.4249888999999999  1.0000
  H   H15       1.0  0.7686040699999995  0.09492314000000002  0.96878817  1.0000
  H   H16       1.0  0.8919356699999997  0.9504700500000002  0.0750111  1.0000
  H   H17       1.0  0.5894242299999998  0.32277213  0.58237766  1.0000
  H   H18       1.0  0.6999273799999999  0.3163442000000001  0.15910957  1.0000
  H   H19       1.0  0.49457401999999995  0.17722787  0.91762234  1.0000
  H   H20       1.0  0.30007262000000007  0.6836558  0.8408904299999997  1.0000
  H   H21       1.0  0.0825831699999999  0.45047004999999996  0.5750111  1.0000
  H   H22       1.0  0.8323153799999998  0.4050768600000001  0.53121184  1.0000
  H   H23       1.0  0.4105757700000001  0.67722787  0.41762233999999987  1.0000
  H   H24       1.0  0.17538114999999999  0.18365580000000004  0.34089042999999997  1.0000
  C   C1        1.0  0.07497076000000001  0.61140368  0.53343114  1.0000
  C   C2        1.0  0.09457244  0.4467982300000001  0.32552811999999987  1.0000
  C   C3        1.0  0.86689879  0.05320174000000001  0.17447183999999996  1.0000
  C   C4        1.0  0.65108458  0.3013056  0.9952769599999999  1.0000
  C   C5        1.0  0.8125774199999998  0.15668115  0.19774691999999996  1.0000
  C   C6        1.0  0.9725331599999999  0.46903502  0.40752361999999986  1.0000
  C   C7        1.0  0.9250292399999998  0.3885963200000001  0.46656886999999997  1.0000
  C   C8        1.0  0.027466840000000072  0.53096498  0.59247638  1.0000
  C   C9        1.0  0.4487437199999998  0.5883280300000002  0.54957916  1.0000
  C   C10       1.0  0.32897799999999977  0.9767571800000002  0.19844867  1.0000
  C   C11       1.0  0.05008208  0.031153720000000027  0.76449441  1.0000
  C   C12       1.0  0.8490918599999999  0.030964980000000013  0.09247637  1.0000
  C   C13       1.0  0.4958161999999999  0.4767571800000002  0.69844865  1.0000
  C   C14       1.0  0.8329944899999994  0.65668117  0.69774689  1.0000
  C   C15       1.0  0.05233299999999996  0.80130565  0.49527688  1.0000
  C   C16       1.0  0.5866507899999996  0.9116719900000001  0.9504208599999998  1.0000
  C   C17       1.0  0.5041838  0.52324282  0.3015513499999999  1.0000
  C   C18       1.0  0.9476670000000003  0.19869436000000004  0.5047231199999999  1.0000
  C   C19       1.0  0.16700551000000005  0.34331883  0.3022531099999999  1.0000
  C   C20       1.0  0.18742258  0.84331885  0.80225308  1.0000
  C   C21       1.0  0.9977019500000001  0.28518366  0.4431753799999999  1.0000
  C   C22       1.0  0.84573026  0.46884635000000013  0.73550564  1.0000
  C   C23       1.0  0.15426974  0.53115365  0.26449436  1.0000
  C   C24       1.0  0.3489154199999998  0.6986944000000003  0.00472304  1.0000
  C   C25       1.0  0.11850444999999998  0.2632176400000001  0.3602506599999999  1.0000
  C   C26       1.0  0.13310120999999997  0.94679826  0.82552816  1.0000
  C   C27       1.0  0.9499179200000002  0.9688462800000001  0.23550559  1.0000
  C   C28       1.0  0.6710220000000001  0.023242820000000025  0.8015513299999998  1.0000
  C   C29       1.0  0.5045781199999998  0.8999084900000002  0.045856889999999983  1.0000
  C   C30       1.0  0.4133492100000001  0.08832801000000003  0.04957913999999999  1.0000
  C   C31       1.0  0.21980553000000008  0.88859635  0.9665688399999998  1.0000
  C   C32       1.0  0.25802732000000006  0.7632176400000003  0.8602506199999997  1.0000
  C   C33       1.0  0.49542188  0.10009151000000001  0.9541431099999997  1.0000
  C   C34       1.0  0.0022980500000000046  0.7148163400000002  0.55682462  1.0000
  C   C35       1.0  0.5496564099999999  0.39990851  0.5458569  1.0000
  C   C36       1.0  0.45034359000000007  0.60009149  0.4541430999999999  1.0000
  C   C37       1.0  0.58248922  0.011831590000000005  0.90404673  1.0000
  C   C38       1.0  0.8814955499999998  0.7367823600000001  0.63974934  1.0000
  C   C39       1.0  0.72606104  0.21481624  0.05682459999999999  1.0000
  C   C40       1.0  0.41751078  0.98816841  0.09595326999999997  1.0000
  C   C41       1.0  0.90542756  0.55320177  0.6744718799999998  1.0000
  C   C42       1.0  0.74197268  0.23678237  0.13974938  1.0000
  C   C43       1.0  0.50163251  0.51183154  0.40404679999999993  1.0000
  C   C44       1.0  0.15090814000000008  0.9690350100000001  0.9075236299999998  1.0000
  C   C45       1.0  0.78019447  0.11140365  0.03343115999999999  1.0000
  C   C46       1.0  0.49836749  0.4881684600000001  0.5959531999999997  1.0000
  C   C47       1.0  0.2739389600000002  0.78518376  0.9431753999999998  1.0000
  C   C48       1.0  0.5512562799999998  0.41167197  0.45042084  1.0000
  O   O1        1.0  0.4246441300000001  0.55492242  0.74721968  1.0000
  O   O2        1.0  0.43309939  0.6118702100000001  0.2640984699999999  1.0000
  O   O3        1.0  0.7267859599999993  0.94507752  0.75278024  1.0000
  O   O4        1.0  0.5753558700000001  0.44507758000000003  0.25278031999999995  1.0000
  O   O5        1.0  0.27321403999999994  0.054922479999999996  0.24721976  1.0000
  O   O6        1.0  0.58105786  0.39210569  0.02626723  1.0000
  O   O7        1.0  0.89634806  0.37842065000000014  0.7071904999999998  1.0000
  O   O8        1.0  0.95027507  0.9954317500000002  0.31285934  1.0000
  O   O9        1.0  0.7414338900000003  0.49543174  0.8128592499999998  1.0000
  O   O10       1.0  0.41894214  0.60789431  0.9737327699999999  1.0000
  O   O11       1.0  0.8529460200000002  0.21264312  0.5875855299999999  1.0000
  O   O12       1.0  0.34682539  0.71264317  0.08758552  1.0000
  O   O13       1.0  0.0005690899999999647  0.8921057300000002  0.52626733  1.0000
  O   O14       1.0  0.04972493000000004  0.00456825  0.68714066  1.0000
  O   O15       1.0  0.25856610999999985  0.50456826  0.18714074999999997  1.0000
  O   O16       1.0  0.10365192999999999  0.62157935  0.2928095  1.0000
  O   O17       1.0  0.30906830999999996  0.8881297500000003  0.23590153999999994  1.0000
  O   O18       1.0  0.14705397999999975  0.7873568800000005  0.41241446999999987  1.0000
  O   O19       1.0  0.9994309099999998  0.10789427000000001  0.4737326599999999  1.0000
  O   O20       1.0  0.6531746099999998  0.28735683000000006  0.91241448  1.0000
  O   O21       1.0  0.6909316899999998  0.11187025000000002  0.7640984699999998  1.0000
  O   O22       1.0  0.98195929  0.12157932000000002  0.7928095599999998  1.0000
  O   O23       1.0  0.56690061  0.38812979000000003  0.7359015299999999  1.0000
  O   O24       1.0  0.018040709999999908  0.8784206800000002  0.20719044  1.0000
