data_image0
_chemical_formula_structural       Mn8H64C112S8O48
_chemical_formula_sum              "Mn8 H64 C112 S8 O48"
_cell_length_a       11.2866555
_cell_length_b       20.82218014
_cell_length_c       23.85181395
_cell_angle_alpha    114.4122939
_cell_angle_beta     101.27186166
_cell_angle_gamma    95.50073597

_space_group_name_H-M_alt    "P 1"
_space_group_IT_number       1

loop_
  _space_group_symop_operation_xyz
  'x, y, z'

loop_
  _atom_site_type_symbol
  _atom_site_label
  _atom_site_symmetry_multiplicity
  _atom_site_fract_x
  _atom_site_fract_y
  _atom_site_fract_z
  _atom_site_occupancy
  Mn  Mn1       1.0  0.4213474199999999  0.17113145  0.34239346  1.0000
  Mn  Mn2       1.0  0.6573766299999998  0.24273736000000004  0.29567322  1.0000
  Mn  Mn3       1.0  0.13852704  0.05300926000000003  0.29572613  1.0000
  Mn  Mn4       1.0  0.86884581  0.1187342  0.23740701  1.0000
  Mn  Mn5       1.0  0.5786527399999999  0.8288686200000001  0.65760654  1.0000
  Mn  Mn6       1.0  0.34262333999999994  0.75726267  0.70432673  1.0000
  Mn  Mn7       1.0  0.8614731799999997  0.94699069  0.70427379  1.0000
  Mn  Mn8       1.0  0.13115396999999998  0.8812657799999999  0.76259287  1.0000
  H   H1        1.0  0.87342  0.37620921  0.48202899  1.0000
  H   H2        1.0  0.9441315099999998  0.46211325  0.59874938  1.0000
  H   H3        1.0  0.6749583399999999  0.33588746  0.63704442  1.0000
  H   H4        1.0  0.60729587  0.24873559999999997  0.5200346  1.0000
  H   H5        1.0  0.90705126  0.58433542  0.67216393  1.0000
  H   H6        1.0  0.7829315199999999  0.67394557  0.65960326  1.0000
  H   H7        1.0  0.49786645  0.58962161  0.72085151  1.0000
  H   H8        1.0  0.61929404  0.4981657  0.73148393  1.0000
  H   H9        1.0  0.35366323  0.043830489999999986  0.20023428  1.0000
  H   H10       1.0  0.24517372999999995  0.9162497999999999  0.13572764  1.0000
  H   H11       1.0  0.59443421  0.84813597  0.13920508  1.0000
  H   H12       1.0  0.7030845299999999  0.97634686  0.20739142  1.0000
  H   H13       1.0  0.16459169  0.8422523  0.01966554  1.0000
  H   H14       1.0  0.14004724999999996  0.8512811299999999  0.91700276  1.0000
  H   H15       1.0  0.42928000999999993  0.73224573  0.8755046  1.0000
  H   H16       1.0  0.46121447  0.72811038  0.9802925999999998  1.0000
  H   H17       1.0  0.27700458999999994  0.86899669  0.27999489  1.0000
  H   H18       1.0  0.38753055999999997  0.7668007300000002  0.26920106  1.0000
  H   H19       1.0  0.73481908  0.91166352  0.32697554  1.0000
  H   H20       1.0  0.6235506799999999  0.013977319999999994  0.33975784  1.0000
  H   H21       1.0  0.53800022  0.69848707  0.36279099  1.0000
  H   H22       1.0  0.587253  0.72849122  0.47985897  1.0000
  H   H23       1.0  0.8911518  0.89413014  0.51791407  1.0000
  H   H24       1.0  0.8451827299999999  0.8632203299999999  0.40116888  1.0000
  H   H25       1.0  0.004645389999999987  0.23120219  0.20740399999999998  1.0000
  H   H26       1.0  0.04492884  0.29115822  0.13911783  1.0000
  H   H27       1.0  0.39053765  0.21938152999999996  0.13557712  1.0000
  H   H28       1.0  0.34673545999999994  0.15636196000000002  0.20017948  1.0000
  H   H29       1.0  0.01839210999999997  0.25160862  0.9801694299999999  1.0000
  H   H30       1.0  0.9456388199999998  0.14264785  0.87549167  1.0000
  H   H31       1.0  0.27762145  0.06607693  0.91698767  1.0000
  H   H32       1.0  0.35571352  0.17788927  0.01948402  1.0000
  H   H33       1.0  0.12658003  0.62379082  0.517971  1.0000
  H   H34       1.0  0.05586848999999997  0.53788676  0.40125061999999995  1.0000
  H   H35       1.0  0.32504167  0.66411255  0.3629556  1.0000
  H   H36       1.0  0.3927041  0.75126438  0.47996541  1.0000
  H   H37       1.0  0.09294875000000002  0.4156646  0.32783607  1.0000
  H   H38       1.0  0.21706847  0.32605443  0.34039676  1.0000
  H   H39       1.0  0.50213359  0.41037840999999997  0.27914849  1.0000
  H   H40       1.0  0.3807059699999999  0.50183431  0.26851608  1.0000
  H   H41       1.0  0.64633676  0.95616952  0.7997657099999999  1.0000
  H   H42       1.0  0.7548262499999998  0.08375017999999991  0.8642723399999999  1.0000
  H   H43       1.0  0.40556578999999987  0.15186402  0.86079491  1.0000
  H   H44       1.0  0.2969155  0.02365314000000001  0.79260858  1.0000
  H   H45       1.0  0.8354082999999998  0.15774770000000002  0.9803344499999999  1.0000
  H   H46       1.0  0.8599527699999999  0.14871885000000004  0.08299722  1.0000
  H   H47       1.0  0.57071997  0.26775428  0.12449539999999999  1.0000
  H   H48       1.0  0.5387855299999998  0.27188962  0.01970739  1.0000
  H   H49       1.0  0.72299538  0.13100329  0.72000511  1.0000
  H   H50       1.0  0.61246945  0.23319926999999996  0.73079894  1.0000
  H   H51       1.0  0.26518091  0.08833646  0.67302447  1.0000
  H   H52       1.0  0.3764493599999999  0.9860227000000001  0.66024218  1.0000
  H   H53       1.0  0.46199978999999997  0.30151294  0.63720902  1.0000
  H   H54       1.0  0.41274703  0.27150881  0.52014103  1.0000
  H   H55       1.0  0.10884817999999999  0.10586982999999998  0.48208593  1.0000
  H   H56       1.0  0.15481728  0.13677966  0.59883112  1.0000
  H   H57       1.0  0.9953545699999998  0.7687978199999999  0.7925959999999999  1.0000
  H   H58       1.0  0.9550711500000001  0.7088417900000001  0.8608821600000001  1.0000
  H   H59       1.0  0.60946236  0.7806184699999998  0.86442286  1.0000
  H   H60       1.0  0.6532645599999999  0.84363802  0.7998205  1.0000
  H   H61       1.0  0.9816078799999999  0.74839138  0.01983056  1.0000
  H   H62       1.0  0.05436120999999998  0.8573521399999999  0.12450833  1.0000
  H   H63       1.0  0.72237852  0.93392307  0.08301232  1.0000
  H   H64       1.0  0.64428651  0.82211074  0.98051598  1.0000
  C   C1        1.0  0.6874513199999999  0.26089871  0.4247119  1.0000
  C   C2        1.0  0.73538689  0.30849755  0.49457492  1.0000
  C   C3        1.0  0.83122627  0.36798234  0.51648901  1.0000
  C   C4        1.0  0.8694236699999999  0.41581995  0.58091497  1.0000
  C   C5        1.0  0.8105181  0.40400332999999994  0.62316352  1.0000
  C   C6        1.0  0.71693011  0.34405663  0.60243798  1.0000
  C   C7        1.0  0.6800221  0.29600236  0.53789791  1.0000
  C   C8        1.0  0.76771811  0.53586888  0.70087777  1.0000
  C   C9        1.0  0.81627436  0.58506545  0.68133017  1.0000
  C   C10       1.0  0.74817068  0.63494382  0.67489247  1.0000
  C   C11       1.0  0.6330561399999999  0.63593132  0.68869993  1.0000
  C   C12       1.0  0.5865468599999999  0.58702558  0.70934145  1.0000
  C   C13       1.0  0.65355016  0.53634932  0.71521871  1.0000
  C   C14       1.0  0.5611061299999999  0.69068604  0.68351829  1.0000
  C   C15       1.0  0.59838766  0.09381909000000002  0.24690294  1.0000
  C   C16       1.0  0.53528185  0.01794852  0.20701755  1.0000
  C   C17       1.0  0.40597868  0.0011189699999999965  0.18624409  1.0000
  C   C18       1.0  0.34541725  0.93003358  0.14997193  1.0000
  C   C19       1.0  0.4147711099999998  0.87601462  0.13288928  1.0000
  C   C20       1.0  0.543231  0.8916129199999999  0.15271756  1.0000
  C   C21       1.0  0.60315956  0.96294687  0.19064564  1.0000
  C   C22       1.0  0.31564779000000004  0.7858743400000001  0.00583376  1.0000
  C   C23       1.0  0.22403973  0.81990828  0.9885879  1.0000
  C   C24       1.0  0.20960950000000006  0.82438822  0.9313100000000001  1.0000
  C   C25       1.0  0.28401144  0.7932444700000001  0.89055279  1.0000
  C   C26       1.0  0.3736584799999999  0.7578944099999998  0.9078094099999999  1.0000
  C   C27       1.0  0.3911509300000002  0.7549766900000001  0.9662253  1.0000
  C   C28       1.0  0.26367736999999997  0.79801002  0.82884238  1.0000
  C   C29       1.0  0.37777553  0.007122099999999988  0.3165849  1.0000
  C   C30       1.0  0.44447809  0.9471760800000001  0.31140524  1.0000
  C   C31       1.0  0.37720079  0.87776193  0.29112909  1.0000
  C   C32       1.0  0.43817833  0.82114564  0.28516232  1.0000
  C   C33       1.0  0.5666883899999999  0.8347957599999999  0.29902927  1.0000
  C   C34       1.0  0.63490403  0.90340293  0.31818915  1.0000
  C   C35       1.0  0.57338394  0.9597912799999999  0.3247369  1.0000
  C   C36       1.0  0.6873277499999998  0.7805963000000001  0.37671435  1.0000
  C   C37       1.0  0.6145188699999998  0.7413497  0.39743113999999996  1.0000
  C   C38       1.0  0.6421148299999999  0.75791882  0.46200572999999995  1.0000
  C   C39       1.0  0.74069439  0.8138290800000001  0.50535123  1.0000
  C   C40       1.0  0.8145782799999999  0.85139664  0.48343685  1.0000
  C   C41       1.0  0.78837625  0.83474725  0.41899631  1.0000
  C   C42       1.0  0.76238639  0.8362189  0.57522537  1.0000
  C   C43       1.0  0.14885137  0.15313702  0.24690082  1.0000
  C   C44       1.0  0.17194968  0.18911778  0.20699238  1.0000
  C   C45       1.0  0.08773752999999997  0.22779948000000003  0.19063039  1.0000
  C   C46       1.0  0.10962954999999998  0.26116768  0.15264641  1.0000
  C   C47       1.0  0.21812885999999995  0.25686803  0.13274961  1.0000
  C   C48       1.0  0.30457613  0.21990053  0.14985439  1.0000
  C   C49       1.0  0.28038507  0.18511483  0.18618559  1.0000
  C   C50       1.0  0.19017583999999998  0.21992794000000002  0.0056998  1.0000
  C   C51       1.0  0.07469656  0.2108787  0.96613321  1.0000
  C   C52       1.0  0.033810570000000005  0.14951174999999992  0.90778108  1.0000
  C   C53       1.0  0.10656467  0.09715994000000004  0.8905418000000002  1.0000
  C   C54       1.0  0.22205215999999997  0.10707501999999999  0.9312625199999999  1.0000
  C   C55       1.0  0.26489275000000007  0.16889647000000005  0.98846018  1.0000
  C   C56       1.0  0.06520072000000002  0.0306593299999999  0.8289259  1.0000
  C   C57       1.0  0.31254885  0.73910147  0.57528836  1.0000
  C   C58       1.0  0.26461306000000007  0.69150238  0.50542498  1.0000
  C   C59       1.0  0.16877377  0.63201767  0.48351096  1.0000
  C   C60       1.0  0.13057641  0.58418006  0.41908503  1.0000
  C   C61       1.0  0.18948190999999998  0.59599662  0.37683643  1.0000
  C   C62       1.0  0.28306988  0.65594335  0.39756201  1.0000
  C   C63       1.0  0.31997782  0.70399761  0.46210207  1.0000
  C   C64       1.0  0.23228194  0.46413106  0.29912221  1.0000
  C   C65       1.0  0.18372565999999999  0.41493451  0.31866981  1.0000
  C   C66       1.0  0.25182931  0.36505618  0.32510753  1.0000
  C   C67       1.0  0.36694398  0.3640686  0.31130008  1.0000
  C   C68       1.0  0.4134532099999999  0.41297441999999995  0.29065855  1.0000
  C   C69       1.0  0.34644984999999995  0.46365065999999994  0.28478128  1.0000
  C   C70       1.0  0.4388936  0.30931417  0.31648168  1.0000
  C   C71       1.0  0.4016122099999999  0.9061807199999999  0.75309696  1.0000
  C   C72       1.0  0.46471823999999995  0.98205156  0.79298248  1.0000
  C   C73       1.0  0.59402128  0.99888105  0.81375591  1.0000
  C   C74       1.0  0.65458273  0.06996644000000002  0.85002809  1.0000
  C   C75       1.0  0.58522893  0.12398541000000002  0.86711076  1.0000
  C   C76       1.0  0.45676900999999986  0.10838707999999993  0.8472824499999999  1.0000
  C   C77       1.0  0.39684048999999993  0.037053140000000026  0.80935437  1.0000
  C   C78       1.0  0.68435224  0.21412569000000006  0.99416631  1.0000
  C   C79       1.0  0.7759603099999999  0.18009173  0.01141212  1.0000
  C   C80       1.0  0.79039053  0.17561178  0.06869  1.0000
  C   C81       1.0  0.7159885999999999  0.20675553  0.10944730999999999  1.0000
  C   C82       1.0  0.62634149  0.2421056  0.0921906  1.0000
  C   C83       1.0  0.60884911  0.24502332  0.03377472  1.0000
  C   C84       1.0  0.73632258  0.20198999  0.17115737  1.0000
  C   C85       1.0  0.62222526  0.9928778200000001  0.68341515  1.0000
  C   C86       1.0  0.5555217099999998  0.05282401000000002  0.68859476  1.0000
  C   C87       1.0  0.6227991099999999  0.12223807999999999  0.70887091  1.0000
  C   C88       1.0  0.56182164  0.17885437  0.71483767  1.0000
  C   C89       1.0  0.43331153  0.16520428000000006  0.7009707  1.0000
  C   C90       1.0  0.36509592  0.0965971  0.68181083  1.0000
  C   C91       1.0  0.42661608  0.040208749999999994  0.67526311  1.0000
  C   C92       1.0  0.31267218  0.2194037  0.62328557  1.0000
  C   C93       1.0  0.38548111  0.2586503  0.60256883  1.0000
  C   C94       1.0  0.35788523  0.24208118000000003  0.53799424  1.0000
  C   C95       1.0  0.25930551  0.18617086  0.49464863  1.0000
  C   C96       1.0  0.18542165999999996  0.14860332  0.5165631  1.0000
  C   C97       1.0  0.21162369999999994  0.16525274  0.58100368  1.0000
  C   C98       1.0  0.23761417  0.1637814  0.42477501  1.0000
  C   C99       1.0  0.8511485099999999  0.84686318  0.75309902  1.0000
  C   C100      1.0  0.8280502799999999  0.8108821500000002  0.7930076900000002  1.0000
  C   C101      1.0  0.9122624  0.77220052  0.80936963  1.0000
  C   C102      1.0  0.8903704499999998  0.73883233  0.8473536  1.0000
  C   C103      1.0  0.78187115  0.7431319700000001  0.86725044  1.0000
  C   C104      1.0  0.69542391  0.78009947  0.85014564  1.0000
  C   C105      1.0  0.71961498  0.8148851399999999  0.81381442  1.0000
  C   C106      1.0  0.80982422  0.7800721199999999  0.9943003  1.0000
  C   C107      1.0  0.92530343  0.78912132  0.03386681  1.0000
  C   C108      1.0  0.9661894999999998  0.85048826  0.09221895  1.0000
  C   C109      1.0  0.8934354399999999  0.9028401699999999  0.10945831999999998  1.0000
  C   C110      1.0  0.7779478099999999  0.89292502  0.0687375  1.0000
  C   C111      1.0  0.7351072599999999  0.83110354  0.01153985  1.0000
  C   C112      1.0  0.9347986299999997  0.96934045  0.17107371  1.0000
  S   S1        1.0  0.8529816499999999  0.4691965  0.70510093  1.0000
  S   S2        1.0  0.33684173  0.78519127  0.08185487  1.0000
  S   S3        1.0  0.64759875  0.76383305  0.29476359  1.0000
  S   S4        1.0  0.24489817  0.29663307  0.08166384  1.0000
  S   S5        1.0  0.14701826  0.53080392  0.29489932  1.0000
  S   S6        1.0  0.6631580599999999  0.21480849999999993  0.9181447799999999  1.0000
  S   S7        1.0  0.35240164  0.23616677  0.70523669  1.0000
  S   S8        1.0  0.7551016999999999  0.7033668000000001  0.9183357800000002  1.0000
  O   O1        1.0  0.5928019799999998  0.21206151  0.40627623  1.0000
  O   O2        1.0  0.68587856  0.8059969600000001  0.5936389  1.0000
  O   O3        1.0  0.44005032  0.06875860999999997  0.33154246  1.0000
  O   O4        1.0  0.60820125  0.7372786  0.66839349  1.0000
  O   O5        1.0  0.22702652  0.11707495  0.26016145  1.0000
  O   O6        1.0  0.53347675  0.14310713  0.26014064  1.0000
  O   O7        1.0  0.74353674  0.27354445  0.38708649  1.0000
  O   O8        1.0  0.45638458  0.68757191  0.69612039  1.0000
  O   O9        1.0  0.31890276  0.7626042  0.78788839  1.0000
  O   O10       1.0  0.71647144  0.11079474000000002  0.26751056  1.0000
  O   O11       1.0  0.85617614  0.8864494  0.6128816  1.0000
  O   O12       1.0  0.26042088  0.99151967  0.30411902  1.0000
  O   O13       1.0  0.9690015499999998  0.02504847999999997  0.78786372  1.0000
  O   O14       1.0  0.05145058999999999  0.1567635  0.26752296  1.0000
  O   O15       1.0  0.18884189999999995  0.83782179  0.82089175  1.0000
  O   O16       1.0  0.13207687999999998  0.98292882  0.82115318  1.0000
  O   O17       1.0  0.9826377199999999  0.5003392  0.72156498  1.0000
  O   O18       1.0  0.8028192399999999  0.43728146999999995  0.74110001  1.0000
  O   O19       1.0  0.42059317999999996  0.73814811  0.08587521  1.0000
  O   O20       1.0  0.21631867999999999  0.7773118200000001  0.09372266  1.0000
  O   O21       1.0  0.7607338899999998  0.77845646  0.27826184  1.0000
  O   O22       1.0  0.56125798  0.6959820900000001  0.25879668  1.0000
  O   O23       1.0  0.3773419399999999  0.31645961999999994  0.0936242  1.0000
  O   O24       1.0  0.16505634999999994  0.3475931  0.08554996  1.0000
  O   O25       1.0  0.40719766  0.78793832  0.59372362  1.0000
  O   O26       1.0  0.31412129  0.19400288999999998  0.40636092  1.0000
  O   O27       1.0  0.55994938  0.9312414499999999  0.66845754  1.0000
  O   O28       1.0  0.3917987500000001  0.26272119  0.33160656  1.0000
  O   O29       1.0  0.77297344  0.8829247600000001  0.73983871  1.0000
  O   O30       1.0  0.46652326999999993  0.8568930100000001  0.73985944  1.0000
  O   O31       1.0  0.25646330999999994  0.7264555  0.6129133  1.0000
  O   O32       1.0  0.5436158000000001  0.31242798  0.30387961  1.0000
  O   O33       1.0  0.6810971599999999  0.23739582999999997  0.21211185  1.0000
  O   O34       1.0  0.28352874  0.88920535  0.73248951  1.0000
  O   O35       1.0  0.14382332  0.11355014999999999  0.38711785  1.0000
  O   O36       1.0  0.7395781  0.008480570000000012  0.69588093  1.0000
  O   O37       1.0  0.030999209999999982  0.97495191  0.21213681  1.0000
  O   O38       1.0  0.9485495099999999  0.8432363600000001  0.73247716  1.0000
  O   O39       1.0  0.8111582799999999  0.16217814  0.17910841  1.0000
  O   O40       1.0  0.8679233899999999  0.017071269999999996  0.17884699  1.0000
  O   O41       1.0  0.017362269999999985  0.49966065  0.27843493  1.0000
  O   O42       1.0  0.1971808  0.56271841  0.25889991  1.0000
  O   O43       1.0  0.5794068700000001  0.26185199  0.9141249  1.0000
  O   O44       1.0  0.78368141  0.22268827999999988  0.90627747  1.0000
  O   O45       1.0  0.23926601999999997  0.22154362  0.72173806  1.0000
  O   O46       1.0  0.4387419  0.30401797  0.74120323  1.0000
  O   O47       1.0  0.6226580999999998  0.68354042  0.90637594  1.0000
  O   O48       1.0  0.83494371  0.6524069199999999  0.9144501599999999  1.0000
