data_image0
_chemical_formula_structural       Ce4H16C20O32
_chemical_formula_sum              "Ce4 H16 C20 O32"
_cell_length_a       6.0997
_cell_length_b       7.6528
_cell_length_c       22.533
_cell_angle_alpha    90.0
_cell_angle_beta     91.60599999999998
_cell_angle_gamma    90.0

_symmetry_space_group_name_H-M    'P 1'
_symmetry_Int_Tables_number       1

loop_
  _symmetry_equiv_pos_as_xyz
  'x,y,z'

loop_
  _atom_site_type_symbol
  _atom_site_label
  _atom_site_symmetry_multiplicity
  _atom_site_fract_x
  _atom_site_fract_y
  _atom_site_fract_z
  _atom_site_occupancy
  Ce  Ce1       1.0  0.54512  0.50171  0.85391  1.0000
  Ce  Ce2       1.0  0.45488  0.00171  0.64609  1.0000
  Ce  Ce3       1.0  0.45488  0.49829  0.14609  1.0000
  Ce  Ce4       1.0  0.54512  0.9982899999999998  0.35391  1.0000
  H   H1        1.0  0.44  0.125  0.8836999999999999  1.0000
  H   H2        1.0  0.302  0.228  0.7419  1.0000
  H   H3        1.0  0.1259  0.0644  0.8747  1.0000
  H   H4        1.0  0.041  0.978  0.7801  1.0000
  H   H5        1.0  0.56  0.625  0.6162999999999998  1.0000
  H   H6        1.0  0.698  0.7279999999999998  0.7581  1.0000
  H   H7        1.0  0.8741  0.5644  0.6253  1.0000
  H   H8        1.0  0.959  0.47799999999999987  0.7199  1.0000
  H   H9        1.0  0.56  0.875  0.1163  1.0000
  H   H10       1.0  0.698  0.772  0.2581  1.0000
  H   H11       1.0  0.8741  0.9356  0.1253  1.0000
  H   H12       1.0  0.959  0.022  0.2199  1.0000
  H   H13       1.0  0.44  0.375  0.3837  1.0000
  H   H14       1.0  0.302  0.272  0.24189999999999998  1.0000
  H   H15       1.0  0.1259  0.4356  0.3746999999999999  1.0000
  H   H16       1.0  0.041  0.522  0.2801  1.0000
  C   C1        1.0  0.0468  0.3057  0.84011  1.0000
  C   C2        1.0  0.1823  0.1393  0.8433  1.0000
  C   C3        1.0  0.1837  0.0355  0.78552  1.0000
  C   C4        1.0  0.3611  0.8941  0.78871  1.0000
  C   C5        1.0  0.5821  0.4242  0.00133  1.0000
  C   C6        1.0  0.9532  0.8057  0.65989  1.0000
  C   C7        1.0  0.8177  0.6392999999999998  0.6567  1.0000
  C   C8        1.0  0.8163  0.5355  0.7144799999999999  1.0000
  C   C9        1.0  0.6389  0.3941  0.7112899999999999  1.0000
  C   C10       1.0  0.4179  0.9242  0.49867  1.0000
  C   C11       1.0  0.9532  0.6943  0.15988999999999998  1.0000
  C   C12       1.0  0.8177  0.8606999999999998  0.15669999999999998  1.0000
  C   C13       1.0  0.8163  0.9644999999999998  0.21448  1.0000
  C   C14       1.0  0.6389  0.1059  0.21128999999999998  1.0000
  C   C15       1.0  0.4179  0.5758  0.99867  1.0000
  C   C16       1.0  0.0468  0.1943  0.34011  1.0000
  C   C17       1.0  0.1823  0.3606999999999999  0.34329999999999994  1.0000
  C   C18       1.0  0.1837  0.4645  0.28552  1.0000
  C   C19       1.0  0.3611  0.6059  0.28870999999999997  1.0000
  C   C20       1.0  0.5821  0.0758  0.50133  1.0000
  O   O1        1.0  0.8461999999999998  0.2893  0.83336  1.0000
  O   O2        1.0  0.14559999999999998  0.4473  0.84532  1.0000
  O   O3        1.0  0.3998999999999999  0.18599999999999994  0.8582899999999999  1.0000
  O   O4        1.0  0.2203  0.1403  0.7347  1.0000
  O   O5        1.0  0.3504  0.7868  0.82974  1.0000
  O   O6        1.0  0.5110999999999998  0.8979999999999998  0.74922  1.0000
  O   O7        1.0  0.6614999999999999  0.3693999999999999  0.95368  1.0000
  O   O8        1.0  0.6233  0.36809999999999987  0.05176  1.0000
  O   O9        1.0  0.1538  0.7892999999999998  0.66664  1.0000
  O   O10       1.0  0.8543999999999998  0.9472999999999999  0.65468  1.0000
  O   O11       1.0  0.6001  0.6859999999999998  0.64171  1.0000
  O   O12       1.0  0.7796999999999998  0.6403  0.7652999999999999  1.0000
  O   O13       1.0  0.6496  0.2868  0.67026  1.0000
  O   O14       1.0  0.48889999999999995  0.398  0.7507799999999999  1.0000
  O   O15       1.0  0.3385  0.8693999999999997  0.54632  1.0000
  O   O16       1.0  0.37669999999999987  0.8681  0.44824  1.0000
  O   O17       1.0  0.15379999999999996  0.7107  0.16663999999999998  1.0000
  O   O18       1.0  0.8543999999999998  0.5527  0.15468  1.0000
  O   O19       1.0  0.6001  0.8139999999999997  0.14171  1.0000
  O   O20       1.0  0.7796999999999998  0.8597  0.2653  1.0000
  O   O21       1.0  0.6496  0.2132  0.17026  1.0000
  O   O22       1.0  0.48889999999999995  0.102  0.25078  1.0000
  O   O23       1.0  0.3385  0.6305999999999998  0.04632  1.0000
  O   O24       1.0  0.37669999999999987  0.6319  0.94824  1.0000
  O   O25       1.0  0.8461999999999998  0.21069999999999994  0.33336  1.0000
  O   O26       1.0  0.14559999999999998  0.0527  0.34531999999999996  1.0000
  O   O27       1.0  0.3998999999999999  0.3139999999999999  0.35829  1.0000
  O   O28       1.0  0.2203  0.3597  0.23469999999999996  1.0000
  O   O29       1.0  0.3504  0.7132  0.32974  1.0000
  O   O30       1.0  0.5110999999999998  0.602  0.24921999999999997  1.0000
  O   O31       1.0  0.6614999999999999  0.1306  0.45368  1.0000
  O   O32       1.0  0.6233  0.1319  0.55176  1.0000
