data_image0
_chemical_formula_structural       V32Ni4H64C80N16O52
_chemical_formula_sum              "V32 Ni4 H64 C80 N16 O52"
_cell_length_a       16.97822114
_cell_length_b       16.97891774
_cell_length_c       14.81973009
_cell_angle_alpha    89.99266362000002
_cell_angle_beta     90.00546947
_cell_angle_gamma    90.01262611

_symmetry_space_group_name_H-M    'P 1'
_symmetry_Int_Tables_number       1

loop_
  _symmetry_equiv_pos_as_xyz
  'x,y,z'

loop_
  _atom_site_type_symbol
  _atom_site_label
  _atom_site_symmetry_multiplicity
  _atom_site_fract_x
  _atom_site_fract_y
  _atom_site_fract_z
  _atom_site_occupancy
  V   V1        1.0  0.88547778  0.12344197  0.13214791  1.0000
  V   V2        1.0  0.04734492  0.1518437  0.08113035  1.0000
  V   V3        1.0  0.8481830199999998  0.96326336  0.07977431  1.0000
  V   V4        1.0  0.05951272999999999  0.05693006  0.22843412999999996  1.0000
  V   V5        1.0  0.11452739999999997  0.87661949  0.13218424  1.0000
  V   V6        1.0  0.95291737  0.84829476  0.08116682999999997  1.0000
  V   V7        1.0  0.15167354  0.03646643  0.07980794999999997  1.0000
  V   V8        1.0  0.94052181  0.9430678399999999  0.22846825999999995  1.0000
  V   V9        1.0  0.12340520999999999  0.11452193  0.8678883899999997  1.0000
  V   V10       1.0  0.15192149  0.9526353799999999  0.9189012499999998  1.0000
  V   V11       1.0  0.9633194499999999  0.15182812999999998  0.9202174599999998  1.0000
  V   V12       1.0  0.05682684  0.94062824  0.7715768799999998  1.0000
  V   V13       1.0  0.87656539  0.88550989  0.86789116  1.0000
  V   V14       1.0  0.84815863  0.047319359999999984  0.9188645999999998  1.0000
  V   V15       1.0  0.03674343  0.84809227  0.9202907299999997  1.0000
  V   V16       1.0  0.9431538899999999  0.05941282999999999  0.7715252799999999  1.0000
  V   V17       1.0  0.38550574  0.37656015  0.63210698  1.0000
  V   V18       1.0  0.54730871  0.3481478899999999  0.58113476  1.0000
  V   V19       1.0  0.34808494  0.5367517399999998  0.57971452  1.0000
  V   V20       1.0  0.55940214  0.44314359  0.7284772999999998  1.0000
  V   V21       1.0  0.6145189699999998  0.62340499  0.63211066  1.0000
  V   V22       1.0  0.45264334  0.65194602  0.5810976299999998  1.0000
  V   V23       1.0  0.65182787  0.4633120599999999  0.5797631399999997  1.0000
  V   V24       1.0  0.4406308399999999  0.55682357  0.7284446599999997  1.0000
  V   V25       1.0  0.62344167  0.3854812  0.36785403  1.0000
  V   V26       1.0  0.6518542799999998  0.54733831  0.41886385  1.0000
  V   V27       1.0  0.46327087  0.34816837  0.42023737  1.0000
  V   V28       1.0  0.55693331  0.5595108799999999  0.27156001  1.0000
  V   V29       1.0  0.3766170899999999  0.6145335  0.36781894999999987  1.0000
  V   V30       1.0  0.34828977  0.45289463  0.41883790999999987  1.0000
  V   V31       1.0  0.53646574  0.65167482  0.42019603999999994  1.0000
  V   V32       1.0  0.4430729999999999  0.44051834  0.2715189699999999  1.0000
  Ni  Ni1       1.0  0.75407282  0.25407467  0.25000043  1.0000
  Ni  Ni2       1.0  0.24597587999999998  0.7459756099999998  0.24999824999999995  1.0000
  Ni  Ni3       1.0  0.25406624  0.24593316  0.7499974499999997  1.0000
  Ni  Ni4       1.0  0.7459304799999998  0.75406783  0.7500014199999998  1.0000
  H   H1        1.0  0.27368871  0.17882637999999995  0.9440472699999998  1.0000
  H   H2        1.0  0.3779794  0.17405424999999997  0.060568429999999986  1.0000
  H   H3        1.0  0.54472592  0.23780433  0.85188715  1.0000
  H   H4        1.0  0.43290680999999986  0.24241597999999998  0.74539079  1.0000
  H   H5        1.0  0.57549663  0.2576594  0.25276087  1.0000
  H   H6        1.0  0.46372515  0.24859022  0.14713465999999994  1.0000
  H   H7        1.0  0.62861475  0.166687  0.9449572199999998  1.0000
  H   H8        1.0  0.73309563  0.17708012  0.060452739999999984  1.0000
  H   H9        1.0  0.72630229  0.8211698299999998  0.9440393  1.0000
  H   H10       1.0  0.62202081  0.82594537  0.060554599999999986  1.0000
  H   H11       1.0  0.4552874199999999  0.76220098  0.8518938799999998  1.0000
  H   H12       1.0  0.56709887  0.7575825699999998  0.7454047999999998  1.0000
  H   H13       1.0  0.42449222  0.7423337  0.25276686  1.0000
  H   H14       1.0  0.53627923  0.75140998  0.14712888999999996  1.0000
  H   H15       1.0  0.37139181  0.83330973  0.9449500199999997  1.0000
  H   H16       1.0  0.2669027099999999  0.8229160699999998  0.060458499999999984  1.0000
  H   H17       1.0  0.17883422  0.72629762  0.05596041999999998  1.0000
  H   H18       1.0  0.17405753  0.62201459  0.9394320599999998  1.0000
  H   H19       1.0  0.23780030999999996  0.45527995999999993  0.14810146  1.0000
  H   H20       1.0  0.24242282000000004  0.56710339  0.25459915  1.0000
  H   H21       1.0  0.2576629  0.42450468  0.74722744  1.0000
  H   H22       1.0  0.24859164  0.53627869  0.8528629599999997  1.0000
  H   H23       1.0  0.16668571  0.37138301  0.055048979999999983  1.0000
  H   H24       1.0  0.177076  0.2668918  0.9395515599999997  1.0000
  H   H25       1.0  0.8211675299999998  0.27370477  0.055956249999999985  1.0000
  H   H26       1.0  0.82594612  0.37798044  0.9394383599999998  1.0000
  H   H27       1.0  0.76219913  0.54471283  0.14810665999999995  1.0000
  H   H28       1.0  0.75758451  0.43290477999999993  0.25459711999999995  1.0000
  H   H29       1.0  0.74233878  0.57550251  0.74723686  1.0000
  H   H30       1.0  0.7514090199999998  0.46372586  0.8528625  1.0000
  H   H31       1.0  0.83331093  0.62861369  0.05503835999999999  1.0000
  H   H32       1.0  0.8229206  0.73309865  0.93954012  1.0000
  H   H33       1.0  0.77370124  0.32116888  0.44404551  1.0000
  H   H34       1.0  0.8779786499999997  0.32594647  0.5605617799999998  1.0000
  H   H35       1.0  0.04471596  0.26219881  0.3518927  1.0000
  H   H36       1.0  0.93290622  0.2575848  0.24540299999999995  1.0000
  H   H37       1.0  0.0754956  0.24233791999999998  0.75277541  1.0000
  H   H38       1.0  0.9637138899999999  0.25140527  0.6471401699999998  1.0000
  H   H39       1.0  0.12861514  0.33331387999999995  0.44494839  1.0000
  H   H40       1.0  0.23311003999999996  0.3229254399999999  0.5604494899999998  1.0000
  H   H41       1.0  0.22629928  0.6788346599999999  0.4440384699999999  1.0000
  H   H42       1.0  0.12201405  0.6740575  0.5605687499999997  1.0000
  H   H43       1.0  0.9552776899999998  0.7378018799999998  0.3518981499999999  1.0000
  H   H44       1.0  0.06710427  0.74242301  0.24539918999999993  1.0000
  H   H45       1.0  0.92449788  0.75766193  0.7527607699999997  1.0000
  H   H46       1.0  0.03627117999999999  0.74858923  0.6471339699999997  1.0000
  H   H47       1.0  0.8713835499999998  0.6666883199999999  0.44496324  1.0000
  H   H48       1.0  0.7668978799999998  0.67707963  0.56045798  1.0000
  H   H49       1.0  0.67882973  0.77370116  0.5559630099999998  1.0000
  H   H50       1.0  0.67405509  0.87798142  0.4394435599999999  1.0000
  H   H51       1.0  0.73780065  0.04471467  0.64810919  1.0000
  H   H52       1.0  0.7424154  0.9329001599999999  0.75459679  1.0000
  H   H53       1.0  0.7576588799999999  0.07549875  0.24723778999999999  1.0000
  H   H54       1.0  0.74858973  0.9637285599999998  0.35286563  1.0000
  H   H55       1.0  0.6666864399999998  0.12861389  0.55504335  1.0000
  H   H56       1.0  0.6770809299999999  0.23309296  0.4395458399999999  1.0000
  H   H57       1.0  0.32117232  0.22630943  0.55595015  1.0000
  H   H58       1.0  0.32594614  0.12202259  0.4394328499999999  1.0000
  H   H59       1.0  0.2621978999999999  0.9552807400000001  0.6481086199999998  1.0000
  H   H60       1.0  0.2575823399999999  0.06709313999999997  0.75460651  1.0000
  H   H61       1.0  0.24233364  0.92449344  0.24723479999999998  1.0000
  H   H62       1.0  0.25140981  0.03627808999999999  0.3528711699999999  1.0000
  H   H63       1.0  0.33330935  0.8713910099999997  0.5550492  1.0000
  H   H64       1.0  0.32291604  0.76690469  0.43954274999999987  1.0000
  C   C1        1.0  0.33426555  0.19358681  0.9268912399999998  1.0000
  C   C2        1.0  0.39341117  0.19030628999999993  0.9916705699999998  1.0000
  C   C3        1.0  0.47168358999999993  0.20694686999999995  0.9674388199999998  1.0000
  C   C4        1.0  0.48575551999999994  0.2238067  0.8760947199999998  1.0000
  C   C5        1.0  0.42318959  0.22678312  0.8156418599999998  1.0000
  C   C6        1.0  0.5850067  0.23719981999999998  0.18417110999999994  1.0000
  C   C7        1.0  0.52231653  0.23173533  0.12413158999999997  1.0000
  C   C8        1.0  0.53584874  0.20844354  0.03456526999999999  1.0000
  C   C9        1.0  0.61366623  0.18826074  0.012043649999999996  1.0000
  C   C10       1.0  0.6729924099999999  0.19462107999999995  0.07627961  1.0000
  C   C11       1.0  0.66572682  0.80640779  0.92688388  1.0000
  C   C12       1.0  0.60659526  0.80970148  0.9916539299999998  1.0000
  C   C13       1.0  0.52831791  0.79305361  0.9674329399999998  1.0000
  C   C14       1.0  0.51426128  0.77619672  0.8760908099999998  1.0000
  C   C15       1.0  0.57681654  0.7732138799999998  0.8156523199999998  1.0000
  C   C16       1.0  0.4149953  0.7628035799999999  0.18416220999999994  1.0000
  C   C17       1.0  0.47768834000000004  0.7682673899999999  0.12413372999999997  1.0000
  C   C18       1.0  0.46414918  0.79155677  0.03456569  1.0000
  C   C19       1.0  0.3863395299999999  0.8117421399999998  0.012042399999999997  1.0000
  C   C20       1.0  0.32701979  0.8053859899999998  0.07628317999999999  1.0000
  C   C21       1.0  0.19358533  0.66571061  0.07313192  1.0000
  C   C22       1.0  0.19029125999999996  0.60658688  0.008342859999999997  1.0000
  C   C23       1.0  0.20694343  0.52832354  0.032564009999999984  1.0000
  C   C24       1.0  0.22379198  0.5142536299999998  0.12391092  1.0000
  C   C25       1.0  0.22677585999999994  0.5768233399999999  0.18433459999999993  1.0000
  C   C26       1.0  0.23720200999999996  0.41501319  0.8158203499999997  1.0000
  C   C27       1.0  0.23174335  0.47768842  0.8758743299999998  1.0000
  C   C28       1.0  0.20844544  0.46415008  0.9654287899999998  1.0000
  C   C29       1.0  0.18825962  0.38633951  0.9879649599999999  1.0000
  C   C30       1.0  0.19460832  0.32700338  0.9237385199999998  1.0000
  C   C31       1.0  0.80640605  0.33427407  0.07312808999999998  1.0000
  C   C32       1.0  0.80970134  0.3934066  0.00834351  1.0000
  C   C33       1.0  0.79305462  0.47168347  0.032557509999999984  1.0000
  C   C34       1.0  0.7762038699999998  0.48574140999999993  0.12391038999999997  1.0000
  C   C35       1.0  0.77321922  0.42317176  0.18434993  1.0000
  C   C36       1.0  0.76279421  0.58499772  0.8158301699999998  1.0000
  C   C37       1.0  0.76825636  0.52231368  0.8758667899999998  1.0000
  C   C38       1.0  0.79155524  0.53584936  0.9654316099999998  1.0000
  C   C39       1.0  0.81173173  0.61366583  0.9879598099999998  1.0000
  C   C40       1.0  0.80537913  0.67299307  0.9237349599999998  1.0000
  C   C41       1.0  0.83427195  0.30640627  0.42687183  1.0000
  C   C42       1.0  0.89340464  0.3097031  0.49165574  1.0000
  C   C43       1.0  0.9716825399999999  0.2930546  0.46744040999999986  1.0000
  C   C44       1.0  0.98574193  0.2762035  0.37608934  1.0000
  C   C45       1.0  0.92317279  0.27321994  0.31565009  1.0000
  C   C46       1.0  0.08498845  0.2627961799999999  0.6841807  1.0000
  C   C47       1.0  0.02230228  0.26825474  0.6241276599999998  1.0000
  C   C48       1.0  0.03584676  0.29155461  0.5345656699999998  1.0000
  C   C49       1.0  0.11366121  0.31173296  0.5120283799999997  1.0000
  C   C50       1.0  0.1730003  0.3053879099999999  0.5762595899999998  1.0000
  C   C51       1.0  0.16571175  0.69358483  0.4268666799999999  1.0000
  C   C52       1.0  0.10658733999999997  0.69029207  0.49165846  1.0000
  C   C53       1.0  0.02832118  0.70694475  0.46743715  1.0000
  C   C54       1.0  0.01425092  0.72379265  0.3760892499999999  1.0000
  C   C55       1.0  0.07682335  0.7267764199999998  0.31566315  1.0000
  C   C56       1.0  0.91500409  0.7372045299999999  0.6841701199999998  1.0000
  C   C57       1.0  0.97767934  0.73174235  0.62413037  1.0000
  C   C58       1.0  0.9641487799999999  0.7084462  0.53457389  1.0000
  C   C59       1.0  0.88633221  0.6882603  0.5120462799999997  1.0000
  C   C60       1.0  0.82700684  0.69461706  0.57626861  1.0000
  C   C61       1.0  0.69359516  0.8342732  0.57311419  1.0000
  C   C62       1.0  0.69030558  0.89340706  0.50834053  1.0000
  C   C63       1.0  0.70694524  0.97168223  0.5325631699999998  1.0000
  C   C64       1.0  0.7238043099999999  0.9857451199999999  0.62391057  1.0000
  C   C65       1.0  0.7267862299999999  0.92318072  0.6843472299999998  1.0000
  C   C66       1.0  0.73719919  0.0850082  0.3158278399999999  1.0000
  C   C67       1.0  0.7317347099999998  0.022317319999999995  0.3758677399999999  1.0000
  C   C68       1.0  0.70844285  0.03584793  0.4654368499999999  1.0000
  C   C69       1.0  0.68826143  0.11366528  0.4879572399999999  1.0000
  C   C70       1.0  0.6946200699999998  0.17299099999999995  0.42372075999999986  1.0000
  C   C71       1.0  0.30641647  0.16573130999999997  0.57310877  1.0000
  C   C72       1.0  0.30970008  0.10658895  0.50833474  1.0000
  C   C73       1.0  0.29305285  0.02831789  0.5325646499999998  1.0000
  C   C74       1.0  0.27619416  0.01425331  0.6239041399999998  1.0000
  C   C75       1.0  0.27321764  0.07680849  0.68435676  1.0000
  C   C76       1.0  0.2628035699999999  0.91499573  0.3158403499999999  1.0000
  C   C77       1.0  0.26826649  0.9776866099999999  0.37586585  1.0000
  C   C78       1.0  0.29155707  0.9641468599999999  0.46543191  1.0000
  C   C79       1.0  0.31174239  0.8863403999999998  0.4879558899999999  1.0000
  C   C80       1.0  0.3053851  0.8270210999999997  0.4237175999999999  1.0000
  N   N1        1.0  0.6598985499999999  0.22090506  0.16081683999999993  1.0000
  N   N2        1.0  0.3479261599999999  0.21361684  0.8402068899999998  1.0000
  N   N3        1.0  0.34009047  0.77907299  0.16081633999999997  1.0000
  N   N4        1.0  0.65204035  0.7863849499999997  0.8402474699999998  1.0000
  N   N5        1.0  0.22090593  0.3400679399999999  0.8391495699999998  1.0000
  N   N6        1.0  0.21365587  0.65203402  0.15973570999999995  1.0000
  N   N7        1.0  0.7791144799999998  0.65989787  0.83917189  1.0000
  N   N8        1.0  0.78636648  0.34796176999999995  0.15975339999999993  1.0000
  N   N9        1.0  0.15993543  0.27910355999999986  0.6608618699999997  1.0000
  N   N10       1.0  0.84796088  0.28636808  0.3402499599999999  1.0000
  N   N11       1.0  0.8400996699999999  0.72089415  0.6608170799999998  1.0000
  N   N12       1.0  0.15203817  0.71365679  0.3402607599999999  1.0000
  N   N13       1.0  0.72090577  0.15989863  0.3391793299999999  1.0000
  N   N14       1.0  0.7136065499999997  0.8479618899999998  0.65976001  1.0000
  N   N15       1.0  0.2790737999999999  0.84009488  0.3391871199999999  1.0000
  N   N16       1.0  0.28637533  0.15207129999999994  0.6597848299999998  1.0000
  O   O1        1.0  0.8251267  0.18482516  0.18554276999999994  1.0000
  O   O2        1.0  0.98712804  0.13531469  0.19023866999999994  1.0000
  O   O3        1.0  0.9391831599999998  0.18266667  0.038834659999999986  1.0000
  O   O4        1.0  0.8696040099999998  0.02199042  0.18853673999999995  1.0000
  O   O5        1.0  0.82285323  0.07344839  0.03821481999999999  1.0000
  O   O6        1.0  0.13697209  0.12785334  0.15145611999999994  1.0000
  O   O7        1.0  0.17477436  0.8151937  0.18546301999999998  1.0000
  O   O8        1.0  0.01279365  0.8646700099999998  0.19026484999999996  1.0000
  O   O9        1.0  0.0607249  0.8172969799999997  0.03872193  1.0000
  O   O10       1.0  0.13040439  0.9780535  0.18859141  1.0000
  O   O11       1.0  0.17716814  0.9266453199999999  0.03810675  1.0000
  O   O12       1.0  0.8629671699999998  0.87220871  0.15146782999999997  1.0000
  O   O13       1.0  0.18484105  0.17487828  0.81445732  1.0000
  O   O14       1.0  0.13534604  0.012849039999999999  0.8097836199999998  1.0000
  O   O15       1.0  0.18264356  0.06081896999999999  0.96110404  1.0000
  O   O16       1.0  0.0219746  0.13041743  0.8114676699999998  1.0000
  O   O17       1.0  0.07345578999999998  0.17714555  0.96180225  1.0000
  O   O18       1.0  0.12778858  0.8630388299999998  0.8485271  1.0000
  O   O19       1.0  0.81516999  0.8251334599999999  0.8144654499999998  1.0000
  O   O20       1.0  0.86466388  0.9871615399999999  0.8097723  1.0000
  O   O21       1.0  0.8173335099999998  0.9391710199999997  0.9611764799999999  1.0000
  O   O22       1.0  0.97800047  0.86955481  0.81148234  1.0000
  O   O23       1.0  0.92654282  0.82287563  0.9617056599999998  1.0000
  O   O24       1.0  0.87219708  0.13697303  0.8485555699999998  1.0000
  O   O25       1.0  0.32512479  0.31516196  0.6855450799999998  1.0000
  O   O26       1.0  0.48716394  0.3646682099999999  0.69022592  1.0000
  O   O27       1.0  0.43917513  0.31733361  0.53881982  1.0000
  O   O28       1.0  0.36956575  0.47801037  0.68851755  1.0000
  O   O29       1.0  0.32288364  0.42654504  0.53829236  1.0000
  O   O30       1.0  0.6369670299999998  0.37219899  0.6514399799999998  1.0000
  O   O31       1.0  0.67486375  0.68482805  0.68552922  1.0000
  O   O32       1.0  0.51285947  0.63535654  0.6902234999999998  1.0000
  O   O33       1.0  0.5608347999999997  0.682649  0.5389108699999998  1.0000
  O   O34       1.0  0.63041712  0.52198641  0.6885312399999998  1.0000
  O   O35       1.0  0.67714517  0.57346651  0.53820881  1.0000
  O   O36       1.0  0.36304721999999995  0.62778012  0.6514748899999998  1.0000
  O   O37       1.0  0.68482235  0.3251305399999999  0.31445849999999986  1.0000
  O   O38       1.0  0.63531189  0.48712838  0.3097629699999999  1.0000
  O   O39       1.0  0.68266603  0.43918395  0.46115657999999987  1.0000
  O   O40       1.0  0.52199676  0.36960358  0.31146139  1.0000
  O   O41       1.0  0.57345403  0.3228517199999999  0.46178123999999987  1.0000
  O   O42       1.0  0.62785364  0.63696881  0.34854048999999987  1.0000
  O   O43       1.0  0.31519241  0.67477554  0.31453592999999996  1.0000
  O   O44       1.0  0.36468056  0.51279304  0.3097360099999999  1.0000
  O   O45       1.0  0.31729567  0.56072566  0.46127299  1.0000
  O   O46       1.0  0.47805882999999993  0.63039921  0.3114057499999999  1.0000
  O   O47       1.0  0.4266419999999999  0.6771686099999997  0.4618906399999999  1.0000
  O   O48       1.0  0.3722168  0.3629730399999999  0.3485415299999999  1.0000
  O   O49       1.0  0.9999895800000002  6.629999999999998e-06  0.30687545  1.0000
  O   O50       1.0  1.7599999999999861e-06  0.99999565  0.69312798  1.0000
  O   O51       1.0  0.49999302999999995  0.50000685  0.8068816399999997  1.0000
  O   O52       1.0  0.50001266  0.49999337999999993  0.19312111999999995  1.0000
