data_image0
_chemical_formula_structural       Cu12H72C96N48O24
_chemical_formula_sum              "Cu12 H72 C96 N48 O24"
_cell_length_a       15.85552557
_cell_length_b       15.85553425
_cell_length_c       15.85571016
_cell_angle_alpha    89.99860258000001
_cell_angle_beta     90.00080491
_cell_angle_gamma    90.0016238

_symmetry_space_group_name_H-M    'P 1'
_symmetry_Int_Tables_number       1

loop_
  _symmetry_equiv_pos_as_xyz
  'x,y,z'

loop_
  _atom_site_type_symbol
  _atom_site_label
  _atom_site_symmetry_multiplicity
  _atom_site_fract_x
  _atom_site_fract_y
  _atom_site_fract_z
  _atom_site_occupancy
  Cu  Cu1       1.0  0.49999026  0.75002058  0.25003572  1.0000
  Cu  Cu2       1.0  1.0029999999999997e-05  0.74998157  0.25003714  1.0000
  Cu  Cu3       1.0  0.24999047  0.50000154  0.75001065  1.0000
  Cu  Cu4       1.0  0.24994672  4.31e-06  0.75005583  1.0000
  Cu  Cu5       1.0  0.75003039  0.25002249  0.49998756  1.0000
  Cu  Cu6       1.0  0.74997114  0.25001702  0.99998866  1.0000
  Cu  Cu7       1.0  0.50000993  0.25001561  0.75003069  1.0000
  Cu  Cu8       1.0  1.2589999999999996e-05  0.25002491  0.7499724599999997  1.0000
  Cu  Cu9       1.0  0.75002177  0.49999231  0.25003289  1.0000
  Cu  Cu10      1.0  0.74997959  1.347e-05  0.25003393  1.0000
  Cu  Cu11      1.0  0.24999716000000005  0.75000282  0.49997518  1.0000
  Cu  Cu12      1.0  0.24999753000000005  0.74999841  0.9999749199999999  1.0000
  H   H1        1.0  0.42707  0.92536724  0.26648841  1.0000
  H   H2        1.0  0.07293004  0.57463278  0.26648850999999996  1.0000
  H   H3        1.0  0.07293429  0.92537313  0.23350576  1.0000
  H   H4        1.0  0.42706536  0.57462713  0.23350578999999994  1.0000
  H   H5        1.0  0.26649541  0.42706296  0.92536901  1.0000
  H   H6        1.0  0.26649595  0.07293473  0.57462635  1.0000
  H   H7        1.0  0.23351044000000007  0.07293157  0.9253649199999998  1.0000
  H   H8        1.0  0.23351156  0.42707179  0.57463032  1.0000
  H   H9        1.0  0.92536971  0.26649259  0.4270639499999999  1.0000
  H   H10       1.0  0.57463411  0.26649093  0.07293149  1.0000
  H   H11       1.0  0.92536948  0.23350885  0.0729296  1.0000
  H   H12       1.0  0.57462717  0.23350629  0.42706661  1.0000
  H   H13       1.0  0.42537378  0.92706689  0.73350462  1.0000
  H   H14       1.0  0.07463076  0.57293726  0.7335046  1.0000
  H   H15       1.0  0.42536811  0.57292866  0.7664896099999998  1.0000
  H   H16       1.0  0.07463532  0.92706912  0.76648888  1.0000
  H   H17       1.0  0.92707104  0.76649201  0.07463047  1.0000
  H   H18       1.0  0.57293336  0.76649226  0.4253650099999999  1.0000
  H   H19       1.0  0.57292886  0.73350831  0.07463049  1.0000
  H   H20       1.0  0.92706708  0.73350796  0.42536553  1.0000
  H   H21       1.0  0.76648934  0.42536687  0.57292895  1.0000
  H   H22       1.0  0.76649485  0.07462823  0.92706439  1.0000
  H   H23       1.0  0.73351215  0.42536773  0.92707139  1.0000
  H   H24       1.0  0.73350135  0.07463061  0.5729386299999998  1.0000
  H   H25       1.0  0.5729351400000002  0.07462782  0.73350549  1.0000
  H   H26       1.0  0.92707149  0.4253671  0.73351114  1.0000
  H   H27       1.0  0.9270610900000003  0.07463071  0.7664984799999998  1.0000
  H   H28       1.0  0.57292881  0.4253678  0.76648782  1.0000
  H   H29       1.0  0.73350789  0.57292939  0.07463117  1.0000
  H   H30       1.0  0.73350818  0.92706724  0.42536568  1.0000
  H   H31       1.0  0.76649178  0.92707135  0.07463082  1.0000
  H   H32       1.0  0.76649237  0.57293352  0.4253653899999999  1.0000
  H   H33       1.0  0.07463357  0.73350725  0.5729313199999998  1.0000
  H   H34       1.0  0.42537148  0.73350828  0.92706656  1.0000
  H   H35       1.0  0.07462842  0.76649261  0.9270647799999998  1.0000
  H   H36       1.0  0.4253658  0.76649276  0.5729304699999997  1.0000
  H   H37       1.0  0.57463222  0.07293024  0.26648867999999987  1.0000
  H   H38       1.0  0.92536802  0.42707015  0.2664878199999999  1.0000
  H   H39       1.0  0.57462736  0.42706532  0.23350582999999994  1.0000
  H   H40       1.0  0.92537231  0.07293576  0.23350514999999994  1.0000
  H   H41       1.0  0.07293455  0.23350538  0.92537283  1.0000
  H   H42       1.0  0.42707073  0.23350883  0.57463092  1.0000
  H   H43       1.0  0.42706776  0.2664916  0.9253658499999998  1.0000
  H   H44       1.0  0.07293571  0.26649251  0.57463064  1.0000
  H   H45       1.0  0.23350795  0.5746276899999999  0.4270659799999999  1.0000
  H   H46       1.0  0.23350794  0.92536603  0.07293119999999997  1.0000
  H   H47       1.0  0.26649167  0.57463379  0.07293071999999998  1.0000
  H   H48       1.0  0.26649157  0.92537279  0.42706679  1.0000
  H   H49       1.0  0.31239167  0.00642992  0.187606  1.0000
  H   H50       1.0  0.18760842  0.49356972  0.18760580999999996  1.0000
  H   H51       1.0  0.18760341  0.00641087  0.31239493  1.0000
  H   H52       1.0  0.31239614  0.49358893  0.3123943099999999  1.0000
  H   H53       1.0  0.18760291  0.31239418  0.00640908  1.0000
  H   H54       1.0  0.18760544  0.18760119  0.49359040999999987  1.0000
  H   H55       1.0  0.3123944  0.18760714  0.006430019999999998  1.0000
  H   H56       1.0  0.3123932  0.3123922  0.4935733799999999  1.0000
  H   H57       1.0  0.00641081  0.18760229  0.31239543  1.0000
  H   H58       1.0  0.49357009  0.18760706  0.18760686999999998  1.0000
  H   H59       1.0  0.006427730000000002  0.31239072  0.18760611  1.0000
  H   H60       1.0  0.49359126  0.31239499  0.31239575  1.0000
  H   H61       1.0  0.50640972  0.81239748  0.8123935999999998  1.0000
  H   H62       1.0  0.99358903  0.68760458  0.8123954499999998  1.0000
  H   H63       1.0  0.50642957  0.68760726  0.6876071  1.0000
  H   H64       1.0  0.99356927  0.81239215  0.6876045899999997  1.0000
  H   H65       1.0  0.81239341  0.68760673  0.9935729099999998  1.0000
  H   H66       1.0  0.68760627  0.68760589  0.50642959  1.0000
  H   H67       1.0  0.68760632  0.8123938  0.99357297  1.0000
  H   H68       1.0  0.8123943400000002  0.81239469  0.50642988  1.0000
  H   H69       1.0  0.68760732  0.50642892  0.68760592  1.0000
  H   H70       1.0  0.68760497  0.99358972  0.81239475  1.0000
  H   H71       1.0  0.81239441  0.50642873  0.81239268  1.0000
  H   H72       1.0  0.81239649  0.99359245  0.68760347  1.0000
  C   C1        1.0  0.39162047  0.89798844  0.21410134  1.0000
  C   C2        1.0  0.1083801  0.60201123  0.21410089999999998  1.0000
  C   C3        1.0  0.1083648  0.8979922  0.28588954  1.0000
  C   C4        1.0  0.39163544  0.60200832  0.28588947  1.0000
  C   C5        1.0  0.2141093  0.39162966  0.8979930299999997  1.0000
  C   C6        1.0  0.21411424  0.1083611  0.60200488  1.0000
  C   C7        1.0  0.28589637  0.10838129  0.89799159  1.0000
  C   C8        1.0  0.28589382  0.39162554  0.6020085799999998  1.0000
  C   C9        1.0  0.8980019  0.21410921  0.39162879  1.0000
  C   C10       1.0  0.60201459  0.21410623  0.10837978  1.0000
  C   C11       1.0  0.89798566  0.28589053  0.10837234  1.0000
  C   C12       1.0  0.60199859  0.28588756  0.39163738999999986  1.0000
  C   C13       1.0  0.39799365  0.89163921  0.7858853799999997  1.0000
  C   C14       1.0  0.10200567  0.60836996  0.78588961  1.0000
  C   C15       1.0  0.39799144  0.60837523  0.71410689  1.0000
  C   C16       1.0  0.10200954  0.89161776  0.71410369  1.0000
  C   C17       1.0  0.89162913  0.71410881  0.10201565  1.0000
  C   C18       1.0  0.60837967  0.71410557  0.3979867  1.0000
  C   C19       1.0  0.60837121  0.78589115  0.1020149  1.0000
  C   C20       1.0  0.89161975  0.78589451  0.3979877899999999  1.0000
  C   C21       1.0  0.71410902  0.39799551  0.6083766  1.0000
  C   C22       1.0  0.71410919  0.1020081  0.89163416  1.0000
  C   C23       1.0  0.78589838  0.39798818  0.89162183  1.0000
  C   C24       1.0  0.78588418  0.10200153  0.6083650199999998  1.0000
  C   C25       1.0  0.60836544  0.10200799  0.78589027  1.0000
  C   C26       1.0  0.89162357  0.39799581  0.78589047  1.0000
  C   C27       1.0  0.89163468  0.10200142  0.7141157499999998  1.0000
  C   C28       1.0  0.60837809  0.39798796  0.7141017  1.0000
  C   C29       1.0  0.78589088  0.60837166  0.10201426  1.0000
  C   C30       1.0  0.78589351  0.89162097  0.39798724  1.0000
  C   C31       1.0  0.71410917  0.891629  0.10201563  1.0000
  C   C32       1.0  0.7141061  0.60838004  0.39798849  1.0000
  C   C33       1.0  0.10201052  0.78588899  0.60837742  1.0000
  C   C34       1.0  0.39799571  0.78589423  0.89163303  1.0000
  C   C35       1.0  0.10200129  0.71410639  0.89163337  1.0000
  C   C36       1.0  0.39798617  0.71411039  0.60837666  1.0000
  C   C37       1.0  0.60200998  0.10837785  0.21410249  1.0000
  C   C38       1.0  0.89798979  0.391621  0.21410132  1.0000
  C   C39       1.0  0.60200852  0.39163439  0.2858907799999999  1.0000
  C   C40       1.0  0.8979928  0.1083649  0.2858901  1.0000
  C   C41       1.0  0.10836192  0.28588711  0.89800313  1.0000
  C   C42       1.0  0.39162739  0.28589098  0.60201537  1.0000
  C   C43       1.0  0.3916202000000001  0.21410664  0.8979865899999998  1.0000
  C   C44       1.0  0.1083709  0.21410891  0.6019999999999998  1.0000
  C   C45       1.0  0.28589396  0.60200256  0.39163221  1.0000
  C   C46       1.0  0.28588945  0.89798765  0.10837711999999997  1.0000
  C   C47       1.0  0.21411127  0.60201235  0.1083764  1.0000
  C   C48       1.0  0.21410701  0.89799782  0.39163307  1.0000
  C   C49       1.0  0.37310432  0.7780569  0.1268966  1.0000
  C   C50       1.0  0.32876568  0.94198315  0.17123195  1.0000
  C   C51       1.0  0.12689591  0.72194339  0.12689612  1.0000
  C   C52       1.0  0.17123387000000007  0.55801717  0.17123255  1.0000
  C   C53       1.0  0.12691572  0.77812334  0.37308797  1.0000
  C   C54       1.0  0.1712202  0.94195717  0.32877782  1.0000
  C   C55       1.0  0.37308423  0.72187674  0.37308724  1.0000
  C   C56       1.0  0.32877976  0.55804207  0.32877859  1.0000
  C   C57       1.0  0.12690709  0.37308303  0.7781181399999998  1.0000
  C   C58       1.0  0.17121263  0.32878111  0.9419592999999998  1.0000
  C   C59       1.0  0.12691128  0.12691175  0.7218842599999998  1.0000
  C   C60       1.0  0.17122034  0.17121469  0.55804241  1.0000
  C   C61       1.0  0.37309933  0.1268964  0.77806874  1.0000
  C   C62       1.0  0.32876978  0.17123167  0.94198601  1.0000
  C   C63       1.0  0.37310189  0.37310621  0.72194638  1.0000
  C   C64       1.0  0.32876531  0.32876514  0.55802471  1.0000
  C   C65       1.0  0.77812405  0.12691493  0.3730879499999999  1.0000
  C   C66       1.0  0.94196017  0.17121664  0.32878159  1.0000
  C   C67       1.0  0.72193163  0.12689643  0.12690201  1.0000
  C   C68       1.0  0.55801691  0.17123263  0.1712344  1.0000
  C   C69       1.0  0.77806174  0.37310229  0.12689848999999995  1.0000
  C   C70       1.0  0.94197806  0.32876445  0.17123369999999993  1.0000
  C   C71       1.0  0.7218843300000002  0.37308362  0.37309218  1.0000
  C   C72       1.0  0.5580447  0.32877962  0.32878227  1.0000
  C   C73       1.0  0.27811542  0.87308725  0.8730889  1.0000
  C   C74       1.0  0.44195517  0.8287816  0.8287777  1.0000
  C   C75       1.0  0.22187364  0.62691729  0.87308857  1.0000
  C   C76       1.0  0.05803865  0.67121765  0.82878384  1.0000
  C   C77       1.0  0.27804813  0.62689073  0.62689673  1.0000
  C   C78       1.0  0.4419810000000001  0.67123157  0.67123384  1.0000
  C   C79       1.0  0.22194367  0.87310602  0.62689562  1.0000
  C   C80       1.0  0.05801468  0.82876665  0.67122872  1.0000
  C   C81       1.0  0.87310344  0.62689604  0.22194139  1.0000
  C   C82       1.0  0.8287679  0.67123116  0.05802739  1.0000
  C   C83       1.0  0.6268999300000002  0.62689998  0.2780775  1.0000
  C   C84       1.0  0.67122763  0.67122578  0.44198389  1.0000
  C   C85       1.0  0.62689621  0.87310428  0.22194151  1.0000
  C   C86       1.0  0.67123176  0.82876754  0.05802774999999999  1.0000
  C   C87       1.0  0.87310009  0.8731011  0.2780772699999999  1.0000
  C   C88       1.0  0.82877284  0.82877226  0.4419832099999999  1.0000
  C   C89       1.0  0.62689894  0.27806022  0.6268950499999998  1.0000
  C   C90       1.0  0.67123739  0.44198227  0.67123521  1.0000
  C   C91       1.0  0.6269140400000001  0.22187691  0.8730861099999998  1.0000
  C   C92       1.0  0.67121718  0.0580436  0.82878297  1.0000
  C   C93       1.0  0.87310487  0.27806106  0.87310078  1.0000
  C   C94       1.0  0.82876458  0.44198174  0.82876255  1.0000
  C   C95       1.0  0.87309052  0.22188716  0.6269097199999998  1.0000
  C   C96       1.0  0.82879287  0.05804229  0.67120739  1.0000
  N   N1        1.0  0.41189766  0.81902815  0.19361212  1.0000
  N   N2        1.0  0.08810201  0.68097204  0.19361179999999995  1.0000
  N   N3        1.0  0.08803871  0.81900357  0.30626201  1.0000
  N   N4        1.0  0.41196167  0.68099586  0.30626153  1.0000
  N   N5        1.0  0.19373993  0.41192292  0.81901283  1.0000
  N   N6        1.0  0.19375007  0.08801966  0.68099622  1.0000
  N   N7        1.0  0.30636989  0.08812462  0.8190292399999998  1.0000
  N   N8        1.0  0.30636358  0.41191577  0.6809767599999997  1.0000
  N   N9        1.0  0.81903213  0.19372227  0.4119347599999999  1.0000
  N   N10       1.0  0.68099659  0.19365526  0.0881352  1.0000
  N   N11       1.0  0.81899652  0.3063375  0.08809093  1.0000
  N   N12       1.0  0.68097466  0.30626884  0.41198337  1.0000
  N   N13       1.0  0.31900062  0.91197436  0.8062471  1.0000
  N   N14       1.0  0.18099281  0.58807349  0.8062549  1.0000
  N   N15       1.0  0.31902378  0.58808847  0.69363065  1.0000
  N   N16       1.0  0.18097109  0.91186577  0.69362114  1.0000
  N   N17       1.0  0.91191616  0.69366151  0.18099790999999996  1.0000
  N   N18       1.0  0.58812666  0.69365515  0.31900713  1.0000
  N   N19       1.0  0.5880832400000002  0.80633753  0.18099812  1.0000
  N   N20       1.0  0.91187379  0.80634392  0.31900669999999987  1.0000
  N   N21       1.0  0.6936541400000003  0.31902424  0.58811635  1.0000
  N   N22       1.0  0.69372904  0.18099388  0.9119641499999998  1.0000
  N   N23       1.0  0.80637715  0.31902828  0.9119032899999998  1.0000
  N   N24       1.0  0.8062403  0.18099273  0.58805633  1.0000
  N   N25       1.0  0.58803638  0.1809937  0.8062704899999997  1.0000
  N   N26       1.0  0.91188276  0.3190247  0.8063461299999998  1.0000
  N   N27       1.0  0.91194356  0.18099263  0.6937596  1.0000
  N   N28       1.0  0.58809686  0.31902827  0.69362354  1.0000
  N   N29       1.0  0.80633618  0.58808695  0.18099806  1.0000
  N   N30       1.0  0.80634312  0.91187398  0.3190066199999999  1.0000
  N   N31       1.0  0.69366344  0.91191339  0.18099762  1.0000
  N   N32       1.0  0.69365736  0.58812634  0.319007  1.0000
  N   N33       1.0  0.18100237  0.80633395  0.5881256499999998  1.0000
  N   N34       1.0  0.31903426  0.80629474  0.91196816  1.0000
  N   N35       1.0  0.18096819  0.69370789  0.9119749799999998  1.0000
  N   N36       1.0  0.31899914  0.69366332  0.58813293  1.0000
  N   N37       1.0  0.68097289  0.08809187  0.19362325999999994  1.0000
  N   N38       1.0  0.8190271  0.41190033  0.19362096  1.0000
  N   N39       1.0  0.68098986  0.4119564  0.30626672  1.0000
  N   N40       1.0  0.8190086000000002  0.08803612  0.3062644099999999  1.0000
  N   N41       1.0  0.08801272000000002  0.30626779  0.81902653  1.0000
  N   N42       1.0  0.41190636  0.30633982  0.6810011799999998  1.0000
  N   N43       1.0  0.41186936  0.19365507  0.8190048699999998  1.0000
  N   N44       1.0  0.08806918  0.19371943  0.68096422  1.0000
  N   N45       1.0  0.30629165  0.68096992  0.41197207  1.0000
  N   N46       1.0  0.30633409  0.81899742  0.08813063  1.0000
  N   N47       1.0  0.19366604  0.68100255  0.08813094999999997  1.0000
  N   N48       1.0  0.19370829  0.81902966  0.4119713499999999  1.0000
  O   O1        1.0  0.39722062  0.70718323  0.10277616  1.0000
  O   O2        1.0  0.10277952  0.79281705  0.10277604  1.0000
  O   O3        1.0  0.10278224  0.70720384  0.3972140199999999  1.0000
  O   O4        1.0  0.3972185800000001  0.79279433  0.3972139699999999  1.0000
  O   O5        1.0  0.10278622  0.39721377  0.70720404  1.0000
  O   O6        1.0  0.10278687  0.10278479  0.79279585  1.0000
  O   O7        1.0  0.39721977  0.10278393  0.7071858  1.0000
  O   O8        1.0  0.3972257300000001  0.39722416  0.7928148699999997  1.0000
  O   O9        1.0  0.70720462  0.10278566  0.3972122199999999  1.0000
  O   O10       1.0  0.79281325  0.10277996  0.10277773999999998  1.0000
  O   O11       1.0  0.70718601  0.39722401  0.10277506  1.0000
  O   O12       1.0  0.79279555  0.39721816  0.39721501  1.0000
  O   O13       1.0  0.20720575  0.89721687  0.8972152199999998  1.0000
  O   O14       1.0  0.2927945  0.6027864  0.8972126499999997  1.0000
  O   O15       1.0  0.20718056  0.60277718  0.60277693  1.0000
  O   O16       1.0  0.29282018  0.89721713  0.60277951  1.0000
  O   O17       1.0  0.89722061  0.60277774  0.29281506  1.0000
  O   O18       1.0  0.6027869700000003  0.60278542  0.20718440999999996  1.0000
  O   O19       1.0  0.6027786  0.89722019  0.29281466  1.0000
  O   O20       1.0  0.8972134  0.89721296  0.20718387  1.0000
  O   O21       1.0  0.60277626  0.20718876  0.60277588  1.0000
  O   O22       1.0  0.60278717  0.29279744  0.89721292  1.0000
  O   O23       1.0  0.8972243  0.207188  0.89722323  1.0000
  O   O24       1.0  0.89720938  0.29280195  0.60279125  1.0000
