data_image0
_chemical_formula_structural       Cu2H16C24N4O8
_chemical_formula_sum              "Cu2 H16 C24 N4 O8"
_cell_length_a       4.53660383
_cell_length_b       11.07324814
_cell_length_c       12.72771713
_cell_angle_alpha    90.72902927
_cell_angle_beta     100.26769531
_cell_angle_gamma    85.89983065

_space_group_name_H-M_alt    "P 1"
_space_group_IT_number       1

loop_
  _space_group_symop_operation_xyz
  'x, y, z'

loop_
  _atom_site_type_symbol
  _atom_site_label
  _atom_site_symmetry_multiplicity
  _atom_site_fract_x
  _atom_site_fract_y
  _atom_site_fract_z
  _atom_site_occupancy
  Cu  Cu1       1.0  0.3929558  0.19945431  0.22988379  1.0000
  Cu  Cu2       1.0  0.16301005999999998  0.69945028  0.7701228700000001  1.0000
  H   H1        1.0  0.68772066  0.59737342  0.46034777  1.0000
  H   H2        1.0  0.20894940999999997  0.42094532  0.87031071  1.0000
  H   H3        1.0  0.46107116  0.26632718  0.0090008  1.0000
  H   H4        1.0  0.5682097  0.5131072  0.07369039  1.0000
  H   H5        1.0  0.86378808  0.3718668  0.20967225000000003  1.0000
  H   H6        1.0  0.00041950999999999696  0.36021769  0.49029006  1.0000
  H   H7        1.0  0.9311218299999999  0.47028955000000006  0.66058501  1.0000
  H   H8        1.0  0.57131582  0.70668188  0.62243625  1.0000
  H   H9        1.0  0.22743907000000002  0.09735726999999998  0.53965448  1.0000
  H   H10       1.0  0.33866646  0.9210023900000001  0.12965767  1.0000
  H   H11       1.0  0.45203177999999994  0.76634503  0.9909992  1.0000
  H   H12       1.0  0.4944493500000001  0.013158130000000002  0.9263114400000002  1.0000
  H   H13       1.0  0.6539692  0.87187585  0.79033609  1.0000
  H   H14       1.0  0.51015284  0.86022233  0.50973004  1.0000
  H   H15       1.0  0.27056111  0.970276  0.33941734000000007  1.0000
  H   H16       1.0  0.9489344900000001  0.20666029  0.37754755  1.0000
  C   C1        1.0  0.36894255  0.4618986400000001  0.46897897  1.0000
  C   C2        1.0  0.43679534000000003  0.39253235  0.37353045  1.0000
  C   C3        1.0  0.53079839  0.56254869  0.50564083  1.0000
  C   C4        1.0  0.11966353000000014  0.40633168999999997  0.9425253400000001  1.0000
  C   C5        1.0  0.27942459  0.33010451  0.02278882  1.0000
  C   C6        1.0  0.75290804  0.45529461000000004  0.05321961  1.0000
  C   C7        1.0  0.8551582400000002  0.46953937  0.9563789800000001  1.0000
  C   C8        1.0  0.70122249  0.55455212  0.86972939  1.0000
  C   C9        1.0  0.9294372700000001  0.38066213  0.13204491  1.0000
  C   C10       1.0  0.1427657  0.43188047  0.52145309  1.0000
  C   C11       1.0  0.08196220999999998  0.49883644  0.61008103  1.0000
  C   C12       1.0  0.45329826000000006  0.62731927  0.59296159  1.0000
  C   C13       1.0  0.8999970799999999  0.9619005600000001  0.53103517  1.0000
  C   C14       1.0  0.06332873999999997  0.8925646700000001  0.6264922  1.0000
  C   C15       1.0  0.025203270000000014  0.06253837  0.49436828  1.0000
  C   C16       1.0  0.17713860000000006  0.9063662900000001  0.05745688  1.0000
  C   C17       1.0  0.25658100000000017  0.8301171999999999  0.9772041500000002  1.0000
  C   C18       1.0  0.6996199000000001  0.95532727  0.94677431  1.0000
  C   C19       1.0  0.8987981499999999  0.96957824  0.043607570000000005  1.0000
  C   C20       1.0  0.83157289  0.05458827000000001  0.130258  1.0000
  C   C21       1.0  0.79726359  0.88067331  0.86795486  1.0000
  C   C22       1.0  0.62133697  0.93187532  0.47855452  1.0000
  C   C23       1.0  0.47192624000000016  0.99882475  0.38991557000000004  1.0000
  C   C24       1.0  0.8603909599999999  0.12730037  0.40703357000000007  1.0000
  N   N1        1.0  0.18116783000000003  0.3177168  0.11666785  1.0000
  N   N2        1.0  0.24313940999999997  0.59426207  0.64572259  1.0000
  N   N3        1.0  0.06437476999999998  0.81771756  0.88333729  1.0000
  N   N4        1.0  0.5974611  0.09424676  0.35426507  1.0000
  O   O1        1.0  0.268725  0.303586  0.34514388  1.0000
  O   O2        1.0  0.82297728  0.56348554  0.78909272  1.0000
  O   O3        1.0  0.64482479  0.42262078  0.32902484  1.0000
  O   O4        1.0  0.45939266999999995  0.61372389  0.88634597  1.0000
  O   O5        1.0  0.9236649300000002  0.80363114  0.65490951  1.0000
  O   O6        1.0  0.034013959999999996  0.06350593  0.21089459  1.0000
  O   O7        1.0  0.31587977000000006  0.9226704200000001  0.67097195  1.0000
  O   O8        1.0  0.57315813  0.11376729  0.11364195  1.0000
