data_image0
_chemical_formula_structural       Cu2H16C24N4O8
_chemical_formula_sum              "Cu2 H16 C24 N4 O8"
_cell_length_a       4.52267446
_cell_length_b       10.816764659999999
_cell_length_c       12.91827732
_cell_angle_alpha    90.65961174
_cell_angle_beta     100.09246779
_cell_angle_gamma    86.27492046

_symmetry_space_group_name_H-M    'P 1'
_symmetry_Int_Tables_number       1

loop_
  _symmetry_equiv_pos_as_xyz
  'x,y,z'

loop_
  _atom_site_type_symbol
  _atom_site_label
  _atom_site_symmetry_multiplicity
  _atom_site_fract_x
  _atom_site_fract_y
  _atom_site_fract_z
  _atom_site_occupancy
  Cu  Cu1       1.0  0.06842556000000004  0.78140908  0.23130328  1.0000
  Cu  Cu2       1.0  0.8372328399999999  0.28141969  0.7687116799999998  1.0000
  H   H1        1.0  0.9512126299999999  0.51675141  0.65963076  1.0000
  H   H2        1.0  0.7054613399999999  0.62536093  0.49086555  1.0000
  H   H3        1.0  0.99531316  0.3770217  0.46672290999999994  1.0000
  H   H4        1.0  0.2812709399999999  0.26851817  0.62672795  1.0000
  H   H5        1.0  0.3691665899999999  0.10377947  0.79062758  1.0000
  H   H6        1.0  0.6659788199999997  0.9657905300000001  0.92893316  1.0000
  H   H7        1.0  0.02227969999999999  0.06680316  0.12682426  1.0000
  H   H8        1.0  0.7698327299999999  0.21980469000000002  0.98615423  1.0000
  H   H9        1.0  0.29139481  0.01681916  0.3404166  1.0000
  H   H10       1.0  0.21426009  0.12546576  0.50914725  1.0000
  H   H11       1.0  0.5285115499999999  0.8769631  0.53320049  1.0000
  H   H12       1.0  0.65467211  0.7684396100000002  0.37324542999999993  1.0000
  H   H13       1.0  0.5784714499999998  0.60388472  0.20943794  1.0000
  H   H14       1.0  0.73732322  0.46597765  0.07116523  1.0000
  H   H15       1.0  0.8958606399999999  0.56693943  0.87303084  1.0000
  H   H16       1.0  0.7836691199999999  0.71984276  0.013738199999999999  1.0000
  C   C1        1.0  0.7514013100000001  0.48490778  0.61025758  1.0000
  C   C2        1.0  0.59853692  0.55081955  0.52228641  1.0000
  C   C3        1.0  0.32116577999999996  0.51670704  0.47140920999999997  1.0000
  C   C4        1.0  0.19746126  0.41442311  0.51018391  1.0000
  C   C5        1.0  0.3659701199999999  0.35036943  0.59647199  1.0000
  C   C6        1.0  0.15754425999999994  0.58345687  0.37528102999999996  1.0000
  C   C7        1.0  0.30375998999999976  0.09838571  0.8676448899999998  1.0000
  C   C8        1.0  0.4810906  0.02587575  0.94761232  1.0000
  C   C9        1.0  0.37835297  0.01548237  0.04370053  1.0000
  C   C10       1.0  0.11222697  0.07983256  0.05541616999999999  1.0000
  C   C11       1.0  0.9520587999999998  0.15413091  0.9742270599999998  1.0000
  C   C12       1.0  0.53045521  0.93205751  0.13181013  1.0000
  C   C13       1.0  0.14107327  0.9849234400000001  0.38976251999999995  1.0000
  C   C14       1.0  0.07605588999999996  0.0508437  0.4777399799999999  1.0000
  C   C15       1.0  0.8496604599999998  0.01668727  0.52860528  1.0000
  C   C16       1.0  0.68718769  0.914407  0.4897751299999999  1.0000
  C   C17       1.0  0.7695442600000001  0.8503263499999999  0.40349109  1.0000
  C   C18       1.0  0.7821596199999999  0.083475  0.6247127699999999  1.0000
  C   C19       1.0  0.43612596  0.59851052  0.13240355  1.0000
  C   C20       1.0  0.53369187  0.52602864  0.0524278  1.0000
  C   C21       1.0  0.3349024599999999  0.5155882  0.95630937  1.0000
  C   C22       1.0  0.05703105999999992  0.57991541  0.94452673  1.0000
  C   C23       1.0  0.97782816  0.65418361  0.025721759999999996  1.0000
  C   C24       1.0  0.39905717999999996  0.43214075  0.8682512899999999  1.0000
  N   N1        1.0  0.62928424  0.38659197  0.6467214799999998  1.0000
  N   N2        1.0  0.051232190000000004  0.16329908  0.88126993  1.0000
  N   N3        1.0  0.9825583899999999  0.88656741  0.35333682  1.0000
  N   N4        1.0  0.16987265999999995  0.66330713  0.11869846  1.0000
  O   O1        1.0  0.2991290399999999  0.67300244  0.3445096399999999  1.0000
  O   O2        1.0  0.90497494  0.55072285  0.33253518  1.0000
  O   O3        1.0  0.7734929399999999  0.8710877800000001  0.11725905  1.0000
  O   O4        1.0  0.40448398999999996  0.92577976  0.21081355  1.0000
  O   O5        1.0  0.95449636  0.17304134  0.6555250699999999  1.0000
  O   O6        1.0  0.57230275  0.05074104  0.66742833  1.0000
  O   O7        1.0  0.65670003  0.37123746999999996  0.8827646199999998  1.0000
  O   O8        1.0  0.1939331  0.42573227  0.78922608  1.0000
