data_image0
_chemical_formula_structural       Ca8H16C32O40
_chemical_formula_sum              "Ca8 H16 C32 O40"
_cell_length_a       13.75188
_cell_length_b       13.74801
_cell_length_c       7.81733
_cell_angle_alpha    90.07235
_cell_angle_beta     89.98278000000002
_cell_angle_gamma    90.69842000000001

_symmetry_space_group_name_H-M    'P 1'
_symmetry_Int_Tables_number       1

loop_
  _symmetry_equiv_pos_as_xyz
  'x,y,z'

loop_
  _atom_site_type_symbol
  _atom_site_label
  _atom_site_symmetry_multiplicity
  _atom_site_fract_x
  _atom_site_fract_y
  _atom_site_fract_z
  _atom_site_occupancy
  Ca  Ca1       1.0  0.30678  0.25251  0.11636000000000003  1.0000
  Ca  Ca2       1.0  0.69421  0.7484800000000003  0.12956000000000006  1.0000
  Ca  Ca3       1.0  0.25281999999999993  0.69282  0.8758200000000003  1.0000
  Ca  Ca4       1.0  0.74754  0.30694  0.8766200000000002  1.0000
  Ca  Ca5       1.0  0.18845  0.25003000000000003  0.61936  1.0000
  Ca  Ca6       1.0  0.81265  0.74857  0.62974  1.0000
  Ca  Ca7       1.0  0.7484  0.1881  0.37277  1.0000
  Ca  Ca8       1.0  0.25259  0.8113200000000003  0.37202000000000013  1.0000
  H   H1        1.0  0.5196  0.23859  0.21526  1.0000
  H   H2        1.0  0.48118  0.7632600000000003  0.2282  1.0000
  H   H3        1.0  0.23717  0.4802200000000001  0.7762000000000002  1.0000
  H   H4        1.0  0.75758  0.52019  0.7821500000000002  1.0000
  H   H5        1.0  0.9760000000000001  0.23523000000000002  0.52167  1.0000
  H   H6        1.0  0.0247  0.76479  0.53121  1.0000
  H   H7        1.0  0.26011  0.48008000000000006  0.97524  1.0000
  H   H8        1.0  0.73338  0.5190900000000002  0.9809500000000002  1.0000
  H   H9        1.0  0.02496  0.73745  0.72888  1.0000
  H   H10       1.0  0.97564  0.2603500000000001  0.7201400000000002  1.0000
  H   H11       1.0  0.75337  0.9749400000000003  0.27398  1.0000
  H   H12       1.0  0.26402  0.0239  0.26814  1.0000
  H   H13       1.0  0.48119  0.74048  0.028790000000000003  1.0000
  H   H14       1.0  0.51942  0.26164  0.01618  1.0000
  H   H15       1.0  0.77851  0.9774800000000001  0.4725400000000001  1.0000
  H   H16       1.0  0.24058  0.0241  0.4673500000000001  1.0000
  C   C1        1.0  0.25814  0.02287000000000001  0.9614900000000002  1.0000
  C   C2        1.0  0.74454  0.97655  0.9672300000000003  1.0000
  C   C3        1.0  0.023420000000000003  0.7334700000000002  0.03474  1.0000
  C   C4        1.0  0.97618  0.2536  0.029030000000000007  1.0000
  C   C5        1.0  0.23869  0.02217  0.77495  1.0000
  C   C6        1.0  0.76508  0.97722  0.78097  1.0000
  C   C7        1.0  0.48120000000000007  0.75259  0.7203100000000002  1.0000
  C   C8        1.0  0.51918  0.26103000000000004  0.7094900000000002  1.0000
  C   C9        1.0  0.76393  0.51944  0.47412  1.0000
  C   C10       1.0  0.23799  0.47983  0.4685100000000001  1.0000
  C   C11       1.0  0.51963  0.24172000000000005  0.52286  1.0000
  C   C12       1.0  0.48225  0.7720100000000002  0.53359  1.0000
  C   C13       1.0  0.74378  0.51948  0.2877300000000001  1.0000
  C   C14       1.0  0.25713  0.4800100000000001  0.28182  1.0000
  C   C15       1.0  0.9768400000000002  0.23345  0.21532000000000007  1.0000
  C   C16       1.0  0.023839999999999997  0.7555100000000002  0.22057000000000004  1.0000
  C   C17       1.0  0.25584  0.91587  0.9618500000000002  1.0000
  C   C18       1.0  0.7378  0.08336000000000003  0.9646900000000003  1.0000
  C   C19       1.0  0.91633  0.7341600000000003  0.03648  1.0000
  C   C20       1.0  0.08331  0.25306  0.028770000000000007  1.0000
  C   C21       1.0  0.23988  0.9149200000000002  0.77725  1.0000
  C   C22       1.0  0.75495  0.08377  0.7803100000000002  1.0000
  C   C23       1.0  0.58824  0.75262  0.72046  1.0000
  C   C24       1.0  0.41216  0.2604000000000001  0.70723  1.0000
  C   C25       1.0  0.76374  0.41232  0.4716900000000001  1.0000
  C   C26       1.0  0.24348  0.5869600000000003  0.4688100000000001  1.0000
  C   C27       1.0  0.4125  0.24473  0.5225000000000002  1.0000
  C   C28       1.0  0.58947  0.76785  0.53575  1.0000
  C   C29       1.0  0.7471400000000001  0.41242  0.28723  1.0000
  C   C30       1.0  0.25947  0.58719  0.2842  1.0000
  C   C31       1.0  0.08384  0.23626000000000005  0.21314  1.0000
  C   C32       1.0  0.91683  0.7526700000000001  0.22046000000000004  1.0000
  O   O1        1.0  0.27221  0.08638  0.07596  1.0000
  O   O2        1.0  0.73721  0.91308  0.08357000000000003  1.0000
  O   O3        1.0  0.08606  0.7195900000000002  0.9190200000000002  1.0000
  O   O4        1.0  0.91256  0.26711  0.9151100000000002  1.0000
  O   O5        1.0  0.22614  0.08516  0.65949  1.0000
  O   O6        1.0  0.7855  0.9151600000000002  0.66747  1.0000
  O   O7        1.0  0.41753000000000007  0.7379300000000001  0.8343  1.0000
  O   O8        1.0  0.58195  0.27355000000000007  0.8257  1.0000
  O   O9        1.0  0.77578  0.5824000000000001  0.59064  1.0000
  O   O10       1.0  0.22326  0.4165600000000001  0.5831000000000002  1.0000
  O   O11       1.0  0.58303  0.22772000000000006  0.4085200000000001  1.0000
  O   O12       1.0  0.41954  0.78513  0.41776  1.0000
  O   O13       1.0  0.7276700000000002  0.5824000000000001  0.17386000000000004  1.0000
  O   O14       1.0  0.26766  0.4166400000000001  0.16606000000000007  1.0000
  O   O15       1.0  0.9143400000000002  0.21956  0.3316300000000001  1.0000
  O   O16       1.0  0.08695  0.7717300000000002  0.3348200000000001  1.0000
  O   O17       1.0  0.26398  0.8463400000000002  0.06652000000000001  1.0000
  O   O18       1.0  0.72474  0.15306  0.06778000000000003  1.0000
  O   O19       1.0  0.8461700000000001  0.7245500000000002  0.9331300000000002  1.0000
  O   O20       1.0  0.15314  0.26279  0.9246000000000002  1.0000
  O   O21       1.0  0.23208  0.8439700000000002  0.6749400000000002  1.0000
  O   O22       1.0  0.75956  0.15369  0.6758400000000002  1.0000
  O   O23       1.0  0.65768  0.74199  0.82456  1.0000
  O   O24       1.0  0.3419400000000001  0.26883  0.81045  1.0000
  O   O25       1.0  0.77147  0.34222  0.5749200000000002  1.0000
  O   O26       1.0  0.23819  0.6570300000000002  0.57305  1.0000
  O   O27       1.0  0.34255  0.23777000000000006  0.4182200000000001  1.0000
  O   O28       1.0  0.66055  0.7715300000000003  0.43308000000000013  1.0000
  O   O29       1.0  0.7383  0.3424100000000001  0.18298000000000006  1.0000
  O   O30       1.0  0.27105  0.6576700000000002  0.18193  1.0000
  O   O31       1.0  0.15401  0.22910000000000005  0.31646  1.0000
  O   O32       1.0  0.84726  0.7619100000000002  0.32475  1.0000
  O   O33       1.0  0.47637000000000007  0.25219  0.11686000000000003  1.0000
  O   O34       1.0  0.52405  0.74747  0.13018000000000005  1.0000
  O   O35       1.0  0.25216  0.52331  0.87479  1.0000
  O   O36       1.0  0.7427  0.47652  0.8798700000000003  1.0000
  O   O37       1.0  0.01896  0.25007  0.62059  1.0000
  O   O38       1.0  0.98178  0.7525100000000002  0.63097  1.0000
  O   O39       1.0  0.76587  0.01929000000000001  0.3720400000000001  1.0000
  O   O40       1.0  0.25253  0.98086  0.3680400000000001  1.0000
