data_image0
_chemical_formula_structural       Tb4Cu16H76C84I16N16O28
_chemical_formula_sum              "Tb4 Cu16 H76 C84 I16 N16 O28"
_cell_length_a       8.40949279
_cell_length_b       14.71955617
_cell_length_c       28.60106197
_cell_angle_alpha    102.07383134000001
_cell_angle_beta     89.99992636
_cell_angle_gamma    89.99983513

_space_group_name_H-M_alt    "P 1"
_space_group_IT_number       1

loop_
  _space_group_symop_operation_xyz
  'x, y, z'

loop_
  _atom_site_type_symbol
  _atom_site_label
  _atom_site_symmetry_multiplicity
  _atom_site_fract_x
  _atom_site_fract_y
  _atom_site_fract_z
  _atom_site_occupancy
  Tb  Tb1       1.0  0.22850387  0.44061770000000006  0.4845989500000001  1.0000
  Tb  Tb2       1.0  0.7285063  0.0593849  0.015400700000000002  1.0000
  Tb  Tb3       1.0  0.77149582  0.55938348  0.5154004500000002  1.0000
  Tb  Tb4       1.0  0.27149696  0.9406169700000001  0.9845984200000002  1.0000
  Cu  Cu1       1.0  0.8254050700000002  0.36133171000000003  0.7806912900000003  1.0000
  Cu  Cu2       1.0  0.32540415  0.13867106  0.7193085900000001  1.0000
  Cu  Cu3       1.0  0.17459463000000006  0.6386667  0.21930852000000006  1.0000
  Cu  Cu4       1.0  0.67459197  0.86133011  0.28069045  1.0000
  Cu  Cu5       1.0  0.09504348  0.41200739  0.74645633  1.0000
  Cu  Cu6       1.0  0.5950328300000002  0.0879958400000001  0.7535457800000002  1.0000
  Cu  Cu7       1.0  0.9049609600000003  0.58799242  0.25354362  1.0000
  Cu  Cu8       1.0  0.40495734  0.91200048  0.24645381  1.0000
  Cu  Cu9       1.0  0.09952529  0.35994872  0.82486606  1.0000
  Cu  Cu10      1.0  0.59952779  0.14005239999999997  0.67513444  1.0000
  Cu  Cu11      1.0  0.9004708400000001  0.64005109  0.17513425000000005  1.0000
  Cu  Cu12      1.0  0.40047309  0.85994462  0.32486523000000006  1.0000
  Cu  Cu13      1.0  0.9577110300000001  0.51376112  0.81810173  1.0000
  Cu  Cu14      1.0  0.45770850000000013  0.9862397299999999  0.68189991  1.0000
  Cu  Cu15      1.0  0.0422851  0.48623592  0.18189899000000004  1.0000
  Cu  Cu16      1.0  0.54228525  0.013759390000000003  0.31810067  1.0000
  H   H1        1.0  0.5644051700000002  0.8012731200000002  0.6293041400000002  1.0000
  H   H2        1.0  0.06441043000000003  0.69872915  0.8706974500000002  1.0000
  H   H3        1.0  0.4355968900000001  0.19873084  0.37069555  1.0000
  H   H4        1.0  0.93559402  0.30126652  0.12930417000000002  1.0000
  H   H5        1.0  0.4353693200000001  0.65699489  0.5836647  1.0000
  H   H6        1.0  0.93536974  0.8430101100000001  0.9163338800000003  1.0000
  H   H7        1.0  0.56463869  0.34300905  0.41633393000000013  1.0000
  H   H8        1.0  0.06463352  0.15698829999999997  0.08366593000000001  1.0000
  H   H9        1.0  0.9809142900000001  0.7820696  0.62787067  1.0000
  H   H10       1.0  0.48091944  0.71793463  0.8721285100000002  1.0000
  H   H11       1.0  0.01908778  0.2179219  0.37213052  1.0000
  H   H12       1.0  0.51908144  0.28206728  0.12787306  1.0000
  H   H13       1.0  0.12879467  0.92292977  0.67095316  1.0000
  H   H14       1.0  0.6288039700000002  0.57707512  0.8290462300000002  1.0000
  H   H15       1.0  0.8712002600000002  0.07706382999999999  0.32904895  1.0000
  H   H16       1.0  0.3711957200000001  0.4229261  0.17095527  1.0000
  H   H17       1.0  0.1819208  0.2984871200000001  0.6540049300000003  1.0000
  H   H18       1.0  0.68192343  0.20151731  0.84599553  1.0000
  H   H19       1.0  0.81808127  0.70151473  0.34599314  1.0000
  H   H20       1.0  0.31807269  0.798479  0.15400266  1.0000
  H   H21       1.0  0.32707115  0.32097303  0.58106305  1.0000
  H   H22       1.0  0.82707953  0.17903042000000005  0.9189362  1.0000
  H   H23       1.0  0.67292735  0.6790302  0.41893481  1.0000
  H   H24       1.0  0.17292492  0.82096726  0.08106144  1.0000
  H   H25       1.0  0.48374086  0.58705211  0.6613541200000002  1.0000
  H   H26       1.0  0.9837424500000002  0.91294794  0.83864428  1.0000
  H   H27       1.0  0.51625764  0.41294837  0.33864521000000003  1.0000
  H   H28       1.0  0.01625368  0.08705043000000001  0.16135308000000004  1.0000
  H   H29       1.0  0.32464201  0.55629212  0.73074553  1.0000
  H   H30       1.0  0.82463185  0.9437096700000001  0.7692559100000002  1.0000
  H   H31       1.0  0.6753624300000002  0.44370768  0.26925442000000005  1.0000
  H   H32       1.0  0.17536308  0.05628664  0.23074264  1.0000
  H   H33       1.0  0.11915743  0.89809996  0.38993627  1.0000
  H   H34       1.0  0.6191509  0.60190186  0.11006534000000001  1.0000
  H   H35       1.0  0.88085059  0.10190404999999997  0.61006657  1.0000
  H   H36       1.0  0.3808476  0.39810070000000003  0.88993385  1.0000
  H   H37       1.0  0.96996152  0.81190657  0.4434225500000001  1.0000
  H   H38       1.0  0.4699610600000001  0.68809805  0.05657817  1.0000
  H   H39       1.0  0.030039360000000005  0.18810161  0.5565807200000001  1.0000
  H   H40       1.0  0.53003506  0.31190521  0.9434214500000002  1.0000
  H   H41       1.0  0.25740918  0.57249176  0.38606656000000006  1.0000
  H   H42       1.0  0.75742118  0.9275049  0.11393201  1.0000
  H   H43       1.0  0.7425738700000002  0.42750943000000013  0.6139335400000002  1.0000
  H   H44       1.0  0.24258208  0.07249559000000001  0.88606766  1.0000
  H   H45       1.0  0.3947990200000001  0.6676864900000001  0.3349509200000001  1.0000
  H   H46       1.0  0.8948053400000002  0.83230854  0.16504849  1.0000
  H   H47       1.0  0.60519116  0.3323119200000001  0.6650489000000003  1.0000
  H   H48       1.0  0.10519792000000003  0.1676912600000001  0.8349518200000002  1.0000
  H   H49       1.0  0.16075142  0.18577997000000002  0.4441190900000001  1.0000
  H   H50       1.0  0.6607440400000002  0.31422345  0.055881010000000016  1.0000
  H   H51       1.0  0.8392554100000003  0.81421983  0.55588086  1.0000
  H   H52       1.0  0.3392580300000001  0.68577498  0.94411985  1.0000
  H   H53       1.0  0.5461002000000003  0.24338168  0.49673596  1.0000
  H   H54       1.0  0.04609843  0.25661918  0.003264620000000001  1.0000
  H   H55       1.0  0.45389593  0.75661678  0.5032666500000001  1.0000
  H   H56       1.0  0.9539036400000002  0.74337992  0.99673526  1.0000
  H   H57       1.0  0.61463263  0.12805021000000005  0.47117917  1.0000
  H   H58       1.0  0.11462897000000002  0.37194983  0.02882131  1.0000
  H   H59       1.0  0.3853658800000001  0.87195034  0.52882436  1.0000
  H   H60       1.0  0.88537429  0.6280499700000002  0.9711786500000001  1.0000
  H   H61       1.0  0.52778415  0.15281928  0.5297991  1.0000
  H   H62       1.0  0.02778346  0.3471805800000001  0.9702016500000001  1.0000
  H   H63       1.0  0.47221078000000005  0.84718055  0.4702029600000001  1.0000
  H   H64       1.0  0.97221861  0.65281852  0.029797880000000006  1.0000
  H   H65       1.0  0.1887582  0.04631924000000006  0.4547055500000001  1.0000
  H   H66       1.0  0.68875728  0.45368343  0.04529412  1.0000
  H   H67       1.0  0.81124744  0.95367918  0.54529496  1.0000
  H   H68       1.0  0.3112459800000001  0.54631567  0.95470541  1.0000
  H   H69       1.0  0.30576041  0.03597545  0.50587853  1.0000
  H   H70       1.0  0.8057610600000003  0.46402667  0.99412164  1.0000
  H   H71       1.0  0.69424047  0.96402295  0.4941205800000001  1.0000
  H   H72       1.0  0.19423982000000006  0.53597173  0.005877470000000002  1.0000
  H   H73       1.0  0.38686897  0.002979410000000036  0.4465220900000001  1.0000
  H   H74       1.0  0.88686779  0.49702082  0.05347795000000001  1.0000
  H   H75       1.0  0.6131319200000003  0.9970211100000002  0.5534793400000001  1.0000
  H   H76       1.0  0.11313428  0.50297827  0.9465212400000002  1.0000
  C   C1        1.0  0.43538196  0.79407987  0.62786866  1.0000
  C   C2        1.0  0.9353880300000003  0.70592378  0.87213223  1.0000
  C   C3        1.0  0.56461773  0.20592132  0.37213143  1.0000
  C   C4        1.0  0.06461285  0.29407328  0.12786954  1.0000
  C   C5        1.0  0.36295217  0.71369875  0.6028965500000002  1.0000
  C   C6        1.0  0.86295653  0.7863064  0.8971031300000002  1.0000
  C   C7        1.0  0.6370522800000002  0.28630104  0.3971027100000001  1.0000
  C   C8        1.0  0.13704911000000006  0.21369204000000003  0.10289808000000003  1.0000
  C   C9        1.0  0.19722756  0.70829948  0.6019103200000002  1.0000
  C   C10       1.0  0.6972307  0.7917066500000001  0.8980877700000001  1.0000
  C   C11       1.0  0.80277808  0.29169754  0.3980893400000001  1.0000
  C   C12       1.0  0.3027737500000001  0.20829316  0.10191254000000002  1.0000
  C   C13       1.0  0.11036238  0.78406227  0.62715953  1.0000
  C   C14       1.0  0.61036721  0.71594473  0.87283973  1.0000
  C   C15       1.0  0.88964207  0.2159334  0.37284209  1.0000
  C   C16       1.0  0.38963724  0.2840551  0.12716162  1.0000
  C   C17       1.0  0.19166192000000007  0.86213677  0.6510842600000001  1.0000
  C   C18       1.0  0.69166487  0.63786592  0.84891523  1.0000
  C   C19       1.0  0.80833777  0.13785889  0.34891667  1.0000
  C   C20       1.0  0.3083360100000001  0.36213252  0.15108633000000002  1.0000
  C   C21       1.0  0.11559271  0.62504844  0.5721395400000002  1.0000
  C   C22       1.0  0.61559411  0.87495782  0.9278579  1.0000
  C   C23       1.0  0.88441055  0.37494997  0.4278606200000001  1.0000
  C   C24       1.0  0.3844103400000001  0.12504127000000004  0.07214128000000003  1.0000
  C   C25       1.0  0.24749771000000004  0.36233037  0.65383771  1.0000
  C   C26       1.0  0.74750068  0.1376725400000001  0.8461625700000002  1.0000
  C   C27       1.0  0.75250198  0.6376694  0.3461605000000001  1.0000
  C   C28       1.0  0.25249782  0.86232307  0.15383555000000004  1.0000
  C   C29       1.0  0.32976670000000013  0.37463467000000006  0.6135566600000001  1.0000
  C   C30       1.0  0.82977193  0.12537088000000007  0.8864438600000002  1.0000
  C   C31       1.0  0.67023061  0.62536998  0.38644275  1.0000
  C   C32       1.0  0.17022657  0.87462612  0.11355475000000001  1.0000
  C   C33       1.0  0.41333752  0.45729007  0.61512847  1.0000
  C   C34       1.0  0.9133408000000002  0.042714609999999965  0.88487087  1.0000
  C   C35       1.0  0.5866597900000001  0.54271595  0.3848703800000001  1.0000
  C   C36       1.0  0.08665889  0.9572844899999999  0.11512831  1.0000
  C   C37       1.0  0.41605918  0.5230325  0.65823038  1.0000
  C   C38       1.0  0.91605686  0.9769718400000001  0.8417681400000002  1.0000
  C   C39       1.0  0.5839417  0.47697213000000005  0.3417683300000001  1.0000
  C   C40       1.0  0.08394045  0.023025840000000023  0.15822914000000005  1.0000
  C   C41       1.0  0.3283784700000001  0.50629842  0.69673108  1.0000
  C   C42       1.0  0.8283726600000002  0.9937026399999999  0.80326853  1.0000
  C   C43       1.0  0.67162479  0.4937013599999999  0.30326747  1.0000
  C   C44       1.0  0.17162227  0.006294360000000009  0.19672938000000004  1.0000
  C   C45       1.0  0.49545905  0.47491055  0.57137719  1.0000
  C   C46       1.0  0.9954646100000001  0.02509189000000002  0.92862224  1.0000
  C   C47       1.0  0.5045358800000003  0.52509338  0.4286210900000001  1.0000
  C   C48       1.0  0.00453627  0.9749072  0.07137659000000002  1.0000
  C   C49       1.0  0.14839362  0.8264601500000002  0.3913324700000001  1.0000
  C   C50       1.0  0.64839386  0.67354022  0.10866898000000003  1.0000
  C   C51       1.0  0.85160726  0.17354315000000015  0.6086696000000003  1.0000
  C   C52       1.0  0.35160702  0.3264595800000002  0.8913309700000002  1.0000
  C   C53       1.0  0.06636852000000003  0.77858543  0.4207178800000001  1.0000
  C   C54       1.0  0.56636983  0.72141646  0.07928236000000002  1.0000
  C   C55       1.0  0.93362999  0.2214199400000001  0.5792833500000002  1.0000
  C   C56       1.0  0.4336322400000001  0.2785868100000001  0.9207176000000002  1.0000
  C   C57       1.0  0.10887191000000003  0.68644817  0.4204587100000001  1.0000
  C   C58       1.0  0.60888108  0.81355155  0.07954059  1.0000
  C   C59       1.0  0.8911230300000003  0.31355511  0.57954161  1.0000
  C   C60       1.0  0.39112337  0.18645172000000007  0.9204597200000002  1.0000
  C   C61       1.0  0.22695293  0.6452091000000001  0.38877764000000004  1.0000
  C   C62       1.0  0.72696294  0.85479038  0.11122054  1.0000
  C   C63       1.0  0.77303487  0.35479417000000013  0.6112226700000002  1.0000
  C   C64       1.0  0.27303913  0.14521219  0.888779  1.0000
  C   C65       1.0  0.30288966  0.69771091  0.3603513900000001  1.0000
  C   C66       1.0  0.8028914900000003  0.80228777  0.13964913  1.0000
  C   C67       1.0  0.69710647  0.3022910000000001  0.6396508800000003  1.0000
  C   C68       1.0  0.19710820000000007  0.1977141000000001  0.8603503400000002  1.0000
  C   C69       1.0  0.030172820000000003  0.63225022  0.45276646  1.0000
  C   C70       1.0  0.53019018  0.86774826  0.04723345000000002  1.0000
  C   C71       1.0  0.96981617  0.36775167  0.54723441  1.0000
  C   C72       1.0  0.46981546  0.13225086000000005  0.9527671400000002  1.0000
  C   C73       1.0  0.28016875  0.20986798  0.45730919  1.0000
  C   C74       1.0  0.78016631  0.29013591  0.042690560000000016  1.0000
  C   C75       1.0  0.71983094  0.7901332  0.54269055  1.0000
  C   C76       1.0  0.21983695000000003  0.70986251  0.9573096000000002  1.0000
  C   C77       1.0  0.52381605  0.16917573000000005  0.49400374000000014  1.0000
  C   C78       1.0  0.02381746  0.33082518  0.0059968500000000015  1.0000
  C   C79       1.0  0.47618483000000006  0.83082551  0.50599951  1.0000
  C   C80       1.0  0.97618699  0.6691739299999999  0.99400338  1.0000
  C   C81       1.0  0.30867144000000013  0.05247763000000004  0.4700895100000001  1.0000
  C   C82       1.0  0.80866944  0.44752621  0.02991058  1.0000
  C   C83       1.0  0.69132825  0.9475201  0.5299109300000001  1.0000
  C   C84       1.0  0.19133144000000002  0.55247289  0.97008895  1.0000
  I   I1        1.0  0.05336249  0.22954250000000015  0.7414049700000003  1.0000
  I   I2        1.0  0.55336159  0.27045938  0.75859492  1.0000
  I   I3        1.0  0.94663601  0.77045728  0.25859393  1.0000
  I   I4        1.0  0.44664167  0.72953766  0.24140614000000005  1.0000
  I   I5        1.0  0.82671518  0.40055870000000005  0.8767258700000002  1.0000
  I   I6        1.0  0.32671845  0.09944408000000002  0.62327471  1.0000
  I   I7        1.0  0.17328451000000006  0.59943903  0.12327457000000003  1.0000
  I   I8        1.0  0.67328362  0.90055503  0.3767251700000001  1.0000
  I   I9        1.0  0.26587617  0.5185963900000001  0.8273951200000003  1.0000
  I   I10       1.0  0.76587337  0.9814033999999999  0.67260473  1.0000
  I   I11       1.0  0.7341211500000002  0.48140339  0.17260343  1.0000
  I   I12       1.0  0.23412157  0.01859223000000004  0.32739409000000014  1.0000
  I   I13       1.0  0.8218291100000003  0.49575596  0.73121845  1.0000
  I   I14       1.0  0.32182153000000013  0.004244730000000097  0.7687815700000002  1.0000
  I   I15       1.0  0.17817534  0.50424314  0.26878108  1.0000
  I   I16       1.0  0.67816627  0.99575506  0.23121768  1.0000
  N   N1        1.0  0.36646778  0.14670693000000007  0.4734448300000001  1.0000
  N   N2        1.0  0.86646628  0.35329472  0.026555010000000007  1.0000
  N   N3        1.0  0.6335307200000002  0.85329149  0.5265560300000001  1.0000
  N   N4        1.0  0.13353817  0.64670578  0.9734450200000002  1.0000
  N   N5        1.0  0.35199857  0.8678972699999999  0.6510134500000002  1.0000
  N   N6        1.0  0.8520063  0.6321065400000001  0.8489878400000002  1.0000
  N   N7        1.0  0.6479975600000001  0.13210185000000002  0.34898783000000005  1.0000
  N   N8        1.0  0.14799339  0.36789052  0.15101393  1.0000
  N   N9        1.0  0.24322015000000002  0.42776482  0.69466579  1.0000
  N   N10       1.0  0.74321649  0.0722374200000001  0.8053351100000002  1.0000
  N   N11       1.0  0.75678311  0.57223567  0.30533388  1.0000
  N   N12       1.0  0.2567772500000001  0.92775819  0.19466336000000006  1.0000
  N   N13       1.0  0.26759598  0.78765054  0.36217549000000004  1.0000
  N   N14       1.0  0.76759708  0.7123482  0.13782435  1.0000
  N   N15       1.0  0.73240134  0.21235136000000002  0.63782608  1.0000
  N   N16       1.0  0.23240499  0.28765299000000016  0.8621754000000003  1.0000
  O   O1        1.0  0.20193702  0.5559592700000002  0.5535203100000002  1.0000
  O   O2        1.0  0.7019356000000002  0.9440489099999999  0.9464769500000002  1.0000
  O   O3        1.0  0.79806624  0.44404052  0.4464786000000001  1.0000
  O   O4        1.0  0.29806647  0.05595157  0.05352238  1.0000
  O   O5        1.0  0.9665500900000001  0.63163078  0.56685329  1.0000
  O   O6        1.0  0.46655064  0.8683755400000001  0.9331447100000002  1.0000
  O   O7        1.0  0.03345435  0.36836765  0.43314757000000004  1.0000
  O   O8        1.0  0.5334490500000001  0.13162702  0.06685413  1.0000
  O   O9        1.0  0.45380396  0.42723652  0.5307919300000001  1.0000
  O   O10       1.0  0.9538055300000001  0.07276600000000007  0.9692071800000002  1.0000
  O   O11       1.0  0.54619573  0.57276463  0.46920572  1.0000
  O   O12       1.0  0.04619060000000001  0.9272351600000001  0.030790820000000007  1.0000
  O   O13       1.0  0.60386851  0.5366622600000001  0.5770211600000001  1.0000
  O   O14       1.0  0.10387219000000003  0.9633385099999999  0.92297816  1.0000
  O   O15       1.0  0.39612286000000013  0.46334238  0.42297789000000013  1.0000
  O   O16       1.0  0.89612632  0.03666059  0.07702138  1.0000
  O   O17       1.0  0.8949716000000001  0.65885107  0.4700873700000001  1.0000
  O   O18       1.0  0.39499069  0.84115435  0.02991136000000001  1.0000
  O   O19       1.0  0.10501501  0.34115359  0.52991274  1.0000
  O   O20       1.0  0.60501733  0.15884821000000007  0.9700874800000002  1.0000
  O   O21       1.0  0.10299545  0.56191756  0.46151151  1.0000
  O   O22       1.0  0.6030208  0.93807867  0.03848604000000001  1.0000
  O   O23       1.0  0.89699354  0.43808435000000007  0.5384900600000001  1.0000
  O   O24       1.0  0.39698721  0.06192250000000011  0.9615130100000002  1.0000
  O   O25       1.0  0.32834744  0.28994335  0.4564340100000001  1.0000
  O   O26       1.0  0.82834659  0.21005629999999997  0.04356669000000001  1.0000
  O   O27       1.0  0.6716558200000001  0.71005577  0.5435669200000001  1.0000
  O   O28       1.0  0.17166142  0.7899414200000001  0.9564334000000002  1.0000
