data_image0
_chemical_formula_structural       Cu12H24C72N84
_chemical_formula_sum              "Cu12 H24 C72 N84"
_cell_length_a       31.91323647
_cell_length_b       32.59426967
_cell_length_c       32.62024404000001
_cell_angle_alpha    90.05052837
_cell_angle_beta     89.99366024
_cell_angle_gamma    89.77988037999998

_symmetry_space_group_name_H-M    'P 1'
_symmetry_Int_Tables_number       1

loop_
  _symmetry_equiv_pos_as_xyz
  'x,y,z'

loop_
  _atom_site_type_symbol
  _atom_site_label
  _atom_site_symmetry_multiplicity
  _atom_site_fract_x
  _atom_site_fract_y
  _atom_site_fract_z
  _atom_site_occupancy
  Cu  Cu1       1.0  0.12458334000000001  0.83628026  0.91387955  1.0000
  Cu  Cu2       1.0  0.16422692  0.91668469  0.8754802  1.0000
  Cu  Cu3       1.0  0.08499328  0.87456403  0.83302811  1.0000
  Cu  Cu4       1.0  0.87512509  0.33652422  0.58611087  1.0000
  Cu  Cu5       1.0  0.8342931399999998  0.41662803  0.62528815  1.0000
  Cu  Cu6       1.0  0.91523391  0.37542853  0.6662105399999998  1.0000
  Cu  Cu7       1.0  0.62582122  0.66394383  0.08726328999999997  1.0000
  Cu  Cu8       1.0  0.66501637  0.58237705  0.12470806999999999  1.0000
  Cu  Cu9       1.0  0.58440047  0.62410856  0.16604507  1.0000
  Cu  Cu10      1.0  0.37584662  0.16333501  0.41439267  1.0000
  Cu  Cu11      1.0  0.33496603  0.08411951  0.37466414  1.0000
  Cu  Cu12      1.0  0.41457757  0.12582522  0.33260701  1.0000
  H   H1        1.0  0.19048389  0.81776531  0.9848733299999999  1.0000
  H   H2        1.0  0.23495559  0.93585951  0.9421292499999998  1.0000
  H   H3        1.0  0.014228150000000002  0.80796268  0.81398397  1.0000
  H   H4        1.0  0.05878406  0.76566269  0.9323513699999998  1.0000
  H   H5        1.0  0.1819933  0.9885197099999999  0.81199316  1.0000
  H   H6        1.0  0.06759456  0.93825119  0.76099213  1.0000
  H   H7        1.0  0.81114029  0.31932173  0.51359097  1.0000
  H   H8        1.0  0.76160642  0.43443787  0.56013058  1.0000
  H   H9        1.0  0.98770674  0.30998977  0.68440778  1.0000
  H   H10       1.0  0.93977764  0.26404281  0.5687451  1.0000
  H   H11       1.0  0.81672149  0.48856611  0.68917036  1.0000
  H   H12       1.0  0.93285142  0.43909033  0.7379523699999999  1.0000
  H   H13       1.0  0.69179244  0.68252256  0.01677871  1.0000
  H   H14       1.0  0.73593421  0.56338669  0.05783927  1.0000
  H   H15       1.0  0.51144265  0.68930067  0.18391869  1.0000
  H   H16       1.0  0.56158925  0.736784  0.06986414  1.0000
  H   H17       1.0  0.68273539  0.51072297  0.18868241  1.0000
  H   H18       1.0  0.56680223  0.56048795  0.23770810999999994  1.0000
  H   H19       1.0  0.31170189  0.18053548  0.48723446999999986  1.0000
  H   H20       1.0  0.26272331999999987  0.06590074  0.43988141  1.0000
  H   H21       1.0  0.48516243  0.19245754  0.31359746  1.0000
  H   H22       1.0  0.44176648  0.23388027  0.4327621  1.0000
  H   H23       1.0  0.31737582  0.01213611  0.31124926  1.0000
  H   H24       1.0  0.43205707  0.06206277999999999  0.2605557199999999  1.0000
  C   C1        1.0  0.65333107  0.37585909  0.40244019  1.0000
  C   C2        1.0  0.62468532  0.40369007  0.34584602  1.0000
  C   C3        1.0  0.59644585  0.34706705  0.37372798  1.0000
  C   C4        1.0  0.34601244  0.87642104  0.09740092  1.0000
  C   C5        1.0  0.40304332  0.84757207  0.12612691  1.0000
  C   C6        1.0  0.37443528  0.90429665  0.153992  1.0000
  C   C7        1.0  0.15407338999999995  0.12339484  0.59777157  1.0000
  C   C8        1.0  0.12542656  0.09560911  0.6542649099999998  1.0000
  C   C9        1.0  0.09703614  0.15239111  0.6264151899999998  1.0000
  C   C10       1.0  0.84680365  0.624004  0.90288871  1.0000
  C   C11       1.0  0.90365702  0.65270547  0.87404584  1.0000
  C   C12       1.0  0.87518333  0.59615213  0.84612193  1.0000
  C   C13       1.0  0.19597549  0.846422  0.96891363  1.0000
  C   C14       1.0  0.22602646999999995  0.87683276  0.97689749  1.0000
  C   C15       1.0  0.21861834  0.90717972  0.9471282199999997  1.0000
  C   C16       1.0  0.030567129999999998  0.80304358  0.84273272  1.0000
  C   C17       1.0  0.02320894  0.77340378  0.87317666  1.0000
  C   C18       1.0  0.05324904  0.7814928  0.9036202699999999  1.0000
  C   C19       1.0  0.15422164  0.97080082  0.8048733299999998  1.0000
  C   C20       1.0  0.12484266999999996  0.97661151  0.77327905  1.0000
  C   C21       1.0  0.09534273  0.94518531  0.77887173  1.0000
  C   C22       1.0  0.8043798  0.34726338  0.53046144  1.0000
  C   C23       1.0  0.77304282  0.3768762  0.52340311  1.0000
  C   C24       1.0  0.77914959  0.40648759  0.5541929399999997  1.0000
  C   C25       1.0  0.97053328  0.30421817  0.6563054399999998  1.0000
  C   C26       1.0  0.97711924  0.27359122  0.62658126  1.0000
  C   C27       1.0  0.9461247  0.2807941  0.59679324  1.0000
  C   C28       1.0  0.8449177399999998  0.47107745  0.69575057  1.0000
  C   C29       1.0  0.87481161  0.47709233  0.72682965  1.0000
  C   C30       1.0  0.90464901  0.44584966  0.72062441  1.0000
  C   C31       1.0  0.69722658  0.65359465  0.03233104  1.0000
  C   C32       1.0  0.72718067  0.62299266  0.0238815  1.0000
  C   C33       1.0  0.71968842  0.59231234  0.05324604  1.0000
  C   C34       1.0  0.52914797  0.6954439  0.15622069  1.0000
  C   C35       1.0  0.52316192  0.72649768  0.12686314  1.0000
  C   C36       1.0  0.55471661  0.71965638  0.09753264999999997  1.0000
  C   C37       1.0  0.65458171  0.52827452  0.19530504  1.0000
  C   C38       1.0  0.62475954  0.52240723  0.22647537  1.0000
  C   C39       1.0  0.59492302  0.55363297  0.22028616  1.0000
  C   C40       1.0  0.30509887  0.15272891  0.4701637499999999  1.0000
  C   C41       1.0  0.27392817  0.12314071  0.47701546999999994  1.0000
  C   C42       1.0  0.2801574  0.09373805  0.4460147899999999  1.0000
  C   C43       1.0  0.4690768999999999  0.19718397  0.3425297899999999  1.0000
  C   C44       1.0  0.47678059  0.22654969  0.3731951599999999  1.0000
  C   C45       1.0  0.44700762  0.2182703  0.4038342  1.0000
  C   C46       1.0  0.34520875  0.02976572  0.30419292  1.0000
  C   C47       1.0  0.37470226  0.02380697  0.27271038  1.0000
  C   C48       1.0  0.4042287299999999  0.0552217  0.27834356  1.0000
  C   C49       1.0  0.31342933  0.87664491  0.06484061  1.0000
  C   C50       1.0  0.25746397999999987  0.87681631  0.008612969999999996  1.0000
  C   C51       1.0  0.6858667099999998  0.37623928  0.4351228199999999  1.0000
  C   C52       1.0  0.7416739399999998  0.37673529  0.49155769999999993  1.0000
  C   C53       1.0  0.81438353  0.62366204  0.9356397  1.0000
  C   C54       1.0  0.75860178  0.62317908  0.99210623  1.0000
  C   C55       1.0  0.18671642  0.12312074  0.56521524  1.0000
  C   C56       1.0  0.242571  0.12304393000000001  0.50884803  1.0000
  C   C57       1.0  0.93611283  0.68532541  0.8737137199999998  1.0000
  C   C58       1.0  0.99187197  0.74164319  0.87328051  1.0000
  C   C59       1.0  0.56403398  0.31442745  0.37350798  1.0000
  C   C60       1.0  0.50823386  0.25817488  0.3732637099999999  1.0000
  C   C61       1.0  0.0644883  0.18518438  0.62658277  1.0000
  C   C62       1.0  0.00861612  0.24174633  0.626634  1.0000
  C   C63       1.0  0.43568478  0.81484238  0.12643113  1.0000
  C   C64       1.0  0.49168756  0.75838312  0.12680049  1.0000
  C   C65       1.0  0.12529655  0.06333076  0.6865013  1.0000
  C   C66       1.0  0.1249969  0.00787291  0.74200828  1.0000
  C   C67       1.0  0.62466746  0.43589768  0.31352257  1.0000
  C   C68       1.0  0.6247437299999998  0.49125617  0.25786936  1.0000
  C   C69       1.0  0.37447787  0.93666155  0.18619997  1.0000
  C   C70       1.0  0.37464996  0.99237605  0.24155854  1.0000
  C   C71       1.0  0.87510344  0.56388389  0.8137827599999998  1.0000
  C   C72       1.0  0.87490376  0.508369  0.7581740299999998  1.0000
  N   N1        1.0  0.65496431  0.40575396  0.3742721099999999  1.0000
  N   N2        1.0  0.59447269  0.37530758  0.3438906599999999  1.0000
  N   N3        1.0  0.62503776  0.34560799  0.40382813  1.0000
  N   N4        1.0  0.37464386  0.84623077  0.09589859  1.0000
  N   N5        1.0  0.40473541  0.87576002  0.15605405  1.0000
  N   N6        1.0  0.34413149  0.90632931  0.12561593  1.0000
  N   N7        1.0  0.15577109999999994  0.0934532  0.62590165  1.0000
  N   N8        1.0  0.09516634  0.12419301  0.6562656699999998  1.0000
  N   N9        1.0  0.12560712  0.15371019  0.59631684  1.0000
  N   N10       1.0  0.87524956  0.65414318  0.9043014799999998  1.0000
  N   N11       1.0  0.90544627  0.6244862  0.84411749  1.0000
  N   N12       1.0  0.84495288  0.59418277  0.87458478  1.0000
  N   N13       1.0  0.18671075  0.8955007  0.92307631  1.0000
  N   N14       1.0  0.17231104  0.85800246  0.93694576  1.0000
  N   N15       1.0  0.07685169999999997  0.81338986  0.8919816299999997  1.0000
  N   N16       1.0  0.062435670000000006  0.82711902  0.8543875499999998  1.0000
  N   N17       1.0  0.10653624999999997  0.92225247  0.81124041  1.0000
  N   N18       1.0  0.14286039  0.93846281  0.82767565  1.0000
  N   N19       1.0  0.8115477799999998  0.39516913  0.5779006499999999  1.0000
  N   N20       1.0  0.82747471  0.35858414  0.56287837  1.0000
  N   N21       1.0  0.92275055  0.31316339  0.60810578  1.0000
  N   N22       1.0  0.9381851499999998  0.32799658  0.64485652  1.0000
  N   N23       1.0  0.8931891  0.42287488  0.68840024  1.0000
  N   N24       1.0  0.85629663  0.43880441  0.67267196  1.0000
  N   N25       1.0  0.68781484  0.60397295  0.07748067  1.0000
  N   N26       1.0  0.67354022  0.64182362  0.06415247  1.0000
  N   N27       1.0  0.57784742  0.68711495  0.10877542999999998  1.0000
  N   N28       1.0  0.56169716  0.67178799  0.14500025  1.0000
  N   N29       1.0  0.6063140099999997  0.57649467  0.1879884  1.0000
  N   N30       1.0  0.64314452  0.56045657  0.17218747  1.0000
  N   N31       1.0  0.31246598  0.10516023  0.42237023  1.0000
  N   N32       1.0  0.3282361499999999  0.141577  0.43765232  1.0000
  N   N33       1.0  0.42324419  0.18650346  0.39210452  1.0000
  N   N34       1.0  0.43727729  0.17307343  0.35423991  1.0000
  N   N35       1.0  0.3929395999999999  0.0782677  0.31063752  1.0000
  N   N36       1.0  0.35652185  0.06218229000000001  0.32696508  1.0000
  N   N37       1.0  0.29413606  0.84072662  0.05702381  1.0000
  N   N38       1.0  0.30586405  0.9126691  0.04588064  1.0000
  N   N39       1.0  0.27736762  0.91276054  0.01662688  1.0000
  N   N40       1.0  0.26501661  0.8408168  0.028389609999999992  1.0000
  N   N41       1.0  0.69106084  0.41162778  0.45589898  1.0000
  N   N42       1.0  0.70748997  0.34112703  0.44116878999999987  1.0000
  N   N43       1.0  0.73659209  0.34144927  0.4698373399999999  1.0000
  N   N44       1.0  0.7194092799999998  0.41182786  0.48532012  1.0000
  N   N45       1.0  0.8070984999999998  0.58752322  0.95438286  1.0000
  N   N46       1.0  0.79495933  0.65957205  0.94386158  1.0000
  N   N47       1.0  0.76595427  0.6593259  0.97261538  1.0000
  N   N48       1.0  0.77869908  0.58726503  0.98374058  1.0000
  N   N49       1.0  0.19245480999999995  0.0877694  0.54444434  1.0000
  N   N50       1.0  0.20784494  0.15837256  0.5592375199999998  1.0000
  N   N51       1.0  0.23697540999999994  0.15826921  0.53059746  1.0000
  N   N52       1.0  0.22083831999999995  0.08778248  0.51505259  1.0000
  N   N53       1.0  0.94334138  0.7042807  0.8376808  1.0000
  N   N54       1.0  0.95568671  0.69317045  0.90951132  1.0000
  N   N55       1.0  0.98468216  0.72184526  0.90928307  1.0000
  N   N56       1.0  0.97172221  0.73357435  0.8374519499999997  1.0000
  N   N57       1.0  0.55656566  0.29552491  0.3374540399999999  1.0000
  N   N58       1.0  0.54484  0.30641259  0.40944716  1.0000
  N   N59       1.0  0.51582579  0.27775687  0.40932838  1.0000
  N   N60       1.0  0.52816545  0.26626138  0.33732453  1.0000
  N   N61       1.0  0.05854298  0.2056813  0.66203304  1.0000
  N   N62       1.0  0.04370863  0.19165166  0.59116116  1.0000
  N   N63       1.0  0.01457166  0.22041308  0.59123613  1.0000
  N   N64       1.0  0.03014535  0.23517788  0.6620133  1.0000
  N   N65       1.0  0.44101465  0.79398808  0.16173172  1.0000
  N   N66       1.0  0.45726283  0.80890296  0.09137041  1.0000
  N   N67       1.0  0.48647965  0.78020782  0.09163204  1.0000
  N   N68       1.0  0.4694692799999999  0.76453834  0.16186243999999994  1.0000
  N   N69       1.0  0.08941812  0.04223615  0.69159683  1.0000
  N   N70       1.0  0.16102986  0.05795722  0.7079004  1.0000
  N   N71       1.0  0.16079146  0.02978512  0.73688671  1.0000
  N   N72       1.0  0.08934578  0.01327644  0.71979527  1.0000
  N   N73       1.0  0.66063994  0.44119435  0.2925352  1.0000
  N   N74       1.0  0.58876644  0.45712097  0.3080125499999999  1.0000
  N   N75       1.0  0.5888833  0.4860197  0.27974359  1.0000
  N   N76       1.0  0.66061232  0.46931119  0.26349433  1.0000
  N   N77       1.0  0.41027386999999993  0.95792845  0.19116078  1.0000
  N   N78       1.0  0.3388120799999999  0.94188547  0.20775856  1.0000
  N   N79       1.0  0.3389958  0.97018555  0.23667313  1.0000
  N   N80       1.0  0.4102792  0.9870178699999999  0.21928167999999995  1.0000
  N   N81       1.0  0.8392134199999998  0.55880819  0.7926085599999998  1.0000
  N   N82       1.0  0.9108905199999998  0.54243247  0.80842038  1.0000
  N   N83       1.0  0.91070751  0.51345433  0.78018115  1.0000
  N   N84       1.0  0.8391894999999998  0.53061606  0.76358731  1.0000
