data_image0
_chemical_formula_structural       Cu24H96C84I24N48
_chemical_formula_sum              "Cu24 H96 C84 I24 N48"
_cell_length_a       16.80496466
_cell_length_b       19.36055261
_cell_length_c       19.36052224
_cell_angle_alpha    111.98333325
_cell_angle_beta     106.81782936000002
_cell_angle_gamma    106.81810396999998

_symmetry_space_group_name_H-M    'P 1'
_symmetry_Int_Tables_number       1

loop_
  _symmetry_equiv_pos_as_xyz
  'x,y,z'

loop_
  _atom_site_type_symbol
  _atom_site_label
  _atom_site_symmetry_multiplicity
  _atom_site_fract_x
  _atom_site_fract_y
  _atom_site_fract_z
  _atom_site_occupancy
  Cu  Cu1       1.0  0.42374839  0.47132710999999994  0.87231859  1.0000
  Cu  Cu2       1.0  0.9524876299999999  0.4012206299999998  0.5286432499999998  1.0000
  Cu  Cu3       1.0  0.55119784  0.12731407  0.59861452  1.0000
  Cu  Cu4       1.0  0.051193890000000006  0.59862084  0.12731694  1.0000
  Cu  Cu5       1.0  0.92374757  0.87231946  0.4713220099999999  1.0000
  Cu  Cu6       1.0  0.45249350999999993  0.52864571  0.40122602  1.0000
  Cu  Cu7       1.0  0.26801713  0.40143673999999996  0.8717979999999997  1.0000
  Cu  Cu8       1.0  0.8667277400000002  0.47053115999999995  0.5986792  1.0000
  Cu  Cu9       1.0  0.39610555  0.12797572  0.52949363  1.0000
  Cu  Cu10      1.0  0.8961043100000001  0.5294896  0.1279782  1.0000
  Cu  Cu11      1.0  0.7680143200000004  0.87179799  0.40143561  1.0000
  Cu  Cu12      1.0  0.36672326999999993  0.59867903  0.47053047999999986  1.0000
  Cu  Cu13      1.0  0.42197642  0.43353209000000004  0.98392119  1.0000
  Cu  Cu14      1.0  0.9880100799999998  0.5504320299999997  0.5662439399999998  1.0000
  Cu  Cu15      1.0  0.43746247000000016  0.015665710000000013  0.44951679  1.0000
  Cu  Cu16      1.0  0.9374694300000002  0.44951561  0.01566748  1.0000
  Cu  Cu17      1.0  0.92197068  0.98392024  0.4335269099999999  1.0000
  Cu  Cu18      1.0  0.488009  0.56624564  0.55042948  1.0000
  Cu  Cu19      1.0  0.3824227600000001  0.54997146  0.98546332  1.0000
  Cu  Cu20      1.0  0.83189916  0.43555173  0.45007177  1.0000
  Cu  Cu21      1.0  0.3965012200000001  0.014386989999999975  0.56453181  1.0000
  Cu  Cu22      1.0  0.89650017  0.56452715  0.01437937  1.0000
  Cu  Cu23      1.0  0.8824177899999999  0.9854669399999999  0.5499684  1.0000
  Cu  Cu24      1.0  0.33190424999999996  0.45007429999999987  0.4355566499999999  1.0000
  H   H1        1.0  0.44730795  0.53258909  0.7439732  1.0000
  H   H2        1.0  0.9148615900000001  0.21177057999999999  0.4675997399999999  1.0000
  H   H3        1.0  0.70262514  0.25567152  0.78795712  1.0000
  H   H4        1.0  0.2026374499999999  0.7879659699999999  0.25567395  1.0000
  H   H5        1.0  0.9473111300000001  0.74397996  0.53257973  1.0000
  H   H6        1.0  0.41486335000000013  0.4676056900000001  0.21177464  1.0000
  H   H7        1.0  0.54199789  0.37702961  0.81154452  1.0000
  H   H8        1.0  0.16523842999999994  0.4347745  0.62300628  1.0000
  H   H9        1.0  0.73051906  0.18847149  0.56519219  1.0000
  H   H10       1.0  0.23050048000000004  0.56519094  0.18847607999999993  1.0000
  H   H11       1.0  0.041996269999999995  0.81153902  0.37701402  1.0000
  H   H12       1.0  0.66524139  0.62300564  0.43477308  1.0000
  H   H13       1.0  0.49451876  0.35781178999999996  0.26127922  1.0000
  H   H14       1.0  0.13652757000000001  0.90319518  0.64194477  1.0000
  H   H15       1.0  0.23394451  0.73867483  0.09674884  1.0000
  H   H16       1.0  0.73394581  0.09675221999999999  0.73867716  1.0000
  H   H17       1.0  0.9945209300000001  0.26128399999999996  0.35781207999999987  1.0000
  H   H18       1.0  0.63653313  0.641951  0.90320889  1.0000
  H   H19       1.0  0.6841102900000002  0.36433392  0.11040148999999998  1.0000
  H   H20       1.0  0.3194641399999999  0.7457481199999998  0.6356859899999998  1.0000
  H   H21       1.0  0.5739961099999998  0.8897853699999999  0.25450187  1.0000
  H   H22       1.0  0.07400193999999993  0.25449711  0.88978657  1.0000
  H   H23       1.0  0.18411288  0.11040388  0.36433603  1.0000
  H   H24       1.0  0.8194647400000001  0.63567556  0.74575252  1.0000
  H   H25       1.0  0.52633762  0.46890935000000006  0.64307007  1.0000
  H   H26       1.0  0.05744555000000001  0.17442886  0.5311663  1.0000
  H   H27       1.0  0.8825356600000002  0.35687866  0.82559017  1.0000
  H   H28       1.0  0.38254247  0.82558776  0.35687988  1.0000
  H   H29       1.0  0.02633368  0.6430645  0.46889387  1.0000
  H   H30       1.0  0.55744825  0.53116544  0.174429  1.0000
  H   H31       1.0  0.7635539399999999  0.46178284999999986  0.8247412999999998  1.0000
  H   H32       1.0  0.30217912  0.3631002400000001  0.53824145  1.0000
  H   H33       1.0  0.93871903  0.17544744999999995  0.6369595  1.0000
  H   H34       1.0  0.43870078  0.63694176  0.17543728999999994  1.0000
  H   H35       1.0  0.26353874999999993  0.82473382  0.4617752599999999  1.0000
  H   H36       1.0  0.8021774  0.53823398  0.36309478  1.0000
  H   H37       1.0  0.5450154900000002  0.32137938  0.61309825  1.0000
  H   H38       1.0  0.22380022  0.29206643  0.6787056  1.0000
  H   H39       1.0  0.93166922  0.3870128  0.70833305  1.0000
  H   H40       1.0  0.43166041000000005  0.70832062  0.38701029999999986  1.0000
  H   H41       1.0  0.04500427999999998  0.6130822  0.32137273  1.0000
  H   H42       1.0  0.72379898  0.67870272  0.29206422  1.0000
  H   H43       1.0  0.5928619800000002  0.31967611999999984  0.7066726699999998  1.0000
  H   H44       1.0  0.2733246099999999  0.3872157199999999  0.6802012199999998  1.0000
  H   H45       1.0  0.88611417  0.29354221  0.61305574  1.0000
  H   H46       1.0  0.3860973  0.61304431  0.29352945  1.0000
  H   H47       1.0  0.09285477000000003  0.70665852  0.3196583  1.0000
  H   H48       1.0  0.77332703  0.68019746  0.38721628  1.0000
  H   H49       1.0  0.4706058100000001  0.23371696  0.12054030999999997  1.0000
  H   H50       1.0  0.23690911000000006  0.8866615699999999  0.7662543  1.0000
  H   H51       1.0  0.35055815  0.87949787  0.11343781  1.0000
  H   H52       1.0  0.8505607000000002  0.11343589999999991  0.87949746  1.0000
  H   H53       1.0  0.9706026800000002  0.12054014000000002  0.23371694  1.0000
  H   H54       1.0  0.7369102  0.7662525200000001  0.88666265  1.0000
  H   H55       1.0  0.57441062  0.23140713  0.11522631  1.0000
  H   H56       1.0  0.34280939  0.88346399  0.76846598  1.0000
  H   H57       1.0  0.45985778000000005  0.88516806  0.11680286999999998  1.0000
  H   H58       1.0  0.9598567199999999  0.11680063999999998  0.88516584  1.0000
  H   H59       1.0  0.07440999000000002  0.11522792000000001  0.23140841  1.0000
  H   H60       1.0  0.8428116200000001  0.7684646299999999  0.8834696899999998  1.0000
  H   H61       1.0  0.7283041  0.32089956  0.24725247  1.0000
  H   H62       1.0  0.40743846000000006  0.92629324  0.6792801  1.0000
  H   H63       1.0  0.48188681999999994  0.75311115  0.07396491999999998  1.0000
  H   H64       1.0  0.98188738  0.07396624000000003  0.75310863  1.0000
  H   H65       1.0  0.22830455000000002  0.24725452000000003  0.32090316  1.0000
  H   H66       1.0  0.90743835  0.6792717700000002  0.9262909  1.0000
  H   H67       1.0  0.40561291  0.31586629  0.06793258  1.0000
  H   H68       1.0  0.08932190999999999  0.75200269  0.68382597  1.0000
  H   H69       1.0  0.33757645  0.93172578  0.24800408  1.0000
  H   H70       1.0  0.83757625  0.24800424999999987  0.9317203599999998  1.0000
  H   H71       1.0  0.9056165900000003  0.06794133  0.31586993  1.0000
  H   H72       1.0  0.589322  0.68382624  0.75200361  1.0000
  H   H73       1.0  0.62699755  0.45194990999999995  0.03877726  1.0000
  H   H74       1.0  0.17464268000000002  0.58663489  0.54794761  1.0000
  H   H75       1.0  0.5879916000000002  0.96104188  0.41355873  1.0000
  H   H76       1.0  0.08799356999999988  0.41355297999999985  0.9610410099999998  1.0000
  H   H77       1.0  0.12699615  0.03877982999999999  0.45195023  1.0000
  H   H78       1.0  0.67464626  0.54794693  0.58664318  1.0000
  H   H79       1.0  0.9063532800000004  0.52493076  0.78736194  1.0000
  H   H80       1.0  0.38167689999999993  0.2623482999999999  0.4752240399999999  1.0000
  H   H81       1.0  0.11888845999999997  0.21284841000000004  0.73728324  1.0000
  H   H82       1.0  0.618869  0.73727291  0.21283615999999994  1.0000
  H   H83       1.0  0.4063464199999999  0.7873669099999999  0.5249345399999997  1.0000
  H   H84       1.0  0.88167645  0.47521653  0.26234502  1.0000
  H   H85       1.0  0.65354408  0.37922536  0.56602968  1.0000
  H   H86       1.0  0.27411036  0.18683519  0.62074302  1.0000
  H   H87       1.0  0.08729797000000002  0.43413938  0.81325637  1.0000
  H   H88       1.0  0.5872910900000002  0.81324996  0.4341324199999999  1.0000
  H   H89       1.0  0.15354172999999988  0.5660267999999999  0.3792224999999999  1.0000
  H   H90       1.0  0.7741175799999999  0.6207480199999997  0.18684505999999995  1.0000
  H   H91       1.0  0.64393949  0.44945391000000007  0.4182040999999999  1.0000
  H   H92       1.0  0.19462728999999998  0.9685833899999999  0.55044786  1.0000
  H   H93       1.0  0.22660907  0.58179048  0.03125486999999998  1.0000
  H   H94       1.0  0.7266095799999999  0.03126495999999999  0.58179443  1.0000
  H   H95       1.0  0.14394212999999995  0.41820907999999996  0.4494572999999999  1.0000
  H   H96       1.0  0.6946326899999999  0.5504488499999998  0.9685898699999997  1.0000
  C   C1        1.0  0.48107838  0.49264016  0.74462697  1.0000
  C   C2        1.0  0.9885864999999997  0.25234418  0.50748765  1.0000
  C   C3        1.0  0.73591041  0.25505607  0.74748486  1.0000
  C   C4        1.0  0.23591231  0.74748817  0.25505827  1.0000
  C   C5        1.0  0.98108067  0.7446280199999998  0.49262689999999987  1.0000
  C   C6        1.0  0.48858859  0.50749015  0.2523458  1.0000
  C   C7        1.0  0.5283425799999999  0.4129984999999999  0.7820954199999998  1.0000
  C   C8        1.0  0.11552815999999991  0.3693912799999999  0.5870823999999998  1.0000
  C   C9        1.0  0.74602365  0.2179072499999999  0.6305383899999998  1.0000
  C   C10       1.0  0.24601666  0.63053989  0.21791715  1.0000
  C   C11       1.0  0.028344579999999963  0.7820912899999999  0.41298475  1.0000
  C   C12       1.0  0.61552719  0.58708349  0.3693911299999999  1.0000
  C   C13       1.0  0.56448865  0.36365048  0.28167165  1.0000
  C   C14       1.0  0.20075926999999993  0.9178163499999998  0.6362355099999998  1.0000
  C   C15       1.0  0.2835750000000001  0.71836041  0.08218921999999997  1.0000
  C   C16       1.0  0.7835738299999999  0.08218644999999988  0.7183613399999997  1.0000
  C   C17       1.0  0.06449142999999993  0.28167593999999996  0.3636534099999999  1.0000
  C   C18       1.0  0.70076032  0.6362356700000001  0.91782204  1.0000
  C   C19       1.0  0.61842002  0.36710507  0.09076914  1.0000
  C   C20       1.0  0.2509635699999999  0.7233793299999999  0.6328379799999998  1.0000
  C   C21       1.0  0.52788668  0.90942198  0.27680982  1.0000
  C   C22       1.0  0.027889690000000036  0.2768049199999999  0.90941902  1.0000
  C   C23       1.0  0.11842164999999999  0.09077360999999998  0.36710633  1.0000
  C   C24       1.0  0.75096701  0.63283635  0.72338802  1.0000
  C   C25       1.0  0.5199297799999999  0.4618853199999998  0.6944485799999998  1.0000
  C   C26       1.0  0.05813574000000003  0.23286296  0.53822851  1.0000
  C   C27       1.0  0.82493005  0.3054409  0.76711777  1.0000
  C   C28       1.0  0.32493085  0.76711715  0.30543871  1.0000
  C   C29       1.0  0.01992925999999994  0.6944441899999999  0.4618738299999999  1.0000
  C   C30       1.0  0.55813762  0.53823053  0.23286303  1.0000
  C   C31       1.0  0.76262336  0.45642052  0.76670893  1.0000
  C   C32       1.0  0.30648265  0.31040417  0.54364011  1.0000
  C   C33       1.0  0.99579213  0.23348309  0.68963291  1.0000
  C   C34       1.0  0.49577671  0.68961694  0.23347281999999994  1.0000
  C   C35       1.0  0.26261258999999987  0.7667045899999999  0.4564169399999999  1.0000
  C   C36       1.0  0.8064844700000002  0.54363569  0.31040218  1.0000
  C   C37       1.0  0.5899487100000002  0.3608122999999999  0.68045756  1.0000
  C   C38       1.0  0.22927108000000004  0.31987271  0.63917544  1.0000
  C   C39       1.0  0.9092742499999998  0.3196731399999999  0.6803645799999998  1.0000
  C   C40       1.0  0.40926596  0.68035356  0.31967007  1.0000
  C   C41       1.0  0.08994098  0.680444  0.36079776  1.0000
  C   C42       1.0  0.72927365  0.63917326  0.31987259  1.0000
  C   C43       1.0  0.5431464800000002  0.27216316  0.13785159  1.0000
  C   C44       1.0  0.27084296  0.86542428  0.72770449  1.0000
  C   C45       1.0  0.40583352  0.86228125  0.13468867  1.0000
  C   C46       1.0  0.90583412  0.1346859  0.86227839  1.0000
  C   C47       1.0  0.04314636  0.13785569  0.2721644  1.0000
  C   C48       1.0  0.77084342  0.72770198  0.86542756  1.0000
  C   C49       1.0  0.6859698599999999  0.3435608  0.27337969  1.0000
  C   C50       1.0  0.34235922  0.92957988  0.65640861  1.0000
  C   C51       1.0  0.41343476  0.72686143  0.07048865  1.0000
  C   C52       1.0  0.9134366999999999  0.07049365999999986  0.7268588499999997  1.0000
  C   C53       1.0  0.18597011  0.27338327  0.34355967  1.0000
  C   C54       1.0  0.84235657  0.65640347  0.9295771  1.0000
  C   C55       1.0  0.47285017  0.34108941  0.06888409999999998  1.0000
  C   C56       1.0  0.13136398  0.72769404  0.65868867  1.0000
  C   C57       1.0  0.4039201599999999  0.9308975899999999  0.2723655499999999  1.0000
  C   C58       1.0  0.90392138  0.27236270999999995  0.9308938399999998  1.0000
  C   C59       1.0  0.9728520800000001  0.06888938999999993  0.3410950399999999  1.0000
  C   C60       1.0  0.63136554  0.6586895099999999  0.7276955699999997  1.0000
  C   C61       1.0  0.5895317599999998  0.41061269999999994  0.05583502999999999  1.0000
  C   C62       1.0  0.17846329000000005  0.64500805  0.58925071  1.0000
  C   C63       1.0  0.53361037  0.94406871  0.35513298  1.0000
  C   C64       1.0  0.03361160999999997  0.3551260799999999  0.94406541  1.0000
  C   C65       1.0  0.0895316  0.05583823999999999  0.41061311  1.0000
  C   C66       1.0  0.67846869  0.58925171  0.64501254  1.0000
  C   C67       1.0  0.83222352  0.48700452  0.74718752  1.0000
  C   C68       1.0  0.34542066999999993  0.26020383999999985  0.5131229999999998  1.0000
  C   C69       1.0  0.08492051  0.25302765  0.73970205  1.0000
  C   C70       1.0  0.58490356  0.7396877599999998  0.2530163099999999  1.0000
  C   C71       1.0  0.33221823999999994  0.7471894399999999  0.4870044999999999  1.0000
  C   C72       1.0  0.8454197999999999  0.51311511  0.26019832  1.0000
  C   C73       1.0  0.7040086300000002  0.41247776  0.63103073  1.0000
  C   C74       1.0  0.2914785200000001  0.21861105  0.58754866  1.0000
  C   C75       1.0  0.07276900999999993  0.36914135999999986  0.7814462299999998  1.0000
  C   C76       1.0  0.5727585700000001  0.7814366100000001  0.36913382  1.0000
  C   C77       1.0  0.20400660999999998  0.63102826  0.4124759299999999  1.0000
  C   C78       1.0  0.79148248  0.58754716  0.21861242  1.0000
  C   C79       1.0  0.6391499400000001  0.40915668  0.35893223  1.0000
  C   C80       1.0  0.23004370999999985  0.9496098099999998  0.5907900099999998  1.0000
  C   C81       1.0  0.28103183  0.64112814  0.050300669999999985  1.0000
  C   C82       1.0  0.78102998  0.05030285999999989  0.6411287699999998  1.0000
  C   C83       1.0  0.13915303  0.35893618  0.40915997  1.0000
  C   C84       1.0  0.73004596  0.5907905699999999  0.9496149499999997  1.0000
  I   I1        1.0  0.30388054  0.52900702  0.82955008  1.0000
  I   I2        1.0  0.7748921200000002  0.30065846  0.4710857  1.0000
  I   I3        1.0  0.47417106  0.17038582000000002  0.69924346  1.0000
  I   I4        1.0  0.9741727800000001  0.69924924  0.17038388999999995  1.0000
  I   I5        1.0  0.80388418  0.82955186  0.52900381  1.0000
  I   I6        1.0  0.27489125  0.47108191  0.30065735  1.0000
  I   I7        1.0  0.3455061200000001  0.30085545999999996  0.82794598  1.0000
  I   I8        1.0  0.04468795000000002  0.5273775  0.69918522  1.0000
  I   I9        1.0  0.5172647499999999  0.17166350999999994  0.4726113799999999  1.0000
  I   I10       1.0  0.01726237999999996  0.47260679  0.17165698999999995  1.0000
  I   I11       1.0  0.84549352  0.82794306  0.30084707  1.0000
  I   I12       1.0  0.54468595  0.6991889100000002  0.52738435  1.0000
  I   I13       1.0  0.29346441  0.44541991999999997  0.03428734999999999  1.0000
  I   I14       1.0  0.8477057900000001  0.5889691999999999  0.5544545599999998  1.0000
  I   I15       1.0  0.25870137000000004  0.96538208  0.4109984899999999  1.0000
  I   I16       1.0  0.7586960600000002  0.4109958799999999  0.9653809699999998  1.0000
  I   I17       1.0  0.79345998  0.03428519999999996  0.44541588999999987  1.0000
  I   I18       1.0  0.3477064599999999  0.55445749  0.5889680499999997  1.0000
  I   I19       1.0  0.56038482  0.58815343  0.03661412  1.0000
  I   I20       1.0  0.97163644  0.44819532999999995  0.41160792  1.0000
  I   I21       1.0  0.5236190399999999  0.9634227099999998  0.5518696399999998  1.0000
  I   I22       1.0  0.023622189999999852  0.5518639499999999  0.9634192699999998  1.0000
  I   I23       1.0  0.06038129000000001  0.03663063000000001  0.58815386  1.0000
  I   I24       1.0  0.4716394000000001  0.41160872000000004  0.44819759  1.0000
  N   N1        1.0  0.48606477999999975  0.4611767699999998  0.7985494999999998  1.0000
  N   N2        1.0  0.025065850000000025  0.33771612000000006  0.5389288  1.0000
  N   N3        1.0  0.68718452  0.20120517  0.66210119  1.0000
  N   N4        1.0  0.1871799  0.66210442  0.20121198999999995  1.0000
  N   N5        1.0  0.9860650300000001  0.7985470099999998  0.4611611799999999  1.0000
  N   N6        1.0  0.52506743  0.53893127  0.3377174  1.0000
  N   N7        1.0  0.79489782  0.45867551  0.66233292  1.0000
  N   N8        1.0  0.33620385000000025  0.20363027  0.54139932  1.0000
  N   N9        1.0  0.13241864999999994  0.33786292999999984  0.7962753799999998  1.0000
  N   N10       1.0  0.63240178  0.79626641  0.33785229  1.0000
  N   N11       1.0  0.29489583  0.6623347199999999  0.4586764799999999  1.0000
  N   N12       1.0  0.8362035700000001  0.54139305  0.20362711  1.0000
  N   N13       1.0  0.49896173  0.39374378  0.04250242999999999  1.0000
  N   N14       1.0  0.10475308999999998  0.64865274  0.60602892  1.0000
  N   N15       1.0  0.45622542  0.9571982699999999  0.3514111899999999  1.0000
  N   N16       1.0  0.95622927  0.35140818  0.95719725  1.0000
  N   N17       1.0  0.99896301  0.042505699999999993  0.39374696  1.0000
  N   N18       1.0  0.60475813  0.60603369  0.64865542  1.0000
  N   N19       1.0  0.54985409  0.41173669  0.71905774  1.0000
  N   N20       1.0  0.13823719  0.30758081  0.58833183  1.0000
  N   N21       1.0  0.83045864  0.2810025199999998  0.6924722799999998  1.0000
  N   N22       1.0  0.33045296000000013  0.69246935  0.28100607  1.0000
  N   N23       1.0  0.04985460000000002  0.71905296  0.41172313  1.0000
  N   N24       1.0  0.6382384  0.58833435  0.30758209  1.0000
  N   N25       1.0  0.54347003  0.32260238  0.09829302  1.0000
  N   N26       1.0  0.22054993  0.77546899  0.67725886  1.0000
  N   N27       1.0  0.44540627999999993  0.9017512799999999  0.2246465  1.0000
  N   N28       1.0  0.94540646  0.2246426299999999  0.9017470199999997  1.0000
  N   N29       1.0  0.04347031999999999  0.09829790999999997  0.32260485  1.0000
  N   N30       1.0  0.72054948  0.67725637  0.7754731999999998  1.0000
  N   N31       1.0  0.71399988  0.39590942  0.35282847  1.0000
  N   N32       1.0  0.31814531  0.95674048  0.60409179  1.0000
  N   N33       1.0  0.3620317900000001  0.64735558  0.04321342  1.0000
  N   N34       1.0  0.86203148  0.04321916999999999  0.64735368  1.0000
  N   N35       1.0  0.21400167  0.35283205999999995  0.3959100799999999  1.0000
  N   N36       1.0  0.81814513  0.6040911  0.9567431  1.0000
  N   N37       1.0  0.68175607  0.40952848  0.69258757  1.0000
  N   N38       1.0  0.27231561  0.28318133  0.59046606  1.0000
  N   N39       1.0  0.9889686100000001  0.30756185999999985  0.7169514799999998  1.0000
  N   N40       1.0  0.48895773999999986  0.71693634  0.30755561999999986  1.0000
  N   N41       1.0  0.18174859000000004  0.69258091  0.40952146  1.0000
  N   N42       1.0  0.7723185300000001  0.5904617999999999  0.28318141  1.0000
  N   N43       1.0  0.59475865  0.3216486499999999  0.22769053999999994  1.0000
  N   N44       1.0  0.27300069000000005  0.9058062799999999  0.67825521  1.0000
  N   N45       1.0  0.3678216300000002  0.7724492  0.09428328  1.0000
  N   N46       1.0  0.8678229899999998  0.09428315999999992  0.7724477399999998  1.0000
  N   N47       1.0  0.09475861999999999  0.22769514999999999  0.32164935  1.0000
  N   N48       1.0  0.7729994500000001  0.6782502200000001  0.90580555  1.0000
