data_image0
_chemical_formula_structural       Cu12H96C168N24O60
_chemical_formula_sum              "Cu12 H96 C168 N24 O60"
_cell_length_a       18.28810405
_cell_length_b       18.28812214
_cell_length_c       25.93761842
_cell_angle_alpha    69.35132282
_cell_angle_beta     69.35142981
_cell_angle_gamma    59.97309293

_symmetry_space_group_name_H-M    'P 1'
_symmetry_Int_Tables_number       1

loop_
  _symmetry_equiv_pos_as_xyz
  'x,y,z'

loop_
  _atom_site_type_symbol
  _atom_site_label
  _atom_site_symmetry_multiplicity
  _atom_site_fract_x
  _atom_site_fract_y
  _atom_site_fract_z
  _atom_site_occupancy
  Cu  Cu1       1.0  0.7833369499999998  0.7398579  0.29220622  1.0000
  Cu  Cu2       1.0  0.7400670000000001  0.18447717999999988  0.29214927  1.0000
  Cu  Cu3       1.0  0.18459123  0.78333702  0.2922114  1.0000
  Cu  Cu4       1.0  0.31552058  0.75993808  0.20785020000000004  1.0000
  Cu  Cu5       1.0  0.7601418399999998  0.71665955  0.20779632000000003  1.0000
  Cu  Cu6       1.0  0.71666278  0.31540847  0.20778802000000002  1.0000
  Cu  Cu7       1.0  0.21666117999999995  0.26014420000000005  0.70779157  1.0000
  Cu  Cu8       1.0  0.2599356800000001  0.8155224099999997  0.7078503200000003  1.0000
  Cu  Cu9       1.0  0.8154062700000001  0.21666186999999992  0.7077896800000002  1.0000
  Cu  Cu10      1.0  0.6844769299999999  0.24006080999999999  0.7921508900000002  1.0000
  Cu  Cu11      1.0  0.23985757999999976  0.28334199  0.79220128  1.0000
  Cu  Cu12      1.0  0.28333795  0.68459313  0.7922119300000001  1.0000
  H   H1        1.0  0.02299974  0.7362192199999998  0.23559020000000006  1.0000
  H   H2        1.0  0.73602892  0.005250779999999999  0.23562937  1.0000
  H   H3        1.0  0.0052784399999999815  0.022909199999999994  0.23532374  1.0000
  H   H4        1.0  0.49474119999999994  0.76396943  0.26437494  1.0000
  H   H5        1.0  0.7637818300000001  0.47699507999999996  0.26441624  1.0000
  H   H6        1.0  0.47709077  0.4947220299999999  0.26467179  1.0000
  H   H7        1.0  0.9770003499999996  0.2637779699999999  0.7644102700000002  1.0000
  H   H8        1.0  0.2639672999999999  0.9947510099999999  0.76437322  1.0000
  H   H9        1.0  0.9947216500000002  0.9770920899999999  0.76467646  1.0000
  H   H10       1.0  0.50525759  0.23602654999999992  0.7356250100000002  1.0000
  H   H11       1.0  0.23622149999999997  0.52299956  0.73558367  1.0000
  H   H12       1.0  0.52290541  0.5052756199999999  0.73532532  1.0000
  H   H13       1.0  0.25627716000000006  0.65713589  0.10866651000000001  1.0000
  H   H14       1.0  0.65701638  0.97807185  0.1086776  1.0000
  H   H15       1.0  0.9781140399999999  0.25621183  0.10845103000000003  1.0000
  H   H16       1.0  0.5219257699999998  0.84298825  0.39132353  1.0000
  H   H17       1.0  0.8428736200000001  0.24371614999999985  0.39133377000000014  1.0000
  H   H18       1.0  0.24379205  0.52188096  0.39154726  1.0000
  H   H19       1.0  0.7437236  0.3428592799999998  0.8913354600000002  1.0000
  H   H20       1.0  0.34298114  0.02192938999999999  0.89132558  1.0000
  H   H21       1.0  0.02188668999999994  0.7437879999999999  0.8915474600000001  1.0000
  H   H22       1.0  0.47807431999999994  0.15701128000000003  0.60867596  1.0000
  H   H23       1.0  0.15713684000000003  0.75628367  0.6086672600000002  1.0000
  H   H24       1.0  0.7562119600000001  0.47811519  0.60845711  1.0000
  H   H25       1.0  0.03611726999999998  0.62792577  0.10755260000000001  1.0000
  H   H26       1.0  0.62767678  0.22862731999999997  0.10760926000000003  1.0000
  H   H27       1.0  0.22870693999999997  0.03596534999999999  0.10754276000000003  1.0000
  H   H28       1.0  0.27136859  0.87232185  0.39239798  1.0000
  H   H29       1.0  0.8720719699999999  0.46387976000000003  0.39245228000000004  1.0000
  H   H30       1.0  0.46404482999999996  0.2712903  0.39245578  1.0000
  H   H31       1.0  0.9638821700000002  0.37207228  0.89244743  1.0000
  H   H32       1.0  0.37232072  0.7713721499999999  0.8923912900000002  1.0000
  H   H33       1.0  0.7712937899999999  0.9640344899999999  0.8924564900000002  1.0000
  H   H34       1.0  0.7286289099999999  0.1276811299999999  0.6076020600000002  1.0000
  H   H35       1.0  0.1279248499999999  0.5361293300000001  0.60754485  1.0000
  H   H36       1.0  0.5359604499999997  0.72870879  0.6075455900000001  1.0000
  H   H37       1.0  0.34919899000000004  0.44260228  0.016904650000000004  1.0000
  H   H38       1.0  0.44254008  0.19145554  0.01698648  1.0000
  H   H39       1.0  0.19174866000000002  0.34891959999999994  0.016942040000000002  1.0000
  H   H40       1.0  0.30854717  0.05745473999999994  0.48301808000000007  1.0000
  H   H41       1.0  0.05739843999999996  0.15078626999999994  0.4830971900000001  1.0000
  H   H42       1.0  0.15109357  0.30824036  0.4830537100000001  1.0000
  H   H43       1.0  0.65079784  0.55739979  0.9830931000000002  1.0000
  H   H44       1.0  0.5574522499999998  0.8085420299999999  0.9830143200000002  1.0000
  H   H45       1.0  0.80825856  0.65107808  0.9830584300000001  1.0000
  H   H46       1.0  0.6914600600000003  0.9425452799999996  0.51698371  1.0000
  H   H47       1.0  0.94260096  0.8492316699999999  0.5168989600000001  1.0000
  H   H48       1.0  0.8489078299999999  0.6917580399999999  0.51694767  1.0000
  H   H49       1.0  0.46103426999999986  0.40322042999999996  0.9291498300000002  1.0000
  H   H50       1.0  0.40315757999999996  0.20663136  0.92927975  1.0000
  H   H51       1.0  0.2068162399999999  0.4608447699999999  0.9291904500000002  1.0000
  H   H52       1.0  0.29337574  0.09683257999999993  0.5707244900000001  1.0000
  H   H53       1.0  0.09677610999999997  0.03895215999999997  0.5708536900000001  1.0000
  H   H54       1.0  0.03916188999999998  0.29317695  0.57080123  1.0000
  H   H55       1.0  0.5389606199999998  0.59677836  0.07084770000000001  1.0000
  H   H56       1.0  0.5968386  0.7933698  0.07071800000000002  1.0000
  H   H57       1.0  0.79319357  0.53915239  0.07081026  1.0000
  H   H58       1.0  0.70663215  0.9031625  0.4292784000000001  1.0000
  H   H59       1.0  0.9032226299999998  0.9610572500000001  0.42914016000000005  1.0000
  H   H60       1.0  0.9608395  0.70682028  0.4291996700000001  1.0000
  H   H61       1.0  0.4276321699999999  0.4955372099999999  0.8348862500000003  1.0000
  H   H62       1.0  0.49536539  0.24199864999999993  0.8349829200000001  1.0000
  H   H63       1.0  0.24194615  0.42758194999999977  0.83492144  1.0000
  H   H64       1.0  0.25800602999999994  0.004624929999999972  0.6650196200000001  1.0000
  H   H65       1.0  0.004463889999999964  0.07236081999999998  0.6651166700000001  1.0000
  H   H66       1.0  0.07241964999999997  0.25805517  0.66507067  1.0000
  H   H67       1.0  0.57236207  0.50446361  0.16511132  1.0000
  H   H68       1.0  0.50463209  0.75800197  0.16501464  1.0000
  H   H69       1.0  0.7580584800000001  0.57241742  0.16507964  1.0000
  H   H70       1.0  0.74199925  0.99536948  0.33498178  1.0000
  H   H71       1.0  0.99553357  0.92764036  0.33487883000000007  1.0000
  H   H72       1.0  0.9275804499999999  0.74194437  0.33493035000000004  1.0000
  H   H73       1.0  0.1816014499999999  0.65324079  0.9090934100000002  1.0000
  H   H74       1.0  0.65302593  0.2562595499999999  0.9090685700000001  1.0000
  H   H75       1.0  0.25627424  0.1815549899999999  0.9090683300000002  1.0000
  H   H76       1.0  0.24373650999999993  0.8469711699999999  0.5909340400000002  1.0000
  H   H77       1.0  0.84676602  0.31839048999999997  0.59090596  1.0000
  H   H78       1.0  0.31845027000000004  0.2437299  0.59092773  1.0000
  H   H79       1.0  0.81839474  0.34676391  0.09090538  1.0000
  H   H80       1.0  0.34696965999999996  0.7437319899999998  0.09093563000000003  1.0000
  H   H81       1.0  0.7437219500000001  0.8184485299999997  0.09093037  1.0000
  H   H82       1.0  0.7562616100000001  0.15303325999999995  0.4090631600000001  1.0000
  H   H83       1.0  0.15323085  0.68161396  0.40909695  1.0000
  H   H84       1.0  0.68155048  0.7562693699999999  0.40907397000000006  1.0000
  H   H85       1.0  0.26511152  0.59764906  0.043569630000000005  1.0000
  H   H86       1.0  0.5974397899999999  0.09389595999999997  0.04363152  1.0000
  H   H87       1.0  0.09394269000000001  0.26490376  0.043422970000000005  1.0000
  H   H88       1.0  0.40609966  0.9025628500000001  0.45637023000000004  1.0000
  H   H89       1.0  0.9023563000000001  0.23488185999999997  0.4564301900000001  1.0000
  H   H90       1.0  0.23510370000000003  0.4060529  0.45657408  1.0000
  H   H91       1.0  0.7348892199999999  0.40234726000000004  0.95643051  1.0000
  H   H92       1.0  0.40255580000000013  0.9060996799999997  0.9563728000000002  1.0000
  H   H93       1.0  0.9060580299999997  0.73509548  0.95657566  1.0000
  H   H94       1.0  0.5939023600000001  0.09743643000000002  0.54362845  1.0000
  H   H95       1.0  0.09764898000000001  0.7651260299999999  0.5435716400000001  1.0000
  H   H96       1.0  0.7648996399999999  0.59394584  0.54342709  1.0000
  C   C1        1.0  0.9298995199999999  0.69457734  0.20165807000000005  1.0000
  C   C2        1.0  0.69447766  0.17394618  0.20168029  1.0000
  C   C3        1.0  0.1740318100000001  0.9297566399999999  0.20155946000000002  1.0000
  C   C4        1.0  0.32604859  0.80552085  0.29832466  1.0000
  C   C5        1.0  0.8054200900000004  0.57009885  0.2983482  1.0000
  C   C6        1.0  0.5702477699999999  0.32597281  0.29843859  1.0000
  C   C7        1.0  0.07009992000000001  0.30542070999999993  0.7983415800000001  1.0000
  C   C8        1.0  0.30552306999999995  0.8260530699999998  0.7983191100000001  1.0000
  C   C9        1.0  0.8259676399999999  0.0702437599999999  0.7984411300000003  1.0000
  C   C10       1.0  0.6739489199999996  0.19447862999999987  0.7016770400000002  1.0000
  C   C11       1.0  0.1945774099999999  0.42990237  0.7016522900000002  1.0000
  C   C12       1.0  0.42975489  0.67402677  0.70155869  1.0000
  C   C13       1.0  0.02104171999999995  0.68261151  0.17436148  1.0000
  C   C14       1.0  0.6824058999999999  0.12212537  0.17440467000000004  1.0000
  C   C15       1.0  0.12218005999999997  0.020899589999999996  0.17421595000000004  1.0000
  C   C16       1.0  0.37786866000000013  0.8175932399999998  0.3255988  1.0000
  C   C17       1.0  0.81738629  0.47895655  0.3256445600000001  1.0000
  C   C18       1.0  0.4791049999999999  0.3778235  0.32578002  1.0000
  C   C19       1.0  0.9789583699999999  0.3173839299999999  0.82563905  1.0000
  C   C20       1.0  0.31759223999999997  0.8778744  0.8255952500000002  1.0000
  C   C21       1.0  0.87782068  0.97910201  0.8257843900000003  1.0000
  C   C22       1.0  0.6221288500000001  0.18240622999999997  0.67440214  1.0000
  C   C23       1.0  0.18261572000000006  0.52104448  0.6743536800000001  1.0000
  C   C24       1.0  0.52089831  0.62217346  0.67421738  1.0000
  C   C25       1.0  0.05905067999999998  0.70866303  0.19841291  1.0000
  C   C26       1.0  0.7084654200000001  0.03399275999999999  0.19846043  1.0000
  C   C27       1.0  0.03401848  0.05893715  0.19819492  1.0000
  C   C28       1.0  0.46600241  0.7915325  0.3015439100000001  1.0000
  C   C29       1.0  0.79133636  0.4409478600000001  0.30159267  1.0000
  C   C30       1.0  0.44106439  0.4659823  0.30179974000000004  1.0000
  C   C31       1.0  0.94094876  0.29133326  0.80158757  1.0000
  C   C32       1.0  0.2915282199999999  0.9660083799999998  0.8015429800000002  1.0000
  C   C33       1.0  0.9659809499999992  0.94106324  0.80180414  1.0000
  C   C34       1.0  0.5339963900000001  0.20846465  0.69845613  1.0000
  C   C35       1.0  0.20866697000000003  0.5590497  0.6984068900000001  1.0000
  C   C36       1.0  0.55893569  0.53401487  0.69819881  1.0000
  C   C37       1.0  0.14343258000000003  0.70006972  0.17435754  1.0000
  C   C38       1.0  0.6999031299999999  0.9822724899999999  0.1743909  1.0000
  C   C39       1.0  0.98228641  0.14334132000000002  0.17413882  1.0000
  C   C40       1.0  0.5177234900000001  0.8000977  0.32561203  1.0000
  C   C41       1.0  0.79993719  0.35656469  0.32564112  1.0000
  C   C42       1.0  0.35666241  0.51771296  0.3258577100000001  1.0000
  C   C43       1.0  0.85656687  0.29992658  0.8256440900000002  1.0000
  C   C44       1.0  0.3000950299999998  0.01772612999999993  0.8256120100000002  1.0000
  C   C45       1.0  0.017714320000000058  0.8566590999999999  0.8258602900000003  1.0000
  C   C46       1.0  0.4822753  0.19990061999999997  0.6743877100000001  1.0000
  C   C47       1.0  0.20007001999999996  0.6434318  0.6743585  1.0000
  C   C48       1.0  0.64333899  0.48228427  0.67414357  1.0000
  C   C49       1.0  0.19003770999999994  0.66410731  0.12688195  1.0000
  C   C50       1.0  0.66392517  0.019131590000000004  0.12692025  1.0000
  C   C51       1.0  0.019153710000000032  0.18995147999999995  0.12670346  1.0000
  C   C52       1.0  0.48086339999999994  0.8360787  0.37308145  1.0000
  C   C53       1.0  0.8358965399999999  0.30995793  0.3731168  1.0000
  C   C54       1.0  0.3100520600000001  0.48084294999999994  0.3732931700000001  1.0000
  C   C55       1.0  0.80996303  0.33588903  0.87311934  1.0000
  C   C56       1.0  0.3360717  0.98086758  0.8730828400000001  1.0000
  C   C57       1.0  0.98084831  0.8100478099999998  0.8732956100000001  1.0000
  C   C58       1.0  0.5191366800000002  0.16392198999999985  0.6269177500000002  1.0000
  C   C59       1.0  0.16411002  0.69004118  0.62688308  1.0000
  C   C60       1.0  0.68994868  0.51915514  0.6267076800000001  1.0000
  C   C61       1.0  0.15209638000000011  0.6372690499999998  0.10291694  1.0000
  C   C62       1.0  0.63705212  0.10791662999999996  0.10296782  1.0000
  C   C63       1.0  0.10796823999999998  0.15195973  0.10281056000000001  1.0000
  C   C64       1.0  0.39207959  0.86294785  0.39703563000000003  1.0000
  C   C65       1.0  0.86273474  0.34789891  0.3970834500000001  1.0000
  C   C66       1.0  0.34804551000000006  0.3920304499999999  0.39718714000000005  1.0000
  C   C67       1.0  0.8479043600000002  0.36272903999999995  0.89708352  1.0000
  C   C68       1.0  0.36294216  0.89208306  0.89703426  1.0000
  C   C69       1.0  0.8920337799999999  0.8480389700000001  0.89718865  1.0000
  C   C70       1.0  0.6079198499999999  0.13705314000000002  0.60296481  1.0000
  C   C71       1.0  0.13726921000000003  0.65210423  0.6029145300000001  1.0000
  C   C72       1.0  0.6519565300000001  0.6079694399999999  0.60281485  1.0000
  C   C73       1.0  0.06652513000000007  0.64729044  0.12628791  1.0000
  C   C74       1.0  0.64705558  0.16008726  0.12634264  1.0000
  C   C75       1.0  0.16014003  0.06637455  0.12619864  1.0000
  C   C76       1.0  0.3399078900000001  0.8529428700000001  0.37366143  1.0000
  C   C77       1.0  0.8527095900000001  0.43347091999999987  0.37371625000000014  1.0000
  C   C78       1.0  0.43363193  0.33985936  0.37379868  1.0000
  C   C79       1.0  0.9334762599999998  0.3527050199999999  0.87371266  1.0000
  C   C80       1.0  0.35294256  0.83991367  0.8736566000000001  1.0000
  C   C81       1.0  0.8398619799999998  0.9336247299999999  0.8737996600000002  1.0000
  C   C82       1.0  0.6600909099999999  0.14705781  0.62633925  1.0000
  C   C83       1.0  0.14729112999999996  0.5665336000000001  0.6262822  1.0000
  C   C84       1.0  0.56637075  0.66014082  0.62620115  1.0000
  C   C85       1.0  0.18282980000000007  0.7288637599999997  0.20051108  1.0000
  C   C86       1.0  0.72885308  0.88785456  0.20049809000000005  1.0000
  C   C87       1.0  0.88789751  0.18273321  0.20030589  1.0000
  C   C88       1.0  0.61214112  0.77114399  0.29950288  1.0000
  C   C89       1.0  0.77114357  0.31716668  0.29948614  1.0000
  C   C90       1.0  0.31726607  0.61210261  0.2996934  1.0000
  C   C91       1.0  0.81716966  0.27113079999999995  0.7994921400000001  1.0000
  C   C92       1.0  0.27114506999999993  0.11214639999999997  0.79950346  1.0000
  C   C93       1.0  0.1121025600000001  0.8172692299999995  0.7996917100000002  1.0000
  C   C94       1.0  0.3878583299999999  0.22885347999999991  0.7004984500000002  1.0000
  C   C95       1.0  0.22886232000000023  0.6828315199999998  0.70051145  1.0000
  C   C96       1.0  0.6827366200000001  0.3878940699999997  0.7003076900000003  1.0000
  C   C97       1.0  0.25584185999999987  0.55107206  0.9697123700000002  1.0000
  C   C98       1.0  0.5509249299999999  0.22356596999999997  0.9697376100000002  1.0000
  C   C99       1.0  0.22372961  0.25567415999999993  0.9697011800000003  1.0000
  C   C100      1.0  0.2764326300000001  0.9490744899999997  0.5302652600000001  1.0000
  C   C101      1.0  0.94893331  0.24414904  0.5302881400000001  1.0000
  C   C102      1.0  0.24433351  0.27626764  0.53029131  1.0000
  C   C103      1.0  0.7441556199999999  0.44893149  0.03028522000000001  1.0000
  C   C104      1.0  0.44907064000000013  0.7764296499999997  0.030264410000000002  1.0000
  C   C105      1.0  0.77627306  0.74432542  0.030297260000000006  1.0000
  C   C106      1.0  0.7235681000000002  0.050930029999999994  0.46973357000000004  1.0000
  C   C107      1.0  0.05106613000000001  0.7558630799999999  0.4697121700000001  1.0000
  C   C108      1.0  0.7556678699999999  0.72373251  0.46970924  1.0000
  C   C109      1.0  0.33592049999999996  0.48042604999999994  0.9753005800000001  1.0000
  C   C110      1.0  0.48032699  0.20850827  0.9753699900000001  1.0000
  C   C111      1.0  0.2087010699999999  0.33571206999999986  0.9753193900000002  1.0000
  C   C112      1.0  0.29148965  0.019672519999999985  0.5246335  1.0000
  C   C113      1.0  0.01957439999999999  0.16406771  0.52470173  1.0000
  C   C114      1.0  0.16429691000000005  0.29129152  0.52467426  1.0000
  C   C115      1.0  0.6640763399999998  0.5195748499999999  0.02469823  1.0000
  C   C116      1.0  0.5196692199999997  0.79148648  0.024630550000000008  1.0000
  C   C117      1.0  0.7913042  0.66428525  0.024680500000000008  1.0000
  C   C118      1.0  0.7085130299999999  0.9803300100000001  0.47536650000000014  1.0000
  C   C119      1.0  0.9804237299999998  0.83594552  0.47529594000000003  1.0000
  C   C120      1.0  0.8357051299999999  0.7087060199999999  0.4753267800000001  1.0000
  C   C121      1.0  0.3983527999999999  0.45836867  0.9265243400000001  1.0000
  C   C122      1.0  0.4582704899999998  0.2168410099999999  0.9266185600000002  1.0000
  C   C123      1.0  0.2170043599999999  0.39818518999999997  0.9265466500000002  1.0000
  C   C124      1.0  0.28316459999999993  0.04172071999999998  0.57338621  1.0000
  C   C125      1.0  0.04163021999999996  0.10163604999999998  0.5734798000000001  1.0000
  C   C126      1.0  0.10182095999999993  0.28299273999999996  0.5734446100000001  1.0000
  C   C127      1.0  0.6016427399999998  0.54163161  0.07347457  1.0000
  C   C128      1.0  0.5417250699999999  0.78315752  0.07338118  1.0000
  C   C129      1.0  0.78300155  0.60181303  0.07345324  1.0000
  C   C130      1.0  0.71684392  0.95827524  0.42661475  1.0000
  C   C131      1.0  0.9583685399999999  0.8983722  0.42651627  1.0000
  C   C132      1.0  0.89818043  0.7170050699999999  0.42655576  1.0000
  C   C133      1.0  0.3799117999999999  0.50899576  0.87407096  1.0000
  C   C134      1.0  0.5088414499999999  0.23709306999999996  0.8741423300000001  1.0000
  C   C135      1.0  0.23712061999999998  0.37984752  0.87408935  1.0000
  C   C136      1.0  0.26291031999999986  0.9911491000000001  0.6258615400000002  1.0000
  C   C137      1.0  0.99100503  0.12007961999999997  0.62593264  1.0000
  C   C138      1.0  0.12015721999999994  0.26287699999999997  0.6259017800000001  1.0000
  C   C139      1.0  0.6200837400000001  0.49100451  0.12592719000000002  1.0000
  C   C140      1.0  0.4911541000000001  0.7629078  0.1258572  1.0000
  C   C141      1.0  0.7628833500000002  0.6201526999999998  0.12591052000000003  1.0000
  C   C142      1.0  0.7370936599999998  0.008848779999999975  0.37413893000000004  1.0000
  C   C143      1.0  0.008994379999999942  0.87992426  0.37406399  1.0000
  C   C144      1.0  0.8798441699999999  0.7371214  0.3740984400000001  1.0000
  C   C145      1.0  0.24263779999999974  0.59721215  0.9153653500000002  1.0000
  C   C146      1.0  0.5970192099999999  0.24495249999999988  0.9153613600000002  1.0000
  C   C147      1.0  0.2449981  0.24257392999999994  0.9153399500000002  1.0000
  C   C148      1.0  0.2550468599999999  0.9029769300000001  0.58464139  1.0000
  C   C149      1.0  0.9027944499999999  0.25735308  0.58463519  1.0000
  C   C150      1.0  0.2574312000000002  0.2550048999999999  0.5846536700000001  1.0000
  C   C151      1.0  0.75735839  0.40279254  0.08463305000000002  1.0000
  C   C152      1.0  0.40297572  0.75504163  0.08464081000000002  1.0000
  C   C153      1.0  0.7550019699999999  0.75742734  0.08465833  1.0000
  C   C154      1.0  0.74495581  0.09702499999999993  0.41535722000000014  1.0000
  C   C155      1.0  0.09720305000000001  0.7426534199999998  0.4153651100000001  1.0000
  C   C156      1.0  0.7425695399999999  0.74499495  0.41534712  1.0000
  C   C157      1.0  0.18232884000000002  0.58110133  0.01839466  1.0000
  C   C158      1.0  0.58089491  0.21841332  0.0184161  1.0000
  C   C159      1.0  0.21860035  0.18219033  0.018404940000000005  1.0000
  C   C160      1.0  0.2815846099999999  0.91910443  0.4815869500000001  1.0000
  C   C161      1.0  0.91890561  0.31766012  0.48160621  1.0000
  C   C162      1.0  0.31781775000000007  0.2813948299999999  0.4815895300000001  1.0000
  C   C163      1.0  0.8176679999999997  0.41890191  0.9816039400000002  1.0000
  C   C164      1.0  0.4190967800000003  0.7815851299999996  0.98158656  1.0000
  C   C165      1.0  0.78140102  0.8178092199999999  0.9815930700000002  1.0000
  C   C166      1.0  0.7184141599999999  0.08090209  0.51841149  1.0000
  C   C167      1.0  0.08109446999999999  0.68235055  0.51839315  1.0000
  C   C168      1.0  0.6821855899999999  0.7186039099999999  0.51841165  1.0000
  N   N1        1.0  0.30347382000000006  0.57780191  0.86855297  1.0000
  N   N2        1.0  0.57759239  0.25031203  0.86856742  1.0000
  N   N3        1.0  0.25025675000000003  0.3034611099999999  0.86854424  1.0000
  N   N4        1.0  0.2496874299999999  0.92240082  0.63143642  1.0000
  N   N5        1.0  0.92220019  0.19651784  0.63144858  1.0000
  N   N6        1.0  0.19654278999999997  0.24974252999999993  0.6314494500000001  1.0000
  N   N7        1.0  0.6965217200000001  0.4221995399999999  0.13144564  1.0000
  N   N8        1.0  0.42240575999999996  0.74968423  0.13143301  1.0000
  N   N9        1.0  0.7497420400000001  0.69654131  0.13145524  1.0000
  N   N10       1.0  0.7503133  0.07759844000000002  0.36856375  1.0000
  N   N11       1.0  0.07779793999999995  0.80348484  0.36854946  1.0000
  N   N12       1.0  0.8034579499999999  0.75025615  0.36855087  1.0000
  N   N13       1.0  0.20446362000000004  0.6009327  0.055417000000000015  1.0000
  N   N14       1.0  0.60071321  0.13942183  0.055468190000000014  1.0000
  N   N15       1.0  0.13950208  0.20429021  0.05533784000000001  1.0000
  N   N16       1.0  0.3605737700000001  0.8992883199999996  0.4445345900000001  1.0000
  N   N17       1.0  0.8990708899999998  0.29552878  0.44458348  1.0000
  N   N18       1.0  0.29571587  0.36049357  0.44465964  1.0000
  N   N19       1.0  0.7955364699999996  0.39906448999999994  0.94458347  1.0000
  N   N20       1.0  0.39928107  0.86057669  0.94453419  1.0000
  N   N21       1.0  0.8604993  0.7957087599999999  0.9446610800000003  1.0000
  N   N22       1.0  0.6394250199999998  0.10071292999999998  0.55546557  1.0000
  N   N23       1.0  0.10093049000000001  0.70448016  0.55541638  1.0000
  N   N24       1.0  0.70428683  0.63950546  0.5553424  1.0000
  O   O1        1.0  0.88472811  0.69795505  0.17247582  1.0000
  O   O2        1.0  0.69776406  0.24497546999999997  0.1725051  1.0000
  O   O3        1.0  0.24506168999999992  0.8845097  0.17241994000000002  1.0000
  O   O4        1.0  0.25501914000000003  0.80224114  0.32749506  1.0000
  O   O5        1.0  0.80204014  0.61526941  0.32753621  1.0000
  O   O6        1.0  0.6154999499999999  0.25494880999999997  0.32757499  1.0000
  O   O7        1.0  0.11527261999999994  0.30204244999999996  0.8275236400000002  1.0000
  O   O8        1.0  0.3022437999999999  0.7550195900000001  0.82749548  1.0000
  O   O9        1.0  0.75493644  0.11548889  0.82757913  1.0000
  O   O10       1.0  0.74497772  0.19775861000000003  0.67250597  1.0000
  O   O11       1.0  0.19795539999999998  0.38473496999999995  0.6724620500000001  1.0000
  O   O12       1.0  0.38450467  0.7450546499999999  0.6724258200000001  1.0000
  O   O13       1.0  0.90496906  0.70173567  0.25307284  1.0000
  O   O14       1.0  0.7018802399999999  0.14015766  0.25304592  1.0000
  O   O15       1.0  0.14026964999999997  0.90490641  0.25295535  1.0000
  O   O16       1.0  0.35984238  0.79811553  0.24695764  1.0000
  O   O17       1.0  0.7982565900000002  0.59503594  0.24693574000000004  1.0000
  O   O18       1.0  0.59509149  0.35973816999999997  0.24703968000000007  1.0000
  O   O19       1.0  0.09502906999999991  0.29826350000000007  0.74692531  1.0000
  O   O20       1.0  0.2981120799999999  0.85984343  0.7469555300000001  1.0000
  O   O21       1.0  0.8597291499999998  0.09509191999999993  0.7470455400000002  1.0000
  O   O22       1.0  0.6401544799999999  0.20188538999999991  0.7530438600000002  1.0000
  O   O23       1.0  0.2017402600000001  0.40496438999999973  0.7530643700000001  1.0000
  O   O24       1.0  0.4049105199999999  0.6402570000000001  0.75295773  1.0000
  O   O25       1.0  0.13683369999999997  0.75804659  0.24491646000000003  1.0000
  O   O26       1.0  0.7580755999999994  0.86024966  0.24489053000000002  1.0000
  O   O27       1.0  0.8603796599999999  0.13672623  0.24473353000000006  1.0000
  O   O28       1.0  0.63974572  0.7419278899999999  0.25511239  1.0000
  O   O29       1.0  0.74195355  0.36317053  0.25508248  1.0000
  O   O30       1.0  0.36327313  0.63961867  0.25525889  1.0000
  O   O31       1.0  0.8631657600000001  0.24195088999999995  0.7550860200000001  1.0000
  O   O32       1.0  0.24192383999999995  0.1397489799999999  0.7551101200000002  1.0000
  O   O33       1.0  0.13962038999999998  0.86327033  0.7552621  1.0000
  O   O34       1.0  0.36025177  0.25807449  0.74488703  1.0000
  O   O35       1.0  0.25804525999999994  0.63682605  0.74491924  1.0000
  O   O36       1.0  0.63672957  0.36037802  0.74474297  1.0000
  O   O37       1.0  0.25967896  0.72131934  0.17637516  1.0000
  O   O38       1.0  0.72142908  0.84263556  0.17634366  1.0000
  O   O39       1.0  0.84262033  0.2595603  0.17617065  1.0000
  O   O40       1.0  0.65735874  0.77857351  0.32365937000000006  1.0000
  O   O41       1.0  0.7786956500000001  0.24031699000000004  0.32361569  1.0000
  O   O42       1.0  0.24044489999999996  0.65738105  0.32382905  1.0000
  O   O43       1.0  0.7403211499999999  0.27867377000000004  0.82362788  1.0000
  O   O44       1.0  0.27857163999999973  0.1573672  0.8236548500000002  1.0000
  O   O45       1.0  0.15737977  0.74044217  0.8238311800000001  1.0000
  O   O46       1.0  0.34264068999999997  0.22142628999999997  0.67633945  1.0000
  O   O47       1.0  0.22132061000000003  0.75967504  0.67638199  1.0000
  O   O48       1.0  0.7595558400000001  0.34261762999999995  0.6761716500000001  1.0000
  O   O49       1.0  0.10959672000000001  0.58874862  0.02224782  1.0000
  O   O50       1.0  0.58849775  0.2796706299999999  0.02226014  1.0000
  O   O51       1.0  0.27997665999999993  0.10952569999999999  0.022360480000000005  1.0000
  O   O52       1.0  0.22032747  0.91150127  0.47774445000000004  1.0000
  O   O53       1.0  0.911258  0.39039271  0.47775527  1.0000
  O   O54       1.0  0.39048197000000007  0.22001566999999997  0.47763414000000004  1.0000
  O   O55       1.0  0.8903988100000002  0.41125869  0.9777500800000001  1.0000
  O   O56       1.0  0.4114913399999999  0.7203306800000001  0.97774246  1.0000
  O   O57       1.0  0.72002472  0.89047328  0.97763959  1.0000
  O   O58       1.0  0.77966936  0.08850841999999998  0.52225368  1.0000
  O   O59       1.0  0.08874077999999994  0.60962026  0.52224346  1.0000
  O   O60       1.0  0.6095200900000002  0.77998189  0.52236882  1.0000
