data_image0
_chemical_formula_structural       Cu12H72C135N24
_chemical_formula_sum              "Cu12 H72 C135 N24"
_cell_length_a       31.70203517
_cell_length_b       31.6760435
_cell_length_c       31.886433309999997
_cell_angle_alpha    89.99048073
_cell_angle_beta     90.00119339
_cell_angle_gamma    89.93897206

_symmetry_space_group_name_H-M    'P 1'
_symmetry_Int_Tables_number       1

loop_
  _symmetry_equiv_pos_as_xyz
  'x,y,z'

loop_
  _atom_site_type_symbol
  _atom_site_label
  _atom_site_symmetry_multiplicity
  _atom_site_fract_x
  _atom_site_fract_y
  _atom_site_fract_z
  _atom_site_occupancy
  Cu  Cu1       1.0  0.78277362  0.78295711  0.85211654  1.0000
  Cu  Cu2       1.0  0.8533086599999998  0.78215148  0.78170054  1.0000
  Cu  Cu3       1.0  0.7821317899999998  0.85363527  0.78185099  1.0000
  Cu  Cu4       1.0  0.7824531799999997  0.21702859  0.14769670999999995  1.0000
  Cu  Cu5       1.0  0.85295142  0.21780676000000004  0.21826832  1.0000
  Cu  Cu6       1.0  0.78186785  0.1463949  0.21828953999999995  1.0000
  Cu  Cu7       1.0  0.21713985999999993  0.78303642  0.14769391  1.0000
  Cu  Cu8       1.0  0.14660782  0.78232422  0.21817223  1.0000
  Cu  Cu9       1.0  0.21801425  0.85345512  0.21833189  1.0000
  Cu  Cu10      1.0  0.21850446  0.21831902  0.85078751  1.0000
  Cu  Cu11      1.0  0.14657529  0.21772695000000006  0.7816062  1.0000
  Cu  Cu12      1.0  0.21795981999999994  0.14635458  0.7816978  1.0000
  H   H1        1.0  0.8116534499999998  0.70492055  0.90752355  1.0000
  H   H2        1.0  0.9083121599999998  0.7031851300000003  0.8113596499999998  1.0000
  H   H3        1.0  0.70332452  0.90890782  0.8117361999999998  1.0000
  H   H4        1.0  0.70492168  0.81191244  0.90766206  1.0000
  H   H5        1.0  0.90804242  0.81142822  0.7036252899999997  1.0000
  H   H6        1.0  0.81147567  0.90841089  0.7037983299999998  1.0000
  H   H7        1.0  0.81139188  0.29498061  0.09217098  1.0000
  H   H8        1.0  0.9078730599999998  0.29678852  0.18848029  1.0000
  H   H9        1.0  0.7031806299999998  0.09119993000000003  0.18854838  1.0000
  H   H10       1.0  0.70456055  0.18785848  0.09230754  1.0000
  H   H11       1.0  0.9076914599999998  0.18849671  0.29656746  1.0000
  H   H12       1.0  0.81123125  0.09162293000000003  0.2964078799999999  1.0000
  H   H13       1.0  0.18796577999999994  0.70528046  0.09203863  1.0000
  H   H14       1.0  0.09138460999999998  0.7036670600000002  0.18827158  1.0000
  H   H15       1.0  0.29692945  0.9084626  0.18874076  1.0000
  H   H16       1.0  0.29521233  0.8119722300000002  0.09236186999999997  1.0000
  H   H17       1.0  0.09201231999999997  0.81162173  0.29645164  1.0000
  H   H18       1.0  0.18885836  0.9081134300000002  0.29654224  1.0000
  H   H19       1.0  0.18982942  0.29689173  0.90573992  1.0000
  H   H20       1.0  0.09056063999999997  0.29556502  0.8122603699999997  1.0000
  H   H21       1.0  0.29573298  0.09026236  0.8124298199999997  1.0000
  H   H22       1.0  0.29712141  0.1897122  0.9057938499999998  1.0000
  H   H23       1.0  0.09176220999999997  0.18812786000000006  0.7036617  1.0000
  H   H24       1.0  0.18852856  0.09135487000000003  0.70387238  1.0000
  H   H25       1.0  0.97975824  0.59054993  0.8844581  1.0000
  H   H26       1.0  0.0187598  0.53569067  0.9234141599999998  1.0000
  H   H27       1.0  0.92244571  0.53564236  0.01864081  1.0000
  H   H28       1.0  0.8833901699999998  0.59046819  0.9797590999999998  1.0000
  H   H29       1.0  0.8830179  0.4101524600000001  0.02001979  1.0000
  H   H30       1.0  0.9222846799999997  0.46485542000000013  0.9813698099999998  1.0000
  H   H31       1.0  0.01835589  0.46427263000000013  0.076818  1.0000
  H   H32       1.0  0.9791868699999998  0.4094511400000001  0.11553441999999997  1.0000
  H   H33       1.0  0.11612213999999997  0.5905238  0.01987134  1.0000
  H   H34       1.0  0.07721818999999998  0.53544714  0.9813551099999998  1.0000
  H   H35       1.0  0.9809242  0.5359879400000003  0.07659041  1.0000
  H   H36       1.0  0.01974716  0.5911391  0.11515674999999997  1.0000
  H   H37       1.0  0.11625192  0.40953375  0.97956179  1.0000
  H   H38       1.0  0.07728619  0.46436084  0.018493899999999994  1.0000
  H   H39       1.0  0.98088816  0.46441323  0.9233669199999998  1.0000
  H   H40       1.0  0.01978034999999999  0.4095676600000001  0.88435436  1.0000
  H   H41       1.0  0.5902596  0.97972912  0.88460711  1.0000
  H   H42       1.0  0.53520165  0.01859832000000001  0.9234065199999998  1.0000
  H   H43       1.0  0.53617195  0.92292618  0.019331899999999992  1.0000
  H   H44       1.0  0.59116851  0.88395882  0.98059281  1.0000
  H   H45       1.0  0.40899674  0.01925513  0.8850510699999998  1.0000
  H   H46       1.0  0.46394442  0.98043288  0.92400727  1.0000
  H   H47       1.0  0.46463076  0.07746465  0.01855685  1.0000
  H   H48       1.0  0.4096753999999999  0.11636658  0.97970483  1.0000
  H   H49       1.0  0.5903279  0.019973130000000006  0.11581561999999997  1.0000
  H   H50       1.0  0.5353165899999998  0.98107763  0.07707019  1.0000
  H   H51       1.0  0.53580503  0.07683766000000003  0.98122483  1.0000
  H   H52       1.0  0.59074297  0.11586408  0.019940959999999994  1.0000
  H   H53       1.0  0.41024504  0.88310356  0.02079838  1.0000
  H   H54       1.0  0.46508148  0.9221333000000003  0.9819747799999998  1.0000
  H   H55       1.0  0.46392884  0.01914925  0.07653738999999997  1.0000
  H   H56       1.0  0.40907115  0.98020486  0.11543977  1.0000
  H   H57       1.0  0.8834055399999998  0.9793825800000002  0.5896302099999998  1.0000
  H   H58       1.0  0.9223722  0.018310620000000003  0.53503834  1.0000
  H   H59       1.0  0.01915034  0.92283847  0.536043  1.0000
  H   H60       1.0  0.9802431499999997  0.8838445100000002  0.5906462399999998  1.0000
  H   H61       1.0  0.02088055  0.88320276  0.4106157299999999  1.0000
  H   H62       1.0  0.9818192899999998  0.92217088  0.46518716999999987  1.0000
  H   H63       1.0  0.07713586  0.01891924  0.4645146  1.0000
  H   H64       1.0  0.11626433999999997  0.9800074300000002  0.4099972  1.0000
  H   H65       1.0  0.11661563999999998  0.020068020000000006  0.58972386  1.0000
  H   H66       1.0  0.07766661999999998  0.9812493200000002  0.53506007  1.0000
  H   H67       1.0  0.9809976299999997  0.07682438  0.53600068  1.0000
  H   H68       1.0  0.01990007  0.11573399000000002  0.5907035699999997  1.0000
  H   H69       1.0  0.97917416  0.11647618000000003  0.41055254  1.0000
  H   H70       1.0  0.01822042  0.07752017  0.46509334  1.0000
  H   H71       1.0  0.9228843099999998  0.9808032200000002  0.46447787  1.0000
  H   H72       1.0  0.8837553899999998  0.01969412  0.4099890399999999  1.0000
  C   C1        1.0  0.8318563899999998  0.71042925  0.88062429  1.0000
  C   C2        1.0  0.8686251099999998  0.6887082100000003  0.8682722399999998  1.0000
  C   C3        1.0  0.88137609  0.70957365  0.8313538399999998  1.0000
  C   C4        1.0  0.70966159  0.88186954  0.8316561799999997  1.0000
  C   C5        1.0  0.68881172  0.86904452  0.86855459  1.0000
  C   C6        1.0  0.71045181  0.8321714900000002  0.88079294  1.0000
  C   C7        1.0  0.88110003  0.8316884100000003  0.7095743599999997  1.0000
  C   C8        1.0  0.8684764999999998  0.86864031  0.68834226  1.0000
  C   C9        1.0  0.8316477399999997  0.88137352  0.70966488  1.0000
  C   C10       1.0  0.83156896  0.2895011  0.1191024  1.0000
  C   C11       1.0  0.86829833  0.31124692  0.13145486  1.0000
  C   C12       1.0  0.8809911499999997  0.29038056  0.1684362  1.0000
  C   C13       1.0  0.70947443  0.11816816000000002  0.16854859  1.0000
  C   C14       1.0  0.68856156  0.1308781  0.13163648  1.0000
  C   C15       1.0  0.7101453199999997  0.16769161  0.11924806999999997  1.0000
  C   C16       1.0  0.88077797  0.16825023  0.29060924  1.0000
  C   C17       1.0  0.8682109999999997  0.13129853000000005  0.31186058  1.0000
  C   C18       1.0  0.83138474  0.11862565  0.29053214  1.0000
  C   C19       1.0  0.16779322  0.7107728800000003  0.11896364999999998  1.0000
  C   C20       1.0  0.13098706  0.68912914  0.13126831  1.0000
  C   C21       1.0  0.11832880999999998  0.7099663900000002  0.16827176  1.0000
  C   C22       1.0  0.29053203  0.8815620900000002  0.16868770999999994  1.0000
  C   C23       1.0  0.3114139  0.8688258  0.13176247  1.0000
  C   C24       1.0  0.2896965  0.8321078800000002  0.11932142  1.0000
  C   C25       1.0  0.11900620999999997  0.83177014  0.2905585099999999  1.0000
  C   C26       1.0  0.13172564  0.86859791  0.3118852699999999  1.0000
  C   C27       1.0  0.16860356  0.8811972100000002  0.29060629  1.0000
  C   C28       1.0  0.16900428  0.29066675  0.87948101  1.0000
  C   C29       1.0  0.13142227000000004  0.3114922  0.8679743099999998  1.0000
  C   C30       1.0  0.11817795  0.28999141  0.8315729299999998  1.0000
  C   C31       1.0  0.2901702  0.1179479  0.83168564  1.0000
  C   C32       1.0  0.31165187  0.13124196  0.86805886  1.0000
  C   C33       1.0  0.29087768  0.16886814000000006  0.87953322  1.0000
  C   C34       1.0  0.11875453  0.16793557000000006  0.7096220499999998  1.0000
  C   C35       1.0  0.13142423  0.1309806  0.68843986  1.0000
  C   C36       1.0  0.16831858  0.11836683  0.7097230599999997  1.0000
  C   C37       1.0  2.4120000000000182e-05  0.99984852  0.50012268  1.0000
  C   C38       1.0  0.9998223399999998  0.50001106  3.772e-05  1.0000
  C   C39       1.0  0.49996295  0.99985422  0.0002456  1.0000
  C   C40       1.0  0.9284938499999997  0.5942474300000002  0.92902141  1.0000
  C   C41       1.0  0.9670334699999997  0.57813389  0.9137222699999997  1.0000
  C   C42       1.0  0.9887906199999997  0.54713981  0.93574901  1.0000
  C   C43       1.0  0.8886302699999998  0.6549435900000002  0.88873038  1.0000
  C   C44       1.0  0.93503244  0.54711463  0.9889393199999997  1.0000
  C   C45       1.0  0.91292797  0.57810835  0.9672368299999998  1.0000
  C   C46       1.0  0.90668613  0.62636671  0.90712991  1.0000
  C   C47       1.0  0.9731162699999998  0.53063984  0.97350055  1.0000
  C   C48       1.0  0.92803735  0.40591228  0.07083708  1.0000
  C   C49       1.0  0.9125770399999997  0.42228169  0.03265123  1.0000
  C   C50       1.0  0.93482565  0.4532279  0.01104965  1.0000
  C   C51       1.0  0.88826215  0.3450565200000001  0.11098461  1.0000
  C   C52       1.0  0.98842736  0.45290929  0.06434628  1.0000
  C   C53       1.0  0.9665408899999998  0.4219414300000001  0.08625712  1.0000
  C   C54       1.0  0.9062186999999998  0.37369706  0.09260932999999998  1.0000
  C   C55       1.0  0.9729549499999998  0.46950655000000013  0.0265369  1.0000
  C   C56       1.0  0.07105783999999997  0.59461965  0.07062621  1.0000
  C   C57       1.0  0.08663871  0.57822091  0.03251035  1.0000
  C   C58       1.0  0.06461397  0.54705636  0.01100819  1.0000
  C   C59       1.0  0.11090193  0.65543626  0.11075644  1.0000
  C   C60       1.0  0.010884869999999996  0.54734816  0.06419042  1.0000
  C   C61       1.0  0.032558809999999994  0.5785271700000002  0.08600584  1.0000
  C   C62       1.0  0.09283366  0.62687143  0.09237809  1.0000
  C   C63       1.0  0.02656662  0.53061638  0.0265211  1.0000
  C   C64       1.0  0.07111771  0.4057176700000001  0.9288657499999998  1.0000
  C   C65       1.0  0.08670119  0.42188182  0.96706621  1.0000
  C   C66       1.0  0.06463187  0.45287961  0.98882014  1.0000
  C   C67       1.0  0.11121547999999998  0.34509921  0.88857606  1.0000
  C   C68       1.0  0.010838899999999997  0.45289639  0.93570437  1.0000
  C   C69       1.0  0.03256598  0.42190163000000014  0.91362488  1.0000
  C   C70       1.0  0.09298115  0.3735995400000001  0.90695084  1.0000
  C   C71       1.0  0.02651364  0.4693713200000001  0.9734812299999998  1.0000
  C   C72       1.0  0.59440957  0.9287374500000002  0.92949443  1.0000
  C   C73       1.0  0.57799166  0.96708899  0.91396996  1.0000
  C   C74       1.0  0.54689367  0.98876019  0.93588553  1.0000
  C   C75       1.0  0.6551053  0.8890278600000002  0.88910199  1.0000
  C   C76       1.0  0.5474176999999998  0.9353217500000002  0.98945491  1.0000
  C   C77       1.0  0.57850462  0.9132959  0.9678548  1.0000
  C   C78       1.0  0.6265562  0.90698967  0.90761947  1.0000
  C   C79       1.0  0.5306041699999999  0.9731753900000002  0.97376458  1.0000
  C   C80       1.0  0.40561628  0.07094781  0.9292350299999997  1.0000
  C   C81       1.0  0.4215737099999999  0.03221708  0.9141495499999998  1.0000
  C   C82       1.0  0.4526238399999999  0.010555550000000004  0.9361620699999997  1.0000
  C   C83       1.0  0.3451750899999999  0.11101778000000002  0.888737  1.0000
  C   C84       1.0  0.45300289  0.06472363  0.98897665  1.0000
  C   C85       1.0  0.42194015  0.08672788  0.96729284  1.0000
  C   C86       1.0  0.3735831999999999  0.09281513  0.90725802  1.0000
  C   C87       1.0  0.4693499399999999  0.02650134000000001  0.97370797  1.0000
  C   C88       1.0  0.5942117  0.07102101  0.07096311  1.0000
  C   C89       1.0  0.57796175  0.03262427  0.0864799  1.0000
  C   C90       1.0  0.5468930699999998  0.01093978  0.06458869  1.0000
  C   C91       1.0  0.65486102  0.11084215  0.11119676  1.0000
  C   C92       1.0  0.54715656  0.06444573000000003  0.011064169999999996  1.0000
  C   C93       1.0  0.57820128  0.08649275  0.03264429999999999  1.0000
  C   C94       1.0  0.62631482  0.09281385  0.09279472999999998  1.0000
  C   C95       1.0  0.53051363  0.026549820000000005  0.0267386  1.0000
  C   C96       1.0  0.4059434  0.92857322  0.07121131999999997  1.0000
  C   C97       1.0  0.4223849899999999  0.9127670800000002  0.03321205  1.0000
  C   C98       1.0  0.4533566299999999  0.93484865  0.011536759999999997  1.0000
  C   C99       1.0  0.34520037  0.8887921300000002  0.11138111999999997  1.0000
  C   C100      1.0  0.4527253199999999  0.9890217000000002  0.06437258  1.0000
  C   C101      1.0  0.42175682  0.96729833  0.08636403  1.0000
  C   C102      1.0  0.3737813399999999  0.9068201700000003  0.09303145999999997  1.0000
  C   C103      1.0  0.46947712  0.9731270300000002  0.026810269999999994  1.0000
  C   C104      1.0  0.9287277199999998  0.9285275800000002  0.59394336  1.0000
  C   C105      1.0  0.91302477  0.9668042800000002  0.57753807  1.0000
  C   C106      1.0  0.93509657  0.98854721  0.54667658  1.0000
  C   C107      1.0  0.88866034  0.88874233  0.65460102  1.0000
  C   C108      1.0  0.98910067  0.93524721  0.5472449599999998  1.0000
  C   C109      1.0  0.96736887  0.91317398  0.5781108099999998  1.0000
  C   C110      1.0  0.9069028199999998  0.9067871500000002  0.62604333  1.0000
  C   C111      1.0  0.9733256  0.97311454  0.5305473799999998  1.0000
  C   C112      1.0  0.07162346  0.92856504  0.4064191399999999  1.0000
  C   C113      1.0  0.03337892  0.91283226  0.42274658  1.0000
  C   C114      1.0  0.01154848  0.93490028  0.45358676999999986  1.0000
  C   C115      1.0  0.11161283999999998  0.88873593  0.34567223  1.0000
  C   C116      1.0  0.06474162  0.98890913  0.4532145499999999  1.0000
  C   C117      1.0  0.08690614999999997  0.96717095  0.4223938899999999  1.0000
  C   C118      1.0  0.09344487  0.90682865  0.37427249  1.0000
  C   C119      1.0  0.026839999999999992  0.97315115  0.4697493299999999  1.0000
  C   C120      1.0  0.07132628  0.07097091  0.5940287599999998  1.0000
  C   C121      1.0  0.08702211  0.03269726  0.5776065899999998  1.0000
  C   C122      1.0  0.0649531  0.01101554  0.54670728  1.0000
  C   C123      1.0  0.11125863  0.1107804  0.6547471599999998  1.0000
  C   C124      1.0  0.011024799999999996  0.06439835  0.54723461  1.0000
  C   C125      1.0  0.03274405  0.08640721  0.57814493  1.0000
  C   C126      1.0  0.09310114999999997  0.09269643  0.62617086  1.0000
  C   C127      1.0  0.026757499999999993  0.02651382  0.53054871  1.0000
  C   C128      1.0  0.92837298  0.07118198  0.40635678  1.0000
  C   C129      1.0  0.96663639  0.08686679  0.4226906199999999  1.0000
  C   C130      1.0  0.98847214  0.06479719  0.45353843  1.0000
  C   C131      1.0  0.88838084  0.11113287  0.34563719  1.0000
  C   C132      1.0  0.9352834  0.01082294  0.4531949499999999  1.0000
  C   C133      1.0  0.9131135499999998  0.0325662  0.4223595999999999  1.0000
  C   C134      1.0  0.90653118  0.09297393  0.37422243  1.0000
  C   C135      1.0  0.9731839499999998  0.0265635  0.4697517  1.0000
  N   N1        1.0  0.8543441999999998  0.74116757  0.8227256299999998  1.0000
  N   N2        1.0  0.82369445  0.7416876  0.8532378799999998  1.0000
  N   N3        1.0  0.74165365  0.8240176700000003  0.8533759799999998  1.0000
  N   N4        1.0  0.7411856699999998  0.8547789100000002  0.82293474  1.0000
  N   N5        1.0  0.82331465  0.8541758800000002  0.7410049299999998  1.0000
  N   N6        1.0  0.8539526499999998  0.82340224  0.7409457199999998  1.0000
  N   N7        1.0  0.8539949299999998  0.25879204  0.17709068  1.0000
  N   N8        1.0  0.8233893199999998  0.25826373  0.14650971  1.0000
  N   N9        1.0  0.74137183  0.17592898  0.14661115  1.0000
  N   N10       1.0  0.74096588  0.14526285  0.17715856  1.0000
  N   N11       1.0  0.8230296299999997  0.14581970000000005  0.25917441  1.0000
  N   N12       1.0  0.85363443  0.17657410000000007  0.25920858  1.0000
  N   N13       1.0  0.14541527999999995  0.7414585100000002  0.17696237  1.0000
  N   N14       1.0  0.17604747999999995  0.74194236  0.14641548  1.0000
  N   N15       1.0  0.25842607  0.82394862  0.14665804  1.0000
  N   N16       1.0  0.25893904  0.85456144  0.17724202  1.0000
  N   N17       1.0  0.17685080999999994  0.85405831  0.2591877299999999  1.0000
  N   N18       1.0  0.14612212  0.82343642  0.25915157  1.0000
  N   N19       1.0  0.1456756  0.25892245000000014  0.8224656399999998  1.0000
  N   N20       1.0  0.1771691  0.25934161  0.85214575  1.0000
  N   N21       1.0  0.2595647699999999  0.17700907  0.8522005499999997  1.0000
  N   N22       1.0  0.25912784  0.14546146  0.82255719  1.0000
  N   N23       1.0  0.1766297  0.14562059  0.74101337  1.0000
  N   N24       1.0  0.14592052999999994  0.17633096  0.74095126  1.0000
