data_image0
_chemical_formula_structural       H16Pb4C36O24
_chemical_formula_sum              "H16 Pb4 C36 O24"
_cell_length_a       6.99613599
_cell_length_b       9.24124139
_cell_length_c       20.04375862
_cell_angle_alpha    73.10053665
_cell_angle_beta     79.95706877
_cell_angle_gamma    67.76462902

_symmetry_space_group_name_H-M    'P 1'
_symmetry_Int_Tables_number       1

loop_
  _symmetry_equiv_pos_as_xyz
  'x,y,z'

loop_
  _atom_site_type_symbol
  _atom_site_label
  _atom_site_symmetry_multiplicity
  _atom_site_fract_x
  _atom_site_fract_y
  _atom_site_fract_z
  _atom_site_occupancy
  H   H1        1.0  0.50699594  0.261342  0.48018934  1.0000
  H   H2        1.0  0.24808611  0.23915303  0.019761369999999997  1.0000
  H   H3        1.0  0.49301621000000007  0.7386461999999999  0.51980272  1.0000
  H   H4        1.0  0.7518922900000002  0.7608619500000001  0.9802564799999998  1.0000
  H   H5        1.0  0.7265536700000002  0.95862883  0.5522121399999999  1.0000
  H   H6        1.0  0.23704432  0.5418574799999999  0.94765977  1.0000
  H   H7        1.0  0.27343865999999994  0.04136784999999998  0.44777862  1.0000
  H   H8        1.0  0.7629783899999999  0.45812997  0.05234221  1.0000
  H   H9        1.0  0.21669379999999988  0.49640839000000003  0.5935936  1.0000
  H   H10       1.0  0.30766598  0.003649750000000154  0.9062304599999997  1.0000
  H   H11       1.0  0.78330717  0.50359497  0.40640379999999987  1.0000
  H   H12       1.0  0.6923086299999999  0.9963637900000001  0.09377482  1.0000
  H   H13       1.0  0.07992948999999999  0.75904969  0.38119088999999995  1.0000
  H   H14       1.0  0.22024420999999983  0.7413550800000003  0.11864123  1.0000
  H   H15       1.0  0.9200739700000001  0.24093847  0.61880171  1.0000
  H   H16       1.0  0.77972513  0.2586540200000001  0.8813594199999999  1.0000
  Pb  Pb1       1.0  0.8166335300000003  0.8062647300000002  0.8011807199999997  1.0000
  Pb  Pb2       1.0  0.4242265199999999  0.6932881300000001  0.6988859099999999  1.0000
  Pb  Pb3       1.0  0.18342408000000002  0.19370339999999997  0.19882345  1.0000
  Pb  Pb4       1.0  0.5757907  0.30673701999999997  0.30110835  1.0000
  C   C1        1.0  0.8929857  0.8761187  0.46114389  1.0000
  C   C2        1.0  0.23048649000000002  0.62423677  0.03871235  1.0000
  C   C3        1.0  0.10700785999999997  0.12387530000000002  0.5388506099999999  1.0000
  C   C4        1.0  0.76951278  0.3757672100000001  0.96129256  1.0000
  C   C5        1.0  0.85038561  0.86281247  0.5330301  1.0000
  C   C6        1.0  0.24633057999999997  0.6375260000000001  0.96683436  1.0000
  C   C7        1.0  0.1495993  0.13718776000000002  0.4669611799999999  1.0000
  C   C8        1.0  0.7536761399999999  0.36247436  0.03317104  1.0000
  C   C9        1.0  0.9687153499999999  0.72734306  0.5805573699999999  1.0000
  C   C10       1.0  0.2770011599999999  0.7728638200000001  0.9193178399999999  1.0000
  C   C11       1.0  0.03127367999999995  0.2726608900000001  0.41943220999999997  1.0000
  C   C12       1.0  0.7229975199999997  0.22714145000000008  0.08068595999999997  1.0000
  C   C13       1.0  0.12536743999999994  0.6019796800000001  0.55642937  1.0000
  C   C14       1.0  0.2843854099999998  0.89819536  0.94342481  1.0000
  C   C15       1.0  0.8746321199999996  0.39802032000000015  0.44356503  1.0000
  C   C16       1.0  0.71559693  0.10181077  0.05658338999999999  1.0000
  C   C17       1.0  0.16223743000000004  0.6125909200000001  0.4845094299999999  1.0000
  C   C18       1.0  0.25966368000000006  0.8877052  0.015343  1.0000
  C   C19       1.0  0.8377676999999998  0.38740318000000007  0.51548384  1.0000
  C   C20       1.0  0.74031153  0.11229743000000014  0.9846640699999998  1.0000
  C   C21       1.0  0.04821332000000002  0.75053125  0.43706496  1.0000
  C   C22       1.0  0.2360746999999999  0.7498174700000001  0.06278444999999998  1.0000
  C   C23       1.0  0.95178426  0.24946031  0.56293009  1.0000
  C   C24       1.0  0.7639025199999997  0.25019355  0.93722246  1.0000
  C   C25       1.0  0.7741105  0.023531570000000075  0.41003374999999986  1.0000
  C   C26       1.0  0.20788355  0.47682879  0.08989769999999997  1.0000
  C   C27       1.0  0.22590617  0.97646593  0.5899618899999999  1.0000
  C   C28       1.0  0.7921331200000001  0.52315927  0.9101120699999999  1.0000
  C   C29       1.0  0.927646  0.72057343  0.6569116099999999  1.0000
  C   C30       1.0  0.30547252999999996  0.7794942400000001  0.8430065299999999  1.0000
  C   C31       1.0  0.07233249999999997  0.27944735000000004  0.34307707  1.0000
  C   C32       1.0  0.6945302999999998  0.22050508000000002  0.15699672999999997  1.0000
  C   C33       1.0  0.3205200799999998  0.4807599900000001  0.45568891999999994  1.0000
  C   C34       1.0  0.25706598  0.019565149999999996  0.04421208  1.0000
  C   C35       1.0  0.67949001  0.51923281  0.54430571  1.0000
  C   C36       1.0  0.7429160899999996  0.98042878  0.95579911  1.0000
  O   O1        1.0  0.6309252699999999  0.13801107000000012  0.4321905299999999  1.0000
  O   O2        1.0  0.20073332000000002  0.36242849  0.06778884999999998  1.0000
  O   O3        1.0  0.36907224999999994  0.8619773200000002  0.56779892  1.0000
  O   O4        1.0  0.7992784000000002  0.63755452  0.9322243299999999  1.0000
  O   O5        1.0  0.8191853299999998  0.032729640000000004  0.34473247  1.0000
  O   O6        1.0  0.19749208  0.46757852000000005  0.15518609  1.0000
  O   O7        1.0  0.18085894999999988  0.9672967  0.65526197  1.0000
  O   O8        1.0  0.8025536399999998  0.5324095300000001  0.8448238799999999  1.0000
  O   O9        1.0  0.7407728799999999  0.7884274600000002  0.6796122699999999  1.0000
  O   O10       1.0  0.20935807000000006  0.7113511800000002  0.8203786799999998  1.0000
  O   O11       1.0  0.25919935999999993  0.21158148  0.32037474  1.0000
  O   O12       1.0  0.7906313499999997  0.2886553  0.17962505  1.0000
  O   O13       1.0  0.07611194000000004  0.65303315  0.69686196  1.0000
  O   O14       1.0  0.4260859900000002  0.84714466  0.80297444  1.0000
  O   O15       1.0  0.9238610699999996  0.34703185000000014  0.30312769  1.0000
  O   O16       1.0  0.5739273399999999  0.15283788000000004  0.19702921999999995  1.0000
  O   O17       1.0  0.4096826999999998  0.3477743900000001  0.5039124099999999  1.0000
  O   O18       1.0  0.26094331000000004  0.15271723000000006  0.9960153199999999  1.0000
  O   O19       1.0  0.59033696  0.6522197000000001  0.49608096999999995  1.0000
  O   O20       1.0  0.73902892  0.8472857100000002  0.004003359999999999  1.0000
  O   O21       1.0  0.3620482099999999  0.4961627900000001  0.39187692  1.0000
  O   O22       1.0  0.2503805999999999  0.004085359999999999  0.10802234  1.0000
  O   O23       1.0  0.6379645199999999  0.5038241300000003  0.6081162599999999  1.0000
  O   O24       1.0  0.74962277  0.9958967900000001  0.89198647  1.0000
