data_image0
_chemical_formula_structural       Pr8Cu20H128C168I16N28O64
_chemical_formula_sum              "Pr8 Cu20 H128 C168 I16 N28 O64"
_cell_length_a       9.2655305
_cell_length_b       20.92912688
_cell_length_c       30.41785743
_cell_angle_alpha    90.00014862
_cell_angle_beta     89.99985249
_cell_angle_gamma    89.99962693

_space_group_name_H-M_alt    "P 1"
_space_group_IT_number       1

loop_
  _space_group_symop_operation_xyz
  'x, y, z'

loop_
  _atom_site_type_symbol
  _atom_site_label
  _atom_site_symmetry_multiplicity
  _atom_site_fract_x
  _atom_site_fract_y
  _atom_site_fract_z
  _atom_site_occupancy
  Pr  Pr1       1.0  0.99973936  0.08801366  0.9933868700000003  1.0000
  Pr  Pr2       1.0  0.50027668  0.91198474  0.4933838200000001  1.0000
  Pr  Pr3       1.0  0.0002731  0.5880145  0.5066128  1.0000
  Pr  Pr4       1.0  0.49972225  0.41198494  0.006613060000000001  1.0000
  Pr  Pr5       1.0  0.47287031000000007  0.10595401999999998  0.9955805500000002  1.0000
  Pr  Pr6       1.0  0.02712634  0.8940463200000001  0.49558368  1.0000
  Pr  Pr7       1.0  0.52710843  0.60595285  0.50441686  1.0000
  Pr  Pr8       1.0  0.9728847199999999  0.39404467000000004  0.004416120000000002  1.0000
  Cu  Cu1       1.0  0.52824244  0.36858887  0.7349223600000002  1.0000
  Cu  Cu2       1.0  0.9717574099999999  0.63141525  0.23491843000000007  1.0000
  Cu  Cu3       1.0  0.47176697  0.8685826300000001  0.7650781400000002  1.0000
  Cu  Cu4       1.0  0.02824564  0.13141684  0.2650805800000001  1.0000
  Cu  Cu5       1.0  0.29480247  0.29384506  0.74292525  1.0000
  Cu  Cu6       1.0  0.20520061  0.70615193  0.24292331000000006  1.0000
  Cu  Cu7       1.0  0.70520697  0.7938424200000002  0.7570731400000003  1.0000
  Cu  Cu8       1.0  0.79479594  0.20615175  0.25707484  1.0000
  Cu  Cu9       1.0  0.26855419999999997  0.25167644  0.6645288400000001  1.0000
  Cu  Cu10      1.0  0.23144198  0.74831786  0.16452893000000005  1.0000
  Cu  Cu11      1.0  0.73145477  0.75168119  0.83547441  1.0000
  Cu  Cu12      1.0  0.76854964  0.24831853  0.33547226  1.0000
  Cu  Cu13      1.0  0.2277657  0.17527687  0.7248183700000002  1.0000
  Cu  Cu14      1.0  0.27225047999999996  0.82471814  0.22482152000000005  1.0000
  Cu  Cu15      1.0  0.77223253  0.67527745  0.77518277  1.0000
  Cu  Cu16      1.0  0.72775944  0.32472061  0.27518145  1.0000
  Cu  Cu17      1.0  0.02299119  0.09033718  0.7317245200000001  1.0000
  Cu  Cu18      1.0  0.47701522  0.90966264  0.23172766000000006  1.0000
  Cu  Cu19      1.0  0.97701261  0.59034192  0.76827286  1.0000
  Cu  Cu20      1.0  0.5229934499999999  0.40966281  0.26827448  1.0000
  H   H1        1.0  0.98961574  0.15821565  0.8903563400000002  1.0000
  H   H2        1.0  0.51040225  0.84177855  0.3903600600000001  1.0000
  H   H3        1.0  0.0103903  0.65821923  0.6096398400000003  1.0000
  H   H4        1.0  0.4896085  0.34178156  0.10963867000000002  1.0000
  H   H5        1.0  0.10335172  0.14556552  0.8156666800000002  1.0000
  H   H6        1.0  0.39665722999999997  0.85442363  0.3156707600000001  1.0000
  H   H7        1.0  0.89665342  0.64557352  0.6843294800000003  1.0000
  H   H8        1.0  0.60335118  0.3544285  0.18432831000000005  1.0000
  H   H9        1.0  0.72298132  0.07273636  0.76383727  1.0000
  H   H10       1.0  0.77702369  0.9272559300000001  0.26383567  1.0000
  H   H11       1.0  0.27702056999999997  0.57274108  0.7361643500000002  1.0000
  H   H12       1.0  0.22298581  0.4272578  0.23616354000000006  1.0000
  H   H13       1.0  0.59587327  0.08339598  0.8355840000000002  1.0000
  H   H14       1.0  0.9041279  0.91660231  0.33558195000000013  1.0000
  H   H15       1.0  0.40413277999999997  0.5834015  0.66441829  1.0000
  H   H16       1.0  0.09587204  0.41659901000000005  0.16441921000000007  1.0000
  H   H17       1.0  0.9284476599999999  0.9488651  0.9126666600000002  1.0000
  H   H18       1.0  0.57155719  0.05114351  0.4126699100000001  1.0000
  H   H19       1.0  0.07153252  0.44885299000000006  0.5873320100000002  1.0000
  H   H20       1.0  0.42842869  0.55114246  0.0873306  1.0000
  H   H21       1.0  0.92533054  0.85906336  0.8565949200000003  1.0000
  H   H22       1.0  0.57467369  0.14094075  0.35659865000000013  1.0000
  H   H23       1.0  0.07466066  0.35905049  0.6434032700000002  1.0000
  H   H24       1.0  0.42530655  0.64094183  0.14340103000000007  1.0000
  H   H25       1.0  0.52119529  0.79964969  0.8977774100000002  1.0000
  H   H26       1.0  0.97880537  0.20035314000000004  0.39777698  1.0000
  H   H27       1.0  0.4788173  0.2996484  0.60222724  1.0000
  H   H28       1.0  0.0211794  0.70035427  0.10222149000000003  1.0000
  H   H29       1.0  0.50401783  0.8893774000000001  0.9528619200000003  1.0000
  H   H30       1.0  0.99598776  0.11062706  0.45286066000000014  1.0000
  H   H31       1.0  0.49597833  0.38937777000000007  0.54714355  1.0000
  H   H32       1.0  0.00399185  0.61062709  0.04713930000000001  1.0000
  H   H33       1.0  0.85583988  0.95399913  0.11669709000000003  1.0000
  H   H34       1.0  0.64415017  0.04599403  0.61670266  1.0000
  H   H35       1.0  0.14414655  0.45400273  0.38330085000000014  1.0000
  H   H36       1.0  0.3558478  0.54599957  0.8833022000000003  1.0000
  H   H37       1.0  0.73507635  0.8935788400000001  0.1774821  1.0000
  H   H38       1.0  0.7649045599999998  0.10641073  0.6774889900000002  1.0000
  H   H39       1.0  0.26490666  0.39358521  0.32251441  1.0000
  H   H40       1.0  0.23509036  0.60641256  0.8225136700000001  1.0000
  H   H41       1.0  0.38666019999999995  0.01815773  0.17748902  1.0000
  H   H42       1.0  0.11333803  0.98184666  0.67748773  1.0000
  H   H43       1.0  0.6133348  0.51815655  0.32250913  1.0000
  H   H44       1.0  0.88666541  0.48184599  0.8225106700000002  1.0000
  H   H45       1.0  0.49242727999999997  0.08194941  0.11525093000000003  1.0000
  H   H46       1.0  0.00756931  0.9180533100000001  0.6152505900000003  1.0000
  H   H47       1.0  0.50755815  0.58194592  0.3847466800000001  1.0000
  H   H48       1.0  0.9924275  0.41805256  0.88474934  1.0000
  H   H49       1.0  0.4353323  0.16594967  0.8793548100000003  1.0000
  H   H50       1.0  0.06466533  0.83405118  0.37935156000000003  1.0000
  H   H51       1.0  0.56465959  0.66595265  0.6206433600000002  1.0000
  H   H52       1.0  0.93533043  0.3340496  0.12064748000000003  1.0000
  H   H53       1.0  0.45687454  0.20548005  0.80137104  1.0000
  H   H54       1.0  0.0431356  0.7945133500000001  0.30136906  1.0000
  H   H55       1.0  0.54312324  0.70548577  0.69862654  1.0000
  H   H56       1.0  0.9568672  0.29451534  0.19863024000000004  1.0000
  H   H57       1.0  0.10607771  0.32605513  0.8162109200000001  1.0000
  H   H58       1.0  0.39393879  0.67394167  0.31620943  1.0000
  H   H59       1.0  0.89392802  0.8260526200000001  0.6837868700000003  1.0000
  H   H60       1.0  0.60607011  0.17394271  0.18378801  1.0000
  H   H61       1.0  0.06103652999999999  0.28773984  0.8935861800000002  1.0000
  H   H62       1.0  0.43896745000000004  0.71226155  0.3935850500000001  1.0000
  H   H63       1.0  0.9389578799999999  0.78773786  0.6064118800000002  1.0000
  H   H64       1.0  0.56103117  0.21226291000000003  0.10641410000000003  1.0000
  H   H65       1.0  0.83809753  0.2733391  0.8574679300000002  1.0000
  H   H66       1.0  0.66192936  0.72667218  0.35746836  1.0000
  H   H67       1.0  0.16192732  0.77333663  0.64252977  1.0000
  H   H68       1.0  0.33806905  0.22667049  0.14252983000000005  1.0000
  H   H69       1.0  0.73895721  0.28198208  0.7814688700000002  1.0000
  H   H70       1.0  0.76105413  0.71803082  0.2814682200000001  1.0000
  H   H71       1.0  0.26106103  0.78197484  0.7185295  1.0000
  H   H72       1.0  0.23894116999999998  0.21803019  0.21852963000000006  1.0000
  H   H73       1.0  0.47763577  0.43473853000000007  0.81625624  1.0000
  H   H74       1.0  0.02233863  0.56525969  0.31624926  1.0000
  H   H75       1.0  0.5223662  0.9347356600000001  0.6837453600000002  1.0000
  H   H76       1.0  0.97765351  0.06526014  0.18374864000000005  1.0000
  H   H77       1.0  0.56076833  0.43054918000000003  0.8940831900000002  1.0000
  H   H78       1.0  0.9392323499999999  0.56944885  0.39408049  1.0000
  H   H79       1.0  0.43924341  0.9305500800000001  0.6059161100000002  1.0000
  H   H80       1.0  0.06076189  0.06945165  0.10591841  1.0000
  H   H81       1.0  0.9369439700000001  0.4696014  0.64818245  1.0000
  H   H82       1.0  0.56305229  0.5304  0.14818097  1.0000
  H   H83       1.0  0.06306612  0.96960193  0.8518175700000002  1.0000
  H   H84       1.0  0.43695439999999997  0.03040312  0.3518168800000001  1.0000
  H   H85       1.0  0.8249171899999999  0.40070630000000007  0.7057903700000002  1.0000
  H   H86       1.0  0.67507427  0.59929197  0.20579089000000006  1.0000
  H   H87       1.0  0.17509391  0.9007077200000001  0.79420821  1.0000
  H   H88       1.0  0.32493141  0.09929807  0.2942070700000001  1.0000
  H   H89       1.0  0.41216355  0.44678805  0.66382805  1.0000
  H   H90       1.0  0.08783696  0.5532053  0.16383119  1.0000
  H   H91       1.0  0.5878479599999998  0.9467836600000001  0.8361712700000002  1.0000
  H   H92       1.0  0.9121737099999999  0.0532132  0.33617031000000014  1.0000
  H   H93       1.0  0.50941084  0.51500564  0.60249831  1.0000
  H   H94       1.0  0.9905922799999999  0.48498746  0.1024997  1.0000
  H   H95       1.0  0.49060378  0.015003050000000002  0.8975012300000003  1.0000
  H   H96       1.0  0.00941744  0.9849945300000001  0.39750093  1.0000
  H   H97       1.0  0.47895397999999995  0.07914224  0.5654325400000002  1.0000
  H   H98       1.0  0.02105382  0.92085647  0.06543671  1.0000
  H   H99       1.0  0.52104242  0.57914988  0.93456778  1.0000
  H   H100      1.0  0.9789460599999998  0.4208593  0.4345644500000001  1.0000
  H   H101      1.0  0.48129402000000004  0.16991679  0.62079845  1.0000
  H   H102      1.0  0.01871224  0.83007974  0.12080181000000002  1.0000
  H   H103      1.0  0.51870321  0.66992709  0.8792043300000002  1.0000
  H   H104      1.0  0.98128789  0.33008187  0.3791995200000001  1.0000
  H   H105      1.0  0.035403699999999996  0.17126389  0.6276413200000002  1.0000
  H   H106      1.0  0.46460573999999993  0.8287364800000001  0.12764564  1.0000
  H   H107      1.0  0.9645978199999999  0.67126094  0.8723608000000003  1.0000
  H   H108      1.0  0.53539117  0.32873749  0.37235602  1.0000
  H   H109      1.0  0.01644401  0.0778347  0.57537688  1.0000
  H   H110      1.0  0.48357558  0.9221678700000001  0.07538201000000003  1.0000
  H   H111      1.0  0.98355134  0.57783046  0.9246244200000002  1.0000
  H   H112      1.0  0.51641887  0.42216960000000003  0.4246198200000001  1.0000
  H   H113      1.0  0.90222391  0.22600629000000003  0.03791902  1.0000
  H   H114      1.0  0.5977808299999999  0.77399183  0.5379153900000002  1.0000
  H   H115      1.0  0.09777343  0.72600952  0.4620821300000001  1.0000
  H   H116      1.0  0.40222458  0.27399165  0.9620823100000002  1.0000
  H   H117      1.0  0.8015684699999999  0.16452132  0.044735720000000014  1.0000
  H   H118      1.0  0.69843298  0.83547444  0.5447341000000002  1.0000
  H   H119      1.0  0.19842654  0.66452041  0.45526565  1.0000
  H   H120      1.0  0.30156937  0.33547738  0.95526634  1.0000
  H   H121      1.0  0.70970336  0.20543415000000004  0.9794183300000002  1.0000
  H   H122      1.0  0.79030633  0.7945666000000001  0.4794184500000001  1.0000
  H   H123      1.0  0.29028470999999995  0.70543611  0.52057991  1.0000
  H   H124      1.0  0.2097008  0.29456625  0.02058085  1.0000
  H   H125      1.0  0.60568929  0.25106122  0.00798411  1.0000
  H   H126      1.0  0.8943275699999998  0.74894013  0.5079854700000003  1.0000
  H   H127      1.0  0.3943066  0.75105988  0.4920161000000001  1.0000
  H   H128      1.0  0.10568361  0.24893805000000002  0.9920154800000002  1.0000
  C   C1        1.0  0.72130421  0.12393993  0.9144827100000003  1.0000
  C   C2        1.0  0.77873192  0.8760605700000001  0.41447937  1.0000
  C   C3        1.0  0.27871635  0.62393834  0.5855196600000002  1.0000
  C   C4        1.0  0.22127509  0.37606092  0.08552106000000002  1.0000
  C   C5        1.0  0.78517988  0.12081969  0.8689962400000001  1.0000
  C   C6        1.0  0.7148318  0.87917729  0.36899394  1.0000
  C   C7        1.0  0.21483102  0.62082564  0.63100546  1.0000
  C   C8        1.0  0.28517084  0.37918049  0.13100485  1.0000
  C   C9        1.0  0.9284656900000001  0.13950587  0.8627146900000002  1.0000
  C   C10       1.0  0.57154605  0.8604867900000001  0.3627154300000001  1.0000
  C   C11       1.0  0.07153846  0.6395113  0.6372850700000002  1.0000
  C   C12       1.0  0.42847197  0.36049103  0.13728431  1.0000
  C   C13       1.0  0.9910419299999998  0.13264111  0.82161808  1.0000
  C   C14       1.0  0.50897016  0.86735044  0.32162053  1.0000
  C   C15       1.0  0.008952609999999998  0.63264305  0.6783810200000002  1.0000
  C   C16       1.0  0.49104669  0.36735609  0.17837792000000005  1.0000
  C   C17       1.0  0.77893037  0.09199657  0.79245532  1.0000
  C   C18       1.0  0.7210744  0.90799726  0.29245209  1.0000
  C   C19       1.0  0.22107988  0.59200422  0.70754633  1.0000
  C   C20       1.0  0.27893429  0.40799933000000005  0.2075461  1.0000
  C   C21       1.0  0.7083750999999999  0.09789714000000001  0.83266398  1.0000
  C   C22       1.0  0.7916314899999999  0.90210019  0.3326600100000001  1.0000
  C   C23       1.0  0.29163505  0.59790252  0.6673353900000002  1.0000
  C   C24       1.0  0.20837082  0.40209897  0.1673375  1.0000
  C   C25       1.0  0.71127128  0.98189365  0.9667629600000002  1.0000
  C   C26       1.0  0.78875578  0.01811039  0.4667613800000001  1.0000
  C   C27       1.0  0.28873107  0.48188835  0.5332393800000003  1.0000
  C   C28       1.0  0.21125001  0.51810737  0.03323677000000001  1.0000
  C   C29       1.0  0.71644476  0.92497291  0.9367272600000002  1.0000
  C   C30       1.0  0.78355125  0.07503484  0.43672743000000014  1.0000
  C   C31       1.0  0.28354116  0.42496726  0.5632749800000002  1.0000
  C   C32       1.0  0.21641592999999998  0.57503335  0.06327214000000002  1.0000
  C   C33       1.0  0.83725508  0.91615627  0.90986338  1.0000
  C   C34       1.0  0.66275087  0.0838509  0.4098626700000001  1.0000
  C   C35       1.0  0.16273206  0.41614677000000005  0.59013753  1.0000
  C   C36       1.0  0.33722697  0.58385013  0.09013625000000001  1.0000
  C   C37       1.0  0.83597339  0.8669124000000001  0.8793187800000002  1.0000
  C   C38       1.0  0.66402849  0.1330937  0.37932111  1.0000
  C   C39       1.0  0.16401554  0.36690301  0.6206797400000003  1.0000
  C   C40       1.0  0.3359497  0.63309018  0.12067987000000002  1.0000
  C   C41       1.0  0.60927308  0.83361515  0.9023398600000002  1.0000
  C   C42       1.0  0.89072861  0.16638817  0.40233944  1.0000
  C   C43       1.0  0.39072929  0.33361267  0.59766518  1.0000
  C   C44       1.0  0.10925017999999999  0.66638664  0.09766226000000003  1.0000
  C   C45       1.0  0.60037294  0.88277447  0.93285192  1.0000
  C   C46       1.0  0.8996360500000001  0.11723040000000001  0.4328504200000001  1.0000
  C   C47       1.0  0.39962871  0.38277136  0.5671522300000003  1.0000
  C   C48       1.0  0.1003467  0.6172307  0.06714889000000002  1.0000
  C   C49       1.0  0.74907133  0.05785384  0.07288260000000003  1.0000
  C   C50       1.0  0.7509406699999999  0.94214107  0.5728804700000002  1.0000
  C   C51       1.0  0.25092524  0.55785745  0.42711891000000013  1.0000
  C   C52       1.0  0.24906442999999998  0.44214789  0.9271185200000002  1.0000
  C   C53       1.0  0.68210818  0.02238907  0.11081853000000003  1.0000
  C   C54       1.0  0.81788191  0.9776074100000001  0.61081839  1.0000
  C   C55       1.0  0.31787704  0.52239283  0.38918061  1.0000
  C   C56       1.0  0.18210971  0.47760997000000005  0.8891816500000003  1.0000
  C   C57       1.0  0.75110206  0.9691308499999999  0.12911387  1.0000
  C   C58       1.0  0.7488922  0.030864270000000003  0.6291143900000002  1.0000
  C   C59       1.0  0.24888738999999996  0.46913219  0.37088476  1.0000
  C   C60       1.0  0.25111138  0.53087102  0.8708907700000003  1.0000
  C   C61       1.0  0.68486958  0.93585346  0.16306398000000005  1.0000
  C   C62       1.0  0.81512224  0.06414418  0.6630635300000002  1.0000
  C   C63       1.0  0.31512035999999993  0.43585353  0.33693820000000013  1.0000
  C   C64       1.0  0.18488086  0.56414525  0.8369387300000002  1.0000
  C   C65       1.0  0.49062418  0.0056673  0.16300735  1.0000
  C   C66       1.0  0.00936769  0.9943293900000001  0.6630068200000002  1.0000
  C   C67       1.0  0.50936776  0.50567078  0.3369911100000001  1.0000
  C   C68       1.0  0.9906312399999999  0.49433372000000003  0.8369952200000003  1.0000
  C   C69       1.0  0.54932982  0.04081912  0.12861736  1.0000
  C   C70       1.0  0.9506665999999999  0.95918508  0.62861477  1.0000
  C   C71       1.0  0.45065728  0.54081334  0.3713854300000001  1.0000
  C   C72       1.0  0.04933069  0.45918987  0.8713852300000002  1.0000
  C   C73       1.0  0.22506647  0.19822854000000004  0.9375059600000002  1.0000
  C   C74       1.0  0.27492526999999994  0.80176919  0.43750512000000014  1.0000
  C   C75       1.0  0.77493682  0.69822974  0.56249062  1.0000
  C   C76       1.0  0.72506772  0.30177181  0.06249419000000001  1.0000
  C   C77       1.0  0.24368603  0.22264703  0.89156651  1.0000
  C   C78       1.0  0.25631797  0.77734957  0.39156532  1.0000
  C   C79       1.0  0.7563201299999999  0.72264798  0.60843143  1.0000
  C   C80       1.0  0.74367754  0.27735136  0.10843362000000002  1.0000
  C   C81       1.0  0.35874609  0.20046386  0.86601106  1.0000
  C   C82       1.0  0.1412538  0.79953169  0.3660103300000001  1.0000
  C   C83       1.0  0.64124961  0.70046953  0.63398552  1.0000
  C   C84       1.0  0.85874462  0.29953325  0.13398931000000006  1.0000
  C   C85       1.0  0.37188405  0.22270071000000002  0.8232207500000002  1.0000
  C   C86       1.0  0.12812807  0.7772980200000001  0.323219  1.0000
  C   C87       1.0  0.62811024  0.72270467  0.67677653  1.0000
  C   C88       1.0  0.87187391  0.27729493  0.17678093  1.0000
  C   C89       1.0  0.17375132  0.28951316  0.8313812300000002  1.0000
  C   C90       1.0  0.3262521  0.71048321  0.33138117  1.0000
  C   C91       1.0  0.8262452299999998  0.7895150900000001  0.6686168300000003  1.0000
  C   C92       1.0  0.67374762  0.21048304  0.16861732000000004  1.0000
  C   C93       1.0  0.14971813  0.26834374  0.8740499100000002  1.0000
  C   C94       1.0  0.35028277  0.73165423  0.3740479  1.0000
  C   C95       1.0  0.85027333  0.76834687  0.6259471300000002  1.0000
  C   C96       1.0  0.6497144799999999  0.23165684  0.12595063  1.0000
  C   C97       1.0  0.76888961  0.35131726  0.92815118  1.0000
  C   C98       1.0  0.73110971  0.64868663  0.42815043  1.0000
  C   C99       1.0  0.23111034  0.85131624  0.57184765  1.0000
  C   C100      1.0  0.26887906  0.14868822  0.07184795  1.0000
  C   C101      1.0  0.7082888499999999  0.35178646  0.8823067500000003  1.0000
  C   C102      1.0  0.79172057  0.64822442  0.3823059500000001  1.0000
  C   C103      1.0  0.29173053  0.8517801900000002  0.6176914200000002  1.0000
  C   C104      1.0  0.20827252  0.14822589  0.11769177  1.0000
  C   C105      1.0  0.7581212999999999  0.30978983  0.8497899400000002  1.0000
  C   C106      1.0  0.74187975  0.69021759  0.34978827  1.0000
  C   C107      1.0  0.2418879  0.80978717  0.65020684  1.0000
  C   C108      1.0  0.25811487  0.19021664  0.15020920000000004  1.0000
  C   C109      1.0  0.70361836  0.31459653  0.8073267500000002  1.0000
  C   C110      1.0  0.79639384  0.6854136  0.30732667000000014  1.0000
  C   C111      1.0  0.29640049  0.814591  0.69267102  1.0000
  C   C112      1.0  0.20360517  0.18541297  0.19267145000000005  1.0000
  C   C113      1.0  0.55778898  0.39979527000000004  0.82686048  1.0000
  C   C114      1.0  0.9422068699999999  0.60020633  0.3268591400000001  1.0000
  C   C115      1.0  0.44223400999999996  0.89978972  0.6731397500000003  1.0000
  C   C116      1.0  0.05778692  0.10020796  0.17313849000000006  1.0000
  C   C117      1.0  0.60524535  0.39735036000000007  0.8701264900000002  1.0000
  C   C118      1.0  0.8947501299999999  0.60265475  0.3701245400000001  1.0000
  C   C119      1.0  0.39476472  0.8973457499999999  0.6298734100000002  1.0000
  C   C120      1.0  0.10524793999999997  0.10265607000000002  0.12987212  1.0000
  C   C121      1.0  0.79182201  0.53595734  0.58291466  1.0000
  C   C122      1.0  0.7081694  0.46403999  0.08291689000000002  1.0000
  C   C123      1.0  0.20819877  0.03595372  0.9170859100000002  1.0000
  C   C124      1.0  0.29183091  0.96403772  0.4170833700000001  1.0000
  C   C125      1.0  0.73096216  0.49667444000000005  0.61994684  1.0000
  C   C126      1.0  0.7690365  0.50332207  0.11994745000000002  1.0000
  C   C127      1.0  0.26905617  0.99667257  0.88005159  1.0000
  C   C128      1.0  0.23098245999999997  0.00332828  0.38005133000000013  1.0000
  C   C129      1.0  0.82012177  0.4645641  0.6498676900000002  1.0000
  C   C130      1.0  0.67987017  0.53543444  0.14986842  1.0000
  C   C131      1.0  0.1798938  0.96456333  0.85013101  1.0000
  C   C132      1.0  0.32013753  0.03543933  0.35013042  1.0000
  C   C133      1.0  0.75798947  0.42664293999999997  0.6822766000000002  1.0000
  C   C134      1.0  0.74199679  0.57335477  0.18227637  1.0000
  C   C135      1.0  0.24202125  0.92664234  0.81772203  1.0000
  C   C136      1.0  0.25800387  0.07336258  0.3177238500000001  1.0000
  C   C137      1.0  0.52790757  0.45233182000000005  0.6585301400000002  1.0000
  C   C138      1.0  0.9720907599999999  0.54766388  0.15853231000000007  1.0000
  C   C139      1.0  0.47210493  0.95232779  0.84147183  1.0000
  C   C140      1.0  0.027916749999999997  0.04767101  0.3414688600000001  1.0000
  C   C141      1.0  0.58184282  0.49036385  0.624965  1.0000
  C   C142      1.0  0.91815255  0.50963126  0.12496550000000002  1.0000
  C   C143      1.0  0.41816911999999995  0.99036296  0.8750337500000003  1.0000
  C   C144      1.0  0.08185876  0.00963931  0.37503527  1.0000
  C   C145      1.0  0.24332639999999997  0.01426691  0.53779914  1.0000
  C   C146      1.0  0.25665464  0.98573122  0.03780291  1.0000
  C   C147      1.0  0.75664289  0.51426872  0.96220402  1.0000
  C   C148      1.0  0.74332593  0.48573244000000004  0.4621993600000001  1.0000
  C   C149      1.0  0.24733103  0.07187089  0.5671447800000002  1.0000
  C   C150      1.0  0.25268107999999995  0.9281283  0.0671501  1.0000
  C   C151      1.0  0.75265793  0.57187356  0.93285684  1.0000
  C   C152      1.0  0.74731653  0.42812701000000003  0.43285174  1.0000
  C   C153      1.0  0.37965132  0.09870366000000001  0.57914198  1.0000
  C   C154      1.0  0.12035312999999999  0.90129271  0.07914670000000001  1.0000
  C   C155      1.0  0.6203394  0.59871383  0.9208577200000002  1.0000
  C   C156      1.0  0.8796437899999999  0.40129434  0.42085641000000007  1.0000
  C   C157      1.0  0.38081212  0.14882382  0.6089432700000003  1.0000
  C   C158      1.0  0.11920070999999999  0.85117362  0.10894757000000002  1.0000
  C   C159      1.0  0.61919189  0.6488334  0.8910578300000003  1.0000
  C   C160      1.0  0.88080018  0.35117274  0.39105512  1.0000
  C   C161      1.0  0.13084908  0.14933209  0.6130261600000002  1.0000
  C   C162      1.0  0.3691702  0.8506696599999999  0.11302895000000003  1.0000
  C   C163      1.0  0.8691570899999999  0.64932852  0.88697723  1.0000
  C   C164      1.0  0.63083071  0.35066901  0.3869717600000001  1.0000
  C   C165      1.0  0.12067637999999999  0.09812399  0.58425092  1.0000
  C   C166      1.0  0.37933233999999993  0.90188434  0.08425905000000003  1.0000
  C   C167      1.0  0.87931542  0.59812002  0.91575173  1.0000
  C   C168      1.0  0.62066026  0.40188097  0.41574438  1.0000
  I   I1        1.0  0.52402463  0.24262225999999998  0.7053616500000002  1.0000
  I   I2        1.0  0.97597331  0.75737936  0.20536222000000007  1.0000
  I   I3        1.0  0.47599095  0.74261421  0.7946353400000002  1.0000
  I   I4        1.0  0.02401493  0.25738106  0.29463701  1.0000
  I   I5        1.0  0.25191141999999994  0.41641258000000003  0.7417872300000002  1.0000
  I   I6        1.0  0.24810245999999997  0.58358966  0.24178208000000007  1.0000
  I   I7        1.0  0.74810377  0.91640743  0.75821237  1.0000
  I   I8        1.0  0.75191316  0.08358531  0.25821619  1.0000
  I   I9        1.0  0.01565432  0.24794573000000003  0.7109326  1.0000
  I   I10       1.0  0.48434039  0.75203394  0.21092789000000006  1.0000
  I   I11       1.0  0.9843460699999999  0.74794623  0.7890703200000002  1.0000
  I   I12       1.0  0.51565549  0.25204424  0.28907166  1.0000
  I   I13       1.0  0.30342642  0.06574714  0.74346322  1.0000
  I   I14       1.0  0.19657988999999998  0.93424746  0.24346202  1.0000
  I   I15       1.0  0.6965820499999998  0.56574452  0.7565410200000002  1.0000
  I   I16       1.0  0.80342194  0.43425156  0.2565388500000001  1.0000
  N   N1        1.0  0.9191337899999998  0.10816425  0.78682372  1.0000
  N   N2        1.0  0.58087102  0.89182812  0.2868232  1.0000
  N   N3        1.0  0.08086758  0.60817472  0.7131753300000002  1.0000
  N   N4        1.0  0.41914223  0.39182789999999995  0.21317463  1.0000
  N   N5        1.0  0.72426397  0.8259304300000001  0.8756005800000002  1.0000
  N   N6        1.0  0.77573363  0.17407518  0.37560257000000014  1.0000
  N   N7        1.0  0.27573096  0.3259236  0.6244005000000002  1.0000
  N   N8        1.0  0.22425152  0.67407533  0.12439816000000002  1.0000
  N   N9        1.0  0.55554705  0.95329253  0.18006393000000007  1.0000
  N   N10       1.0  0.9444359899999999  0.04670135  0.6800649900000002  1.0000
  N   N11       1.0  0.44442968  0.45329551  0.3199343300000001  1.0000
  N   N12       1.0  0.05557383  0.5467056  0.81993823  1.0000
  N   N13       1.0  0.28092301  0.26631992  0.8059365700000002  1.0000
  N   N14       1.0  0.2190871  0.73367683  0.30593401  1.0000
  N   N15       1.0  0.71908252  0.76631605  0.6940630900000002  1.0000
  N   N16       1.0  0.78091444  0.23367596999999998  0.19406485000000007  1.0000
  N   N17       1.0  0.6050171399999998  0.35913602  0.7954318400000002  1.0000
  N   N18       1.0  0.8949778899999999  0.64086929  0.29543095  1.0000
  N   N19       1.0  0.39499241  0.8591331200000001  0.7045679800000002  1.0000
  N   N20       1.0  0.10501422  0.14087042  0.20456742000000006  1.0000
  N   N21       1.0  0.6133750099999999  0.41999261  0.6868118200000002  1.0000
  N   N22       1.0  0.8866101399999999  0.58000416  0.18681312000000005  1.0000
  N   N23       1.0  0.38663797  0.9199911  0.8131877900000002  1.0000
  N   N24       1.0  0.11338718999999998  0.08000854  0.3131861200000001  1.0000
  N   N25       1.0  0.2586548  0.17387142  0.62586958  1.0000
  N   N26       1.0  0.24135357000000002  0.82612752  0.12587242  1.0000
  N   N27       1.0  0.74135208  0.67387485  0.8741338600000003  1.0000
  N   N28       1.0  0.75864445  0.32612884  0.3741289000000001  1.0000
  O   O1        1.0  0.80650041  0.13593033  0.9464800100000003  1.0000
  O   O2        1.0  0.6935279  0.86406933  0.4464826300000001  1.0000
  O   O3        1.0  0.19350703  0.63592171  0.55351646  1.0000
  O   O4        1.0  0.30648252  0.36406884  0.05351975000000001  1.0000
  O   O5        1.0  0.587095  0.11433581  0.9189695900000002  1.0000
  O   O6        1.0  0.91292058  0.8856647100000001  0.4189684600000001  1.0000
  O   O7        1.0  0.41290735999999995  0.61434051  0.5810327600000003  1.0000
  O   O8        1.0  0.08708628  0.38566542  0.08103001  1.0000
  O   O9        1.0  0.83164389  0.00471991  0.9783384700000002  1.0000
  O   O10       1.0  0.66833451  0.99527271  0.47834036  1.0000
  O   O11       1.0  0.16831907  0.5047165  0.52166237  1.0000
  O   O12       1.0  0.33162758  0.49527249  0.021658310000000007  1.0000
  O   O13       1.0  0.587891  0.0034153800000000004  0.97689238  1.0000
  O   O14       1.0  0.9120863299999998  0.996593  0.47688322  1.0000
  O   O15       1.0  0.4120709  0.50341127  0.52311602  1.0000
  O   O16       1.0  0.08787465999999998  0.49658919000000007  0.023117750000000006  1.0000
  O   O17       1.0  0.88015299  0.04688184  0.06422940000000003  1.0000
  O   O18       1.0  0.61983642  0.9531225900000001  0.56422476  1.0000
  O   O19       1.0  0.11982755999999999  0.54687917  0.43577406  1.0000
  O   O20       1.0  0.3801577199999999  0.45312428  0.9357696500000002  1.0000
  O   O21       1.0  0.67026938  0.09780445  0.051728320000000015  1.0000
  O   O22       1.0  0.82973417  0.9021994500000001  0.55173  1.0000
  O   O23       1.0  0.32970718  0.59780075  0.4482735900000001  1.0000
  O   O24       1.0  0.17027583  0.40220610000000007  0.9482778000000002  1.0000
  O   O25       1.0  0.90053412  0.17874154  0.03762277000000001  1.0000
  O   O26       1.0  0.59946846  0.82125849  0.5376189000000002  1.0000
  O   O27       1.0  0.09946391  0.67874238  0.4623802700000001  1.0000
  O   O28       1.0  0.4005341  0.32125736  0.9623795500000002  1.0000
  O   O29       1.0  0.09864633  0.1850046  0.9509421900000002  1.0000
  O   O30       1.0  0.40136688  0.81499032  0.45094423  1.0000
  O   O31       1.0  0.9013690199999999  0.68500777  0.5490553600000001  1.0000
  O   O32       1.0  0.59864642  0.31499182  0.04905675  1.0000
  O   O33       1.0  0.33864003  0.1949354  0.96085108  1.0000
  O   O34       1.0  0.16137417999999998  0.80506098  0.4608473800000001  1.0000
  O   O35       1.0  0.66137517  0.69493732  0.5391468100000002  1.0000
  O   O36       1.0  0.83863927  0.30506128  0.03915095  1.0000
  O   O37       1.0  0.6131820799999999  0.21026250999999999  0.9921086100000002  1.0000
  O   O38       1.0  0.8868253400000001  0.7897373300000001  0.49210832  1.0000
  O   O39       1.0  0.38681130999999996  0.71026415  0.50789325  1.0000
  O   O40       1.0  0.11318078  0.28973769  0.00789097  1.0000
  O   O41       1.0  0.69312356  0.37337712  0.95964194  1.0000
  O   O42       1.0  0.8068679499999999  0.6266183  0.4596381300000001  1.0000
  O   O43       1.0  0.30688039  0.87338006  0.54035758  1.0000
  O   O44       1.0  0.19313733  0.12662046  0.04035955  1.0000
  O   O45       1.0  0.89805449  0.33259915  0.9337537400000002  1.0000
  O   O46       1.0  0.6019491  0.66740668  0.43375214  1.0000
  O   O47       1.0  0.10195222  0.83259896  0.5662473500000003  1.0000
  O   O48       1.0  0.39804262  0.16741361  0.06624693000000002  1.0000
  O   O49       1.0  0.92813691  0.53953731  0.57931179  1.0000
  O   O50       1.0  0.5718512899999999  0.46046287  0.07931182000000003  1.0000
  O   O51       1.0  0.07189353  0.03953649  0.9206907600000003  1.0000
  O   O52       1.0  0.42816095  0.96046547  0.42068646000000004  1.0000
  O   O53       1.0  0.70482312  0.56346979  0.55654106  1.0000
  O   O54       1.0  0.7951642  0.4365241  0.05654252000000001  1.0000
  O   O55       1.0  0.29519941  0.06347223  0.9434598800000003  1.0000
  O   O56       1.0  0.2048484  0.93652456  0.4434563800000001  1.0000
  O   O57       1.0  0.35640375  0.00292987  0.5156413700000002  1.0000
  O   O58       1.0  0.14360986  0.99706435  0.01564559  1.0000
  O   O59       1.0  0.6435819  0.50293639  0.9843588100000003  1.0000
  O   O60       1.0  0.8563889  0.49707011  0.4843567000000001  1.0000
  O   O61       1.0  0.12811812  0.98161465  0.5385634100000002  1.0000
  O   O62       1.0  0.37188235  0.01839543  0.03856800000000001  1.0000
  O   O63       1.0  0.87186697  0.48160976  0.9614382800000001  1.0000
  O   O64       1.0  0.62810833  0.51838853  0.4614357400000001  1.0000
