data_image0
_chemical_formula_structural       Mg6H144C165O18
_chemical_formula_sum              "Mg6 H144 C165 O18"
_cell_length_a       6.91102825
_cell_length_b       53.88989576
_cell_length_c       53.88930241
_cell_angle_alpha    119.81790940999998
_cell_angle_beta     92.45045699
_cell_angle_gamma    92.45269457999999

_symmetry_space_group_name_H-M    'P 1'
_symmetry_Int_Tables_number       1

loop_
  _symmetry_equiv_pos_as_xyz
  'x,y,z'

loop_
  _atom_site_type_symbol
  _atom_site_label
  _atom_site_symmetry_multiplicity
  _atom_site_fract_x
  _atom_site_fract_y
  _atom_site_fract_z
  _atom_site_occupancy
  Mg  Mg1       1.0  0.19903431  0.6456341  0.31614168  1.0000
  Mg  Mg2       1.0  0.5535248500000002  0.67050259  0.35437591  1.0000
  Mg  Mg3       1.0  0.8830896  0.68387035  0.3294980599999999  1.0000
  Mg  Mg4       1.0  0.98454094  0.35514463  0.68249646  1.0000
  Mg  Mg5       1.0  0.6294493  0.32733836999999993  0.64485272  1.0000
  Mg  Mg6       1.0  0.30209805999999995  0.31750928999999994  0.67265563  1.0000
  H   H1        1.0  0.67106057  0.37976575  0.6227517799999999  1.0000
  H   H2        1.0  0.2911313  0.24299911999999996  0.62027894  1.0000
  H   H3        1.0  0.04821513  0.37727053999999993  0.75700191  1.0000
  H   H4        1.0  0.66963062  0.40389798  0.528882  1.0000
  H   H5        1.0  0.26556568  0.12498043  0.59609212  1.0000
  H   H6        1.0  0.14093021999999997  0.47110537999999996  0.87503558  1.0000
  H   H7        1.0  0.22398450999999997  0.44539393  0.50244958  1.0000
  H   H8        1.0  0.77856947  0.05705349999999998  0.554619  1.0000
  H   H9        1.0  0.72152467  0.49753225999999995  0.94291556  1.0000
  H   H10       1.0  0.29006186  0.5495278399999999  0.50314444  1.0000
  H   H11       1.0  0.7402533  0.9536490800000001  0.45048109  1.0000
  H   H12       1.0  0.78673652  0.49683218  0.04635109999999999  1.0000
  H   H13       1.0  0.78488439  0.59633424  0.48437433  1.0000
  H   H14       1.0  0.18866250999999984  0.8880240299999996  0.4036247099999999  1.0000
  H   H15       1.0  0.30083593999999997  0.51559597  0.11197797  1.0000
  H   H16       1.0  0.88100444  0.49324134  0.43863835999999995  1.0000
  H   H17       1.0  0.38766957999999996  0.9454034799999997  0.50672905  1.0000
  H   H18       1.0  0.4420493  0.5613115  0.05458312  1.0000
  H   H19       1.0  0.53585331  0.51062309  0.3975305  1.0000
  H   H20       1.0  0.025208149999999967  0.88691706  0.48935535  1.0000
  H   H21       1.0  0.13835661000000002  0.6024539099999999  0.11308495  1.0000
  H   H22       1.0  0.65182575  0.4831123199999999  0.40035000999999987  1.0000
  H   H23       1.0  0.16874555000000002  0.91725362  0.51685153  1.0000
  H   H24       1.0  0.25156361  0.59961275  0.08275014  1.0000
  H   H25       1.0  0.77321958  0.50264242  0.38646104  1.0000
  H   H26       1.0  0.27054095  0.8838299399999998  0.49734757  1.0000
  H   H27       1.0  0.38684315  0.61350893  0.11617031  1.0000
  H   H28       1.0  0.24396329999999997  0.6105144899999999  0.44166172  1.0000
  H   H29       1.0  0.63323714  0.8311835999999999  0.38948072  1.0000
  H   H30       1.0  0.80193739  0.5582994799999998  0.16881150999999997  1.0000
  H   H31       1.0  0.77641167  0.55029859  0.39436556  1.0000
  H   H32       1.0  0.2259614699999999  0.8440789199999997  0.4496879199999999  1.0000
  H   H33       1.0  0.38197926  0.60562418  0.15597739  1.0000
  H   H34       1.0  0.47706883  0.5648093199999998  0.34647607999999996  1.0000
  H   H35       1.0  0.91200992  0.78170352  0.43518834999999995  1.0000
  H   H36       1.0  0.13038446000000004  0.65349907  0.21832907999999995  1.0000
  H   H37       1.0  0.66520223  0.54499367  0.35010887999999996  1.0000
  H   H38       1.0  0.11994101999999995  0.8051597499999998  0.45500337  1.0000
  H   H39       1.0  0.31483544  0.6498462  0.19487176999999997  1.0000
  H   H40       1.0  0.7153771199999999  0.58104765  0.35925311  1.0000
  H   H41       1.0  0.13414097000000005  0.77822643  0.41896399  1.0000
  H   H42       1.0  0.35592541999999994  0.6407313499999999  0.22179795  1.0000
  H   H43       1.0  0.51818952  0.61670035  0.3712006299999999  1.0000
  H   H44       1.0  0.90168295  0.75452444  0.38330584999999995  1.0000
  H   H45       1.0  0.14665721  0.62878088  0.24548000999999997  1.0000
  H   H46       1.0  0.83120714  0.62961619  0.39417190999999996  1.0000
  H   H47       1.0  0.20165284  0.76450474  0.37037878  1.0000
  H   H48       1.0  0.43673064000000006  0.60585817  0.23549404  1.0000
  H   H49       1.0  0.02352765000000002  0.60163  0.40985518  1.0000
  H   H50       1.0  0.4218498799999999  0.8081970499999998  0.39836458  1.0000
  H   H51       1.0  0.61315749  0.59016253  0.19179298999999994  1.0000
  H   H52       1.0  0.4137454  0.57046838  0.47570238  1.0000
  H   H53       1.0  0.84317627  0.90526965  0.4295398199999999  1.0000
  H   H54       1.0  0.93792163  0.52431643  0.09474855  1.0000
  H   H55       1.0  0.22724254  0.59075629  0.47269991  1.0000
  H   H56       1.0  0.6363493199999998  0.8819753799999998  0.40925993  1.0000
  H   H57       1.0  0.7543923700000001  0.52731648  0.11803588  1.0000
  H   H58       1.0  0.45327495  0.60811166  0.49166805  1.0000
  H   H59       1.0  0.84497136  0.8835855499999998  0.391895  1.0000
  H   H60       1.0  0.9613061600000001  0.50831249  0.11639427  1.0000
  H   H61       1.0  0.96656574  0.5750937  0.53483175  1.0000
  H   H62       1.0  0.3914079199999999  0.9597555799999999  0.424911  1.0000
  H   H63       1.0  0.431762  0.46514019  0.04026151  1.0000
  H   H64       1.0  0.88898497  0.60350004  0.52973806  1.0000
  H   H65       1.0  0.28548736000000013  0.92625903  0.39647868  1.0000
  H   H66       1.0  0.35933906  0.47022952  0.07376429  1.0000
  H   H67       1.0  0.12879439  0.59276564  0.52323677  1.0000
  H   H68       1.0  0.5360294399999999  0.93050664  0.40721816  1.0000
  H   H69       1.0  0.60564896  0.47672312999999994  0.06951658  1.0000
  H   H70       1.0  0.97461242  0.47322523  0.51529538  1.0000
  H   H71       1.0  0.50121546  0.04208455000000002  0.5268138  1.0000
  H   H72       1.0  0.45934620999999987  0.48471176  0.9579073199999999  1.0000
  H   H73       1.0  0.65058123  0.49797543999999994  0.47819530999999993  1.0000
  H   H74       1.0  0.15237880999999992  0.9802420499999995  0.50203934  1.0000
  H   H75       1.0  0.17237544  0.52177623  0.01973956  1.0000
  H   H76       1.0  0.6753871299999998  0.47609518999999983  0.4941268599999999  1.0000
  H   H77       1.0  0.19909576999999998  0.01805990999999995  0.5239165299999999  1.0000
  H   H78       1.0  0.18124847000000002  0.50584834  0.98192701  1.0000
  H   H79       1.0  0.7629615599999999  0.46539506999999997  0.46013217  1.0000
  H   H80       1.0  0.29739999000000006  0.99476795  0.53462134  1.0000
  H   H81       1.0  0.30277849  0.53984886  0.00522608  1.0000
  H   H82       1.0  0.61954078  0.52157592  0.53683567  1.0000
  H   H83       1.0  0.09763217999999993  0.01529860999999995  0.4784669999999999  1.0000
  H   H84       1.0  0.08265888999999992  0.46316320999999994  0.9847406299999999  1.0000
  H   H85       1.0  0.5287075  0.55600465  0.55413141  1.0000
  H   H86       1.0  0.97254328  0.9981629099999999  0.44402496  1.0000
  H   H87       1.0  0.9744547  0.44586406  0.00186718  1.0000
  H   H88       1.0  0.59855078  0.54136838  0.51866983  1.0000
  H   H89       1.0  0.056947220000000034  0.97734286  0.45867376  1.0000
  H   H90       1.0  0.07968827  0.48133143  0.022695739999999996  1.0000
  H   H91       1.0  0.59960091  0.49182831000000005  0.59567819  1.0000
  H   H92       1.0  0.1077036  0.10388155  0.50820958  1.0000
  H   H93       1.0  0.004251109999999992  0.40433413999999995  0.89614357  1.0000
  H   H94       1.0  0.32984526000000003  0.54134078  0.58065142  1.0000
  H   H95       1.0  0.78857101  0.03932658999999997  0.45867856999999995  1.0000
  H   H96       1.0  0.7494  0.41935603  0.96067829  1.0000
  H   H97       1.0  0.58252545  0.54155068  0.58820767  1.0000
  H   H98       1.0  0.041084819999999994  0.04667443999999999  0.45847787  1.0000
  H   H99       1.0  0.9945396100000001  0.41178842  0.95333986  1.0000
  H   H100      1.0  0.4142156799999999  0.5349313899999998  0.60843979  1.0000
  H   H101      1.0  0.87938814  0.07352134  0.46508839  1.0000
  H   H102      1.0  0.80596755  0.39156565  0.9264856699999999  1.0000
  H   H103      1.0  0.31955875  0.39599772  0.52867066  1.0000
  H   H104      1.0  0.92365298  0.13266617999999994  0.60402945  1.0000
  H   H105      1.0  0.79101107  0.4713428299999999  0.86731914  1.0000
  H   H106      1.0  0.41542418  0.39486364  0.49824667  1.0000
  H   H107      1.0  0.020727189999999954  0.10337403000000002  0.60514669  1.0000
  H   H108      1.0  0.91735138  0.50175523  0.89661411  1.0000
  H   H109      1.0  0.17179826999999998  0.40302704999999994  0.50532315  1.0000
  H   H110      1.0  0.76888004  0.10229014999999998  0.59700899  1.0000
  H   H111      1.0  0.66663818  0.49467872  0.89769951  1.0000
  H   H112      1.0  0.7091805299999999  0.4303388  0.63045484  1.0000
  H   H113      1.0  0.27863186  0.20012757  0.56967879  1.0000
  H   H114      1.0  0.07843531999999999  0.36955212  0.79985737  1.0000
  H   H115      1.0  0.35728753  0.46930566  0.61303414  1.0000
  H   H116      1.0  0.88800688  0.1437588  0.53063265  1.0000
  H   H117      1.0  0.7442926799999999  0.38692622  0.8562545  1.0000
  H   H118      1.0  0.57839345  0.48580977999999986  0.63386888  1.0000
  H   H119      1.0  0.09297184999999997  0.14808069  0.51418648  1.0000
  H   H120      1.0  0.9446194599999997  0.3661086999999999  0.8519355799999998  1.0000
  H   H121      1.0  0.44517820999999996  0.4598418799999999  0.63854761  1.0000
  H   H122      1.0  0.9855853699999998  0.17873057  0.54012592  1.0000
  H   H123      1.0  0.8067152  0.36142422  0.82128279  1.0000
  H   H124      1.0  0.8840476699999998  0.3500129699999999  0.5436629099999999  1.0000
  H   H125      1.0  0.53385441  0.19366035  0.64998697  1.0000
  H   H126      1.0  0.34032599  0.45634126  0.80634847  1.0000
  H   H127      1.0  0.93930045  0.36664819  0.52312802  1.0000
  H   H128      1.0  0.5725630799999999  0.15649566999999995  0.6333661  1.0000
  H   H129      1.0  0.4161643399999999  0.4768885899999999  0.8435168899999999  1.0000
  H   H130      1.0  0.70201771  0.35137574  0.52021688  1.0000
  H   H131      1.0  0.35054447  0.16884975  0.64863937  1.0000
  H   H132      1.0  0.18173442999999986  0.47978212999999986  0.8311607899999998  1.0000
  H   H133      1.0  0.35431088  0.36209604  0.60034606  1.0000
  H   H134      1.0  0.99200116  0.23822558999999988  0.637899  1.0000
  H   H135      1.0  0.7539203600000001  0.39963434999999986  0.7617722099999998  1.0000
  H   H136      1.0  0.14578257  0.40952551  0.57721822  1.0000
  H   H137      1.0  0.7361843300000002  0.16768539  0.59043766  1.0000
  H   H138      1.0  0.56848925  0.42277362  0.83232262  1.0000
  H   H139      1.0  0.19880769  0.37393385  0.55301652  1.0000
  H   H140      1.0  0.82484691  0.17905644999999998  0.62602599  1.0000
  H   H141      1.0  0.64577309  0.44698165  0.82094063  1.0000
  H   H142      1.0  0.35993917999999997  0.3956334999999999  0.58333768  1.0000
  H   H143      1.0  0.96416123  0.1877225  0.60434928  1.0000
  H   H144      1.0  0.7765174  0.41665230999999997  0.81230314  1.0000
  C   C1        1.0  0.92737623  0.36286107999999995  0.6303969  1.0000
  C   C2        1.0  0.56442378  0.26753696  0.63717507  1.0000
  C   C3        1.0  0.29694725  0.36960937  0.73246596  1.0000
  C   C4        1.0  0.8220377299999999  0.3760525299999999  0.61771561  1.0000
  C   C5        1.0  0.44581681999999995  0.2416709199999999  0.62399087  1.0000
  C   C6        1.0  0.20423890999999994  0.38230126999999997  0.75833067  1.0000
  C   C7        1.0  0.9033608600000002  0.3845345  0.59947002  1.0000
  C   C8        1.0  0.51860159  0.21493686000000006  0.61548686  1.0000
  C   C9        1.0  0.30376986  0.40054544  0.78506372  1.0000
  C   C10       1.0  0.78754356  0.39998164  0.58838178  1.0000
  C   C11       1.0  0.38729245  0.18840550999999997  0.60003203  1.0000
  C   C12       1.0  0.19903068  0.41162493  0.81159587  1.0000
  C   C13       1.0  0.76714526  0.39158567  0.55901293  1.0000
  C   C14       1.0  0.37535783  0.16743257  0.60842542  1.0000
  C   C15       1.0  0.2081884099999999  0.44099180999999993  0.8325759199999998  1.0000
  C   C16       1.0  0.6756764  0.40966845  0.55138571  1.0000
  C   C17       1.0  0.26572593  0.14172445999999994  0.59033749  1.0000
  C   C18       1.0  0.12442416999999992  0.44860584999999986  0.8582923999999998  1.0000
  C   C19       1.0  0.5890522300000001  0.43444966  0.5707876  1.0000
  C   C20       1.0  0.15424458  0.13636083  0.56556995  1.0000
  C   C21       1.0  0.018353199999999997  0.42920028  0.86365534  1.0000
  C   C22       1.0  0.49237421  0.45133144  0.55960019  1.0000
  C   C23       1.0  0.04073856999999998  0.10829206999999998  0.54869033  1.0000
  C   C24       1.0  0.9329081499999999  0.44039861999999996  0.8917243699999999  1.0000
  C   C25       1.0  0.37735206999999993  0.43807418  0.53317295  1.0000
  C   C26       1.0  0.9391593100000001  0.09510806000000001  0.56194863  1.0000
  C   C27       1.0  0.84429424  0.46681944999999997  0.90488357  1.0000
  C   C28       1.0  0.30642339  0.45565587  0.52328684  1.0000
  C   C29       1.0  0.85067493  0.06763840999999994  0.54436144  1.0000
  C   C30       1.0  0.78318123  0.47669875999999994  0.93234631  1.0000
  C   C31       1.0  0.32965691999999996  0.48580672  0.53869341  1.0000
  C   C32       1.0  0.8436928  0.052907409999999995  0.51421154  1.0000
  C   C33       1.0  0.7910149299999996  0.46129616999999995  0.9470914999999998  1.0000
  C   C34       1.0  0.23440744000000002  0.50074676  0.52512485  1.0000
  C   C35       1.0  0.73339696  0.024404350000000005  0.49927283  1.0000
  C   C36       1.0  0.70923959  0.4748607599999999  0.97559375  1.0000
  C   C37       1.0  0.324893  0.52290384  0.52185624  1.0000
  C   C38       1.0  0.80166719  0.9989801  0.47710732  1.0000
  C   C39       1.0  0.80290542  0.47812842  0.00102334  1.0000
  C   C40       1.0  0.21966023  0.53274535  0.50610635  1.0000
  C   C41       1.0  0.68659387  0.9733922099999999  0.46725867  1.0000
  C   C42       1.0  0.71336543  0.49386747  0.02660881  1.0000
  C   C43       1.0  0.032626729999999986  0.52162783  0.49301599  1.0000
  C   C44       1.0  0.51066989  0.9714077799999999  0.47836711  1.0000
  C   C45       1.0  0.53941418  0.50695556  0.02858749  1.0000
  C   C46       1.0  0.9337728000000001  0.53403328  0.47717838  1.0000
  C   C47       1.0  0.39964337  0.9431483299999999  0.46594078  1.0000
  C   C48       1.0  0.45648437  0.52278126  0.056840289999999995  1.0000
  C   C49       1.0  0.90757976  0.56370418  0.4904075399999999  1.0000
  C   C50       1.0  0.34395603999999996  0.92669624  0.4362621599999999  1.0000
  C   C51       1.0  0.41731554  0.50956108  0.07330067  1.0000
  C   C52       1.0  0.80719392  0.57349189  0.4742892  1.0000
  C   C53       1.0  0.23388590000000006  0.90078024  0.42646640999999996  1.0000
  C   C54       1.0  0.33320442  0.52568683  0.09922259  1.0000
  C   C55       1.0  0.7293917199999999  0.5554644399999997  0.44601366999999986  1.0000
  C   C56       1.0  0.17407383999999998  0.8905382399999999  0.44449642  1.0000
  C   C57       1.0  0.28360432  0.55396106  0.10947242999999998  1.0000
  C   C58       1.0  0.75720264  0.52586883  0.43269669  1.0000
  C   C59       1.0  0.23140862999999992  0.90681812  0.47409551  1.0000
  C   C60       1.0  0.32448368  0.56726854  0.09317564999999998  1.0000
  C   C61       1.0  0.8597258  0.51610622  0.44871234  1.0000
  C   C62       1.0  0.34359266  0.93260266  0.48386183  1.0000
  C   C63       1.0  0.41080665  0.55124488  0.06738291  1.0000
  C   C64       1.0  0.6747537  0.5045074999999999  0.40274470999999995  1.0000
  C   C65       1.0  0.17024589999999984  0.8982414199999998  0.49546502999999986  1.0000
  C   C66       1.0  0.27204803  0.59722332  0.10175619  1.0000
  C   C67       1.0  0.61444895  0.56815122  0.43183246  1.0000
  C   C68       1.0  0.04626428  0.86368948  0.43182195  1.0000
  C   C69       1.0  0.18270877  0.56813595  0.13633608  1.0000
  C   C70       1.0  0.45768278  0.58476682  0.44509366999999994  1.0000
  C   C71       1.0  0.8727707600000001  0.86035454  0.4152338  1.0000
  C   C72       1.0  0.01250879000000002  0.55488465  0.13966719  1.0000
  C   C73       1.0  0.3615544299999999  0.59705113  0.4310930399999999  1.0000
  C   C74       1.0  0.76431775  0.8340707599999999  0.40294077999999994  1.0000
  C   C75       1.0  0.930171  0.56888072  0.16593958  1.0000
  C   C76       1.0  0.40616238  0.5929516000000001  0.40414756999999996  1.0000
  C   C77       1.0  0.81312589  0.8112086699999999  0.40701142  1.0000
  C   C78       1.0  0.0016504199999999964  0.59582163  0.18879855999999998  1.0000
  C   C79       1.0  0.5561987499999997  0.5749932  0.39013321999999995  1.0000
  C   C80       1.0  0.9810840899999999  0.8151541199999998  0.42497604999999994  1.0000
  C   C81       1.0  0.16581731999999996  0.60983062  0.18487021  1.0000
  C   C82       1.0  0.6579449599999998  0.5636703699999998  0.40478441999999987  1.0000
  C   C83       1.0  0.09417826999999988  0.8411250599999996  0.43630549999999996  1.0000
  C   C84       1.0  0.25310385  0.59518727  0.15891088999999997  1.0000
  C   C85       1.0  0.6051184699999999  0.56609462  0.35994111  1.0000
  C   C86       1.0  0.03881305999999999  0.79387375  0.43389737  1.0000
  C   C87       1.0  0.24493925  0.64002821  0.20615468  1.0000
  C   C88       1.0  0.28805737  0.6072380499999998  0.39207341999999995  1.0000
  C   C89       1.0  0.6808694699999998  0.7848327999999998  0.39273244  1.0000
  C   C90       1.0  0.89558701  0.6079094999999998  0.21516159999999998  1.0000
  C   C91       1.0  0.36589477  0.61830173  0.37573428  1.0000
  C   C92       1.0  0.7477759599999997  0.75743775  0.38168814  1.0000
  C   C93       1.0  0.98984282  0.6242478899999998  0.24255951  1.0000
  C   C94       1.0  0.25443836  0.63236344  0.36462263  1.0000
  C   C95       1.0  0.62232828  0.73225176  0.3676365199999999  1.0000
  C   C96       1.0  0.88966892  0.63537439  0.26774635  1.0000
  C   C97       1.0  0.05758282000000001  0.63694782  0.37209523  1.0000
  C   C98       1.0  0.4208445999999999  0.7351269199999999  0.36304730999999996  1.0000
  C   C99       1.0  0.68531556  0.6279079899999997  0.26487164  1.0000
  C   C100      1.0  0.98134792  0.6259181999999999  0.38877814999999993  1.0000
  C   C101      1.0  0.35554288  0.76282867  0.37407813  1.0000
  C   C102      1.0  0.59228655  0.61123075  0.23716687  1.0000
  C   C103      1.0  0.09055128999999995  0.6108586299999998  0.39806206999999993  1.0000
  C   C104      1.0  0.47970886999999995  0.7871807999999999  0.3891309899999999  1.0000
  C   C105      1.0  0.69205866  0.60194437  0.21281097999999998  1.0000
  C   C106      1.0  0.93003904  0.65293315  0.36353523  1.0000
  C   C107      1.0  0.27731958  0.71058556  0.34705478  1.0000
  C   C108      1.0  0.56649044  0.63648184  0.28942794  1.0000
  C   C109      1.0  0.38468928999999996  0.58872811  0.47274694  1.0000
  C   C110      1.0  0.79582977  0.88405336  0.41128292  1.0000
  C   C111      1.0  0.91179219  0.52724982  0.11595536  1.0000
  C   C112      1.0  0.9762238799999999  0.58478427  0.521146  1.0000
  C   C113      1.0  0.39143305  0.9363769599999998  0.41519672999999996  1.0000
  C   C114      1.0  0.45516159  0.4788213  0.06363681  1.0000
  C   C115      1.0  0.9433611599999996  0.4990456499999998  0.4957085899999999  1.0000
  C   C116      1.0  0.44404675  0.99668146  0.50096432  1.0000
  C   C117      1.0  0.44759794  0.50427842  0.00330957  1.0000
  C   C118      1.0  0.04547086999999992  0.4899101799999999  0.51223109  1.0000
  C   C119      1.0  0.55533525  0.022341199999999974  0.51011567  1.0000
  C   C120      1.0  0.5332223199999999  0.4877652599999999  0.9776521899999999  1.0000
  C   C121      1.0  0.74747398  0.48409839  0.48143067  1.0000
  C   C122      1.0  0.26313899000000013  0.99735678  0.51591628  1.0000
  C   C123      1.0  0.26600108  0.51854992  0.00262957  1.0000
  C   C124      1.0  0.52858626  0.53595935  0.53346112  1.0000
  C   C125      1.0  0.9923519999999999  0.99753552  0.4640714  1.0000
  C   C126      1.0  0.99500855  0.46653477999999987  0.00249072  1.0000
  C   C127      1.0  0.43045915999999984  0.49906476999999994  0.5660658599999999  1.0000
  C   C128      1.0  0.93132473  0.06701674000000006  0.50095641  1.0000
  C   C129      1.0  0.8646348899999999  0.43393677999999997  0.93299456  1.0000
  C   C130      1.0  0.51441934  0.4814200899999999  0.57508639  1.0000
  C   C131      1.0  0.03283734999999999  0.09369251999999995  0.51860688  1.0000
  C   C132      1.0  0.93959436  0.4249196699999999  0.9063300899999999  1.0000
  C   C133      1.0  0.43975054  0.53090508  0.58679315  1.0000
  C   C134      1.0  0.9089269899999999  0.055903930000000004  0.46911649  1.0000
  C   C135      1.0  0.8531986100000001  0.4132095899999999  0.94410544  1.0000
  C   C136      1.0  0.31888467  0.4063314299999999  0.51555742  1.0000
  C   C137      1.0  0.91261811  0.10922103999999999  0.59369279  1.0000
  C   C138      1.0  0.8034709899999999  0.4844441899999999  0.8907638999999999  1.0000
  C   C139      1.0  0.59527816  0.44152746  0.59992185  1.0000
  C   C140      1.0  0.15347624  0.15841246999999994  0.55848369  1.0000
  C   C141      1.0  0.9953270500000001  0.40006665  0.84159843  1.0000
  C   C142      1.0  0.69852362  0.42449925  0.60788474  1.0000
  C   C143      1.0  0.2737523399999999  0.18339959999999988  0.57551956  1.0000
  C   C144      1.0  0.09048327999999997  0.3921177  0.8165994  1.0000
  C   C145      1.0  0.48839235  0.46538634999999995  0.62242231  1.0000
  C   C146      1.0  0.02309894999999994  0.15705669  0.53459083  1.0000
  C   C147      1.0  0.86603571  0.3775525499999999  0.84295521  1.0000
  C   C148      1.0  0.82772536  0.363442  0.53543284  1.0000
  C   C149      1.0  0.4641420299999999  0.1719969799999999  0.63656519  1.0000
  C   C150      1.0  0.2922791499999999  0.46457399999999993  0.82801099  1.0000
  C   C151      1.0  0.10081549999999988  0.3800063399999999  0.5932196599999999  1.0000
  C   C152      1.0  0.7205741799999998  0.21320286999999993  0.6199985799999999  1.0000
  C   C153      1.0  0.50750188  0.40678595  0.7868003  1.0000
  C   C154      1.0  0.20293788000000001  0.36613997  0.60486496  1.0000
  C   C155      1.0  0.83661205  0.23871202000000002  0.63387931  1.0000
  C   C156      1.0  0.5980162899999998  0.39513075999999997  0.7612909499999999  1.0000
  C   C157      1.0  0.12345768999999997  0.35723678999999997  0.6229619  1.0000
  C   C158      1.0  0.76610335  0.26572039000000003  0.64279648  1.0000
  C   C159      1.0  0.50049378  0.37703866999999996  0.7342866  1.0000
  C   C160      1.0  0.25077513  0.34282557  0.6335691  1.0000
  C   C161      1.0  0.9079918099999998  0.29072715  0.65717637  1.0000
  C   C162      1.0  0.6173017099999999  0.36643104  0.7092770399999999  1.0000
  C   C163      1.0  0.2059393299999999  0.3904037999999999  0.57585424  1.0000
  C   C164      1.0  0.81539335  0.18544397999999998  0.60957209  1.0000
  C   C165      1.0  0.6300045499999999  0.42414188999999985  0.8145646599999999  1.0000
  O   O1        1.0  0.76267179  0.65899595  0.3730764299999999  1.0000
  O   O2        1.0  0.1039153599999999  0.7140650099999999  0.34097110999999997  1.0000
  O   O3        1.0  0.38956589999999996  0.6269481099999998  0.28596038  1.0000
  O   O4        1.0  0.9920701399999999  0.6605237199999998  0.3457785299999999  1.0000
  O   O5        1.0  0.33166381  0.68524007  0.33947792999999993  1.0000
  O   O6        1.0  0.64637951  0.65423995  0.31476506  1.0000
  O   O7        1.0  0.33809697  0.64080638  0.34772176  1.0000
  O   O8        1.0  0.69758871  0.7069160199999998  0.35921256  1.0000
  O   O9        1.0  0.9903398599999998  0.65227687  0.2930796  1.0000
  O   O10       1.0  0.41698139999999995  0.3357253999999999  0.62400968  1.0000
  O   O11       1.0  0.08128823  0.28826065  0.66425807  1.0000
  O   O12       1.0  0.79307698  0.37598729  0.71175392  1.0000
  O   O13       1.0  0.19016493  0.33788279  0.65320191  1.0000
  O   O14       1.0  0.85236775  0.31530465  0.66210597  1.0000
  O   O15       1.0  0.5370894299999998  0.34680535  0.68469369  1.0000
  O   O16       1.0  0.84213004  0.3564684099999999  0.6487114  1.0000
  O   O17       1.0  0.4856651  0.2922425999999999  0.64354554  1.0000
  O   O18       1.0  0.19343951000000004  0.35128582  0.70775769  1.0000
