data_image0
_chemical_formula_structural       Cu6H32C48N52
_chemical_formula_sum              "Cu6 H32 C48 N52"
_cell_length_a       13.34210256
_cell_length_b       15.11160212
_cell_length_c       15.51808802
_cell_angle_alpha    89.99990191
_cell_angle_beta     93.15929051
_cell_angle_gamma    89.99987381

_symmetry_space_group_name_H-M    'P 1'
_symmetry_Int_Tables_number       1

loop_
  _symmetry_equiv_pos_as_xyz
  'x,y,z'

loop_
  _atom_site_type_symbol
  _atom_site_label
  _atom_site_symmetry_multiplicity
  _atom_site_fract_x
  _atom_site_fract_y
  _atom_site_fract_z
  _atom_site_occupancy
  Cu  Cu1       1.0  0.9484077799999998  0.18532335  0.10454909  1.0000
  Cu  Cu2       1.0  0.55159396  0.68532293  0.39545069  1.0000
  Cu  Cu3       1.0  0.05159134  0.8146764799999998  0.89545085  1.0000
  Cu  Cu4       1.0  0.44840595  0.3146770699999999  0.60454989  1.0000
  Cu  Cu5       1.0  0.9999995699999998  0.9999997899999999  0.99999986  1.0000
  Cu  Cu6       1.0  0.50000037  0.4999999199999999  0.49999995  1.0000
  H   H1        1.0  0.55312644  0.39215192999999987  0.75886204  1.0000
  H   H2        1.0  0.67752985  0.34145633  0.87598721  1.0000
  H   H3        1.0  0.68210813  0.08756012  0.74910001  1.0000
  H   H4        1.0  0.55530095  0.14710675  0.63896937  1.0000
  H   H5        1.0  0.32908353  0.32676424  0.75580314  1.0000
  H   H6        1.0  0.22126345000000003  0.2267544  0.84037992  1.0000
  H   H7        1.0  0.24371813999999994  0.03172119  0.6390405  1.0000
  H   H8        1.0  0.34830122  0.14035008  0.5612473400000001  1.0000
  H   H9        1.0  0.9468720899999999  0.8921515999999998  0.74113772  1.0000
  H   H10       1.0  0.82246908  0.8414556399999997  0.62401201  1.0000
  H   H11       1.0  0.8178913200000001  0.5875594999999998  0.750901  1.0000
  H   H12       1.0  0.9446980999999999  0.64710633  0.86103155  1.0000
  H   H13       1.0  0.17091575  0.82676427  0.74419705  1.0000
  H   H14       1.0  0.27873652  0.72675487  0.65962055  1.0000
  H   H15       1.0  0.25628161  0.53172088  0.86095994  1.0000
  H   H16       1.0  0.15169799  0.64034954  0.9387526300000001  1.0000
  H   H17       1.0  0.4468737699999999  0.6078485799999997  0.24113827  1.0000
  H   H18       1.0  0.3224705999999999  0.6585437199999998  0.12401303  1.0000
  H   H19       1.0  0.31789203  0.9124397699999998  0.2509  1.0000
  H   H20       1.0  0.44469905  0.85289311  0.36103031  1.0000
  H   H21       1.0  0.6709164699999999  0.67323598  0.24419757000000006  1.0000
  H   H22       1.0  0.7787365699999999  0.77324524  0.15962033  1.0000
  H   H23       1.0  0.75628179  0.9682790199999998  0.36095949  1.0000
  H   H24       1.0  0.65169871  0.85965018  0.43875265  1.0000
  H   H25       1.0  0.05312772  0.10784849999999997  0.25886226  1.0000
  H   H26       1.0  0.17753074999999993  0.15854458  0.37598797  1.0000
  H   H27       1.0  0.18210868  0.41244041  0.24909896  1.0000
  H   H28       1.0  0.05530185999999999  0.3528938599999999  0.13896832  1.0000
  H   H29       1.0  0.8290843099999998  0.17323592999999995  0.25580271  1.0000
  H   H30       1.0  0.7212637099999999  0.2732452599999999  0.34037918  1.0000
  H   H31       1.0  0.7437184099999999  0.46827903  0.13904  1.0000
  H   H32       1.0  0.8483019599999999  0.35965055  0.06124722  1.0000
  C   C1        1.0  0.5832886  0.32504957  0.76005996  1.0000
  C   C2        1.0  0.6523752799999999  0.29673422  0.82422677  1.0000
  C   C3        1.0  0.6898930499999999  0.21005574999999999  0.82165665  1.0000
  C   C4        1.0  0.65478739  0.15519188  0.75341987  1.0000
  C   C5        1.0  0.5849108  0.18810398  0.69237118  1.0000
  C   C6        1.0  0.7636011700000002  0.17746042999999995  0.88628102  1.0000
  C   C7        1.0  0.30879868  0.2605611199999999  0.7326879  1.0000
  C   C8        1.0  0.24845763  0.20542428999999995  0.77885547  1.0000
  C   C9        1.0  0.22417134  0.12097420999999997  0.74640408  1.0000
  C   C10       1.0  0.26118496  0.09639602  0.66696093  1.0000
  C   C11       1.0  0.3203167599999999  0.15578292  0.62417513  1.0000
  C   C12       1.0  0.1634  0.06165344  0.79537832  1.0000
  C   C13       1.0  0.91670997  0.8250491999999998  0.73994018  1.0000
  C   C14       1.0  0.84762362  0.7967339  0.67577318  1.0000
  C   C15       1.0  0.81010647  0.71005538  0.67834386  1.0000
  C   C16       1.0  0.8452114599999999  0.65519151  0.74658111  1.0000
  C   C17       1.0  0.9150879399999997  0.68810385  0.80762962  1.0000
  C   C18       1.0  0.73639954  0.6774596599999998  0.61371907  1.0000
  C   C19       1.0  0.19120072  0.76056108  0.76731229  1.0000
  C   C20       1.0  0.25154216  0.70542445  0.72114503  1.0000
  C   C21       1.0  0.27582857  0.62097431  0.75359658  1.0000
  C   C22       1.0  0.23881475999999996  0.59639569  0.83303944  1.0000
  C   C23       1.0  0.17968258  0.65578256  0.87582489  1.0000
  C   C24       1.0  0.33660059  0.5616535899999999  0.70462239  1.0000
  C   C25       1.0  0.4167115899999999  0.67495083  0.23994012  1.0000
  C   C26       1.0  0.34762487  0.7032660199999998  0.17577326  1.0000
  C   C27       1.0  0.31010705  0.78994435  0.17834315000000003  1.0000
  C   C28       1.0  0.3452126  0.84480804  0.24657986  1.0000
  C   C29       1.0  0.41508921999999987  0.8118960099999998  0.30762856  1.0000
  C   C30       1.0  0.23639914999999997  0.8225396  0.11371887  1.0000
  C   C31       1.0  0.69120114  0.7394390799999998  0.26731262  1.0000
  C   C32       1.0  0.7515422399999999  0.7945756399999998  0.22114473  1.0000
  C   C33       1.0  0.77582855  0.87902582  0.2535959  1.0000
  C   C34       1.0  0.7388149999999999  0.90360412  0.33303915  1.0000
  C   C35       1.0  0.67968322  0.8442170799999997  0.37582501  1.0000
  C   C36       1.0  0.8365997999999999  0.9383465199999997  0.2046217  1.0000
  C   C37       1.0  0.0832897  0.17495094  0.26005982  1.0000
  C   C38       1.0  0.15237606999999995  0.20326626999999994  0.32422676  1.0000
  C   C39       1.0  0.18989333999999994  0.28994475  0.32165615  1.0000
  C   C40       1.0  0.15478823  0.34480847  0.25341881  1.0000
  C   C41       1.0  0.08491176999999997  0.31189625  0.19237031  1.0000
  C   C42       1.0  0.2636007  0.3225403299999999  0.38628102  1.0000
  C   C43       1.0  0.8087994799999998  0.23943906999999995  0.23268732  1.0000
  C   C44       1.0  0.7484580899999999  0.29457566  0.27885469  1.0000
  C   C45       1.0  0.7241716199999999  0.3790258  0.2464033  1.0000
  C   C46       1.0  0.76118534  0.4036042499999999  0.1669604  1.0000
  C   C47       1.0  0.82031744  0.34421737  0.1241749  1.0000
  C   C48       1.0  0.66339975  0.4383464199999999  0.29537755000000004  1.0000
  N   N1        1.0  0.54938662  0.27148124  0.69540694  1.0000
  N   N2        1.0  0.79833839  0.22367426999999995  0.95619101  1.0000
  N   N3        1.0  0.8642129  0.16897741999999993  0.99501591  1.0000
  N   N4        1.0  0.86952424  0.09301065  0.9513368  1.0000
  N   N5        1.0  0.80697352  0.09647866  0.88254626  1.0000
  N   N6        1.0  0.34458329  0.23613556  0.65664813  1.0000
  N   N7        1.0  0.11674708999999998  0.08743307  0.86617126  1.0000
  N   N8        1.0  0.07262739  0.01478294  0.89193791  1.0000
  N   N9        1.0  0.09128737  0.94660907  0.8398826  1.0000
  N   N10       1.0  0.14827425  0.97475171  0.77804498  1.0000
  N   N11       1.0  0.058933009999999994  0.11695158  0.04943413  1.0000
  N   N12       1.0  0.14769853  0.13471449  0.05698184  1.0000
  N   N13       1.0  0.23251772  0.15250344  0.0631057  1.0000
  N   N14       1.0  0.9506120099999998  0.77148083  0.80459328  1.0000
  N   N15       1.0  0.70166386  0.72367301  0.54380806  1.0000
  N   N16       1.0  0.63578972  0.66897702  0.50498296  1.0000
  N   N17       1.0  0.63047684  0.5930107199999998  0.54866282  1.0000
  N   N18       1.0  0.69302632  0.59647889  0.61745377  1.0000
  N   N19       1.0  0.15541565  0.73613527  0.84335187  1.0000
  N   N20       1.0  0.3832538499999999  0.5874334399999998  0.63382931  1.0000
  N   N21       1.0  0.4273736499999999  0.51478288  0.60806283  1.0000
  N   N22       1.0  0.40871337  0.4466087  0.66011832  1.0000
  N   N23       1.0  0.35172614  0.47475138  0.72195606  1.0000
  N   N24       1.0  0.44107093  0.61695223  0.45056804  1.0000
  N   N25       1.0  0.35229854  0.63471528  0.44301877  1.0000
  N   N26       1.0  0.2674884  0.65250154  0.43689427  1.0000
  N   N27       1.0  0.4506138599999999  0.72851884  0.30459335  1.0000
  N   N28       1.0  0.20166226  0.77632584  0.04380891  1.0000
  N   N29       1.0  0.13578723  0.83102251  0.00498396  1.0000
  N   N30       1.0  0.13047553  0.9069889899999998  0.04866344  1.0000
  N   N31       1.0  0.19302637  0.90352096  0.11745398  1.0000
  N   N32       1.0  0.6554164899999998  0.7638644899999998  0.34335233  1.0000
  N   N33       1.0  0.88325238  0.91256716  0.13382896  1.0000
  N   N34       1.0  0.92737199  0.9852170199999998  0.10806223  1.0000
  N   N35       1.0  0.90871223  0.053390569999999984  0.16011751  1.0000
  N   N36       1.0  0.85172573  0.025248039999999992  0.22195495  1.0000
  N   N37       1.0  0.94106158  0.8830470999999998  0.9505657  1.0000
  N   N38       1.0  0.85231132  0.86528736  0.9430191  1.0000
  N   N39       1.0  0.76747476  0.8474947799999998  0.93689385  1.0000
  N   N40       1.0  0.049387659999999986  0.22851928  0.19540671  1.0000
  N   N41       1.0  0.29833625  0.27632654  0.45619195  1.0000
  N   N42       1.0  0.3642106599999999  0.33102285  0.49501719  1.0000
  N   N43       1.0  0.36952356  0.40698954999999987  0.45133719  1.0000
  N   N44       1.0  0.30697392  0.40352143  0.38254605  1.0000
  N   N45       1.0  0.84458426  0.26386488  0.15664776  1.0000
  N   N46       1.0  0.61674673  0.41256685  0.36617041  1.0000
  N   N47       1.0  0.57262698  0.4852171399999999  0.39193704  1.0000
  N   N48       1.0  0.59128715  0.55339098  0.33988172  1.0000
  N   N49       1.0  0.6482741099999999  0.52524828  0.27804421  1.0000
  N   N50       1.0  0.55893324  0.38304683  0.54943203  1.0000
  N   N51       1.0  0.6476911  0.36528699  0.5569804  1.0000
  N   N52       1.0  0.7325195199999998  0.34749692  0.56310583  1.0000
