data_image0
_chemical_formula_structural       Cd4H72C108N24O16
_chemical_formula_sum              "Cd4 H72 C108 N24 O16"
_cell_length_a       11.28455047
_cell_length_b       13.799913880000002
_cell_length_c       24.612639570000002
_cell_angle_alpha    89.99996864
_cell_angle_beta     90.00001636000002
_cell_angle_gamma    114.63397247

_symmetry_space_group_name_H-M    'P 1'
_symmetry_Int_Tables_number       1

loop_
  _symmetry_equiv_pos_as_xyz
  'x,y,z'

loop_
  _atom_site_type_symbol
  _atom_site_label
  _atom_site_symmetry_multiplicity
  _atom_site_fract_x
  _atom_site_fract_y
  _atom_site_fract_z
  _atom_site_occupancy
  Cd  Cd1       1.0  0.3562381299999999  0.17405766000000006  0.8376683199999999  1.0000
  Cd  Cd2       1.0  0.85623803  0.6740578200000001  0.66233179  1.0000
  Cd  Cd3       1.0  0.6437614800000001  0.8259423800000001  0.16233176  1.0000
  Cd  Cd4       1.0  0.14376157  0.3259422  0.3376683599999999  1.0000
  H   H1        1.0  0.19396482999999998  0.77997098  0.69792963  1.0000
  H   H2        1.0  0.42363571  0.59810163  0.8495036899999998  1.0000
  H   H3        1.0  0.36968043  0.88964061  0.8502257099999999  1.0000
  H   H4        1.0  0.40861481999999993  0.44573370000000007  0.05716309  1.0000
  H   H5        1.0  0.07464971000000001  0.16936117000000006  0.23535722999999995  1.0000
  H   H6        1.0  0.13031834  0.61035837  0.35022571  1.0000
  H   H7        1.0  0.9776566299999999  0.93424809  0.62911788  1.0000
  H   H8        1.0  0.88153484  0.41082711  0.19950697999999997  1.0000
  H   H9        1.0  0.63429452  0.012253220000000004  0.32799378  1.0000
  H   H10       1.0  0.8956046  0.04394289000000001  0.08415542  1.0000
  H   H11       1.0  0.38425889  0.16358138  0.68380307  1.0000
  H   H12       1.0  0.81730066  0.21047867  0.61183081  1.0000
  H   H13       1.0  0.18269931  0.78952143  0.38816913  1.0000
  H   H14       1.0  0.86968135  0.38964159  0.64977433  1.0000
  H   H15       1.0  0.8125706500000001  0.8082784600000001  0.0459541  1.0000
  H   H16       1.0  0.60439536  0.4560574000000001  0.58415548  1.0000
  H   H17       1.0  0.07492247  0.16392204  0.7280777599999999  1.0000
  H   H18       1.0  0.53867713  0.30419605  0.04428143999999999  1.0000
  H   H19       1.0  0.7149970400000001  0.9721294900000003  0.65791354  1.0000
  H   H20       1.0  0.57630301  0.22897967000000005  0.9426030099999998  1.0000
  H   H21       1.0  0.42369728000000006  0.7710206300000001  0.05739695999999998  1.0000
  H   H22       1.0  0.47765663999999997  0.4342480200000001  0.8708821599999998  1.0000
  H   H23       1.0  0.6157415  0.8364185000000002  0.31619672  1.0000
  H   H24       1.0  0.57464965  0.6693611800000001  0.26464277  1.0000
  H   H25       1.0  0.14533585  0.11343554  0.06662408  1.0000
  H   H26       1.0  0.39560445  0.54394283  0.41584447  1.0000
  H   H27       1.0  0.07630293000000013  0.7289796800000002  0.55739709  1.0000
  H   H28       1.0  0.21499734  0.47212936  0.84208678  1.0000
  H   H29       1.0  0.78500346  0.52787047  0.15791298  1.0000
  H   H30       1.0  0.64933482  0.52083002  0.75173898  1.0000
  H   H31       1.0  0.92507928  0.83607867  0.27192159  1.0000
  H   H32       1.0  0.11846531000000002  0.58917279  0.8004932299999997  1.0000
  H   H33       1.0  0.18742963  0.1917217  0.95404593  1.0000
  H   H34       1.0  0.09138535999999998  0.054266470000000004  0.55716305  1.0000
  H   H35       1.0  0.31257058  0.30827845  0.45404584  1.0000
  H   H36       1.0  0.64533571  0.61343557  0.43337591999999997  1.0000
  H   H37       1.0  0.59138523  0.55426641  0.9428369299999998  1.0000
  H   H38       1.0  0.3815349900000002  0.9108272800000002  0.30049286  1.0000
  H   H39       1.0  0.90861473  0.94573353  0.44283684999999995  1.0000
  H   H40       1.0  0.022343529999999997  0.06575206  0.37088214  1.0000
  H   H41       1.0  0.9236973399999996  0.27102073  0.4426029299999999  1.0000
  H   H42       1.0  0.31729976  0.7104773100000001  0.8881692599999998  1.0000
  H   H43       1.0  0.46132318  0.69580407  0.9557185499999997  1.0000
  H   H44       1.0  0.10439544999999996  0.95605736  0.9158445199999999  1.0000
  H   H45       1.0  0.57636476  0.40189844  0.15049658  1.0000
  H   H46       1.0  0.14933486  0.02082999  0.748261  1.0000
  H   H47       1.0  0.42507916  0.33607895  0.22807830999999998  1.0000
  H   H48       1.0  0.13429463000000003  0.51225351  0.17200607  1.0000
  H   H49       1.0  0.35066487999999996  0.47917003  0.24826098  1.0000
  H   H50       1.0  0.5749224  0.66392158  0.77192227  1.0000
  H   H51       1.0  0.038676990000000015  0.80419589  0.4557186  1.0000
  H   H52       1.0  0.11574166999999999  0.33641853  0.18380312  1.0000
  H   H53       1.0  0.3657056  0.98774666  0.6720060599999998  1.0000
  H   H54       1.0  0.42535068  0.33063841  0.73535721  1.0000
  H   H55       1.0  0.35466448  0.38656441  0.56662402  1.0000
  H   H56       1.0  0.80603522  0.22002902000000005  0.30207044  1.0000
  H   H57       1.0  0.9613232499999997  0.19580420000000007  0.54428135  1.0000
  H   H58       1.0  0.3060354000000001  0.7200291800000002  0.19792945999999997  1.0000
  H   H59       1.0  0.6826996799999999  0.28952233  0.11183082  1.0000
  H   H60       1.0  0.8842591299999999  0.66358135  0.81619709  1.0000
  H   H61       1.0  0.07636463999999998  0.90189784  0.34950343  1.0000
  H   H62       1.0  0.68742961  0.69172176  0.54595404  1.0000
  H   H63       1.0  0.8506649399999999  0.97916988  0.25173891  1.0000
  H   H64       1.0  0.52234372  0.56575204  0.12911772  1.0000
  H   H65       1.0  0.92535072  0.8306383500000001  0.7646428  1.0000
  H   H66       1.0  0.63031908  0.11035928000000002  0.1497742  1.0000
  H   H67       1.0  0.92363604  0.09810249  0.65049624  1.0000
  H   H68       1.0  0.6939648600000001  0.27997104  0.8020703999999999  1.0000
  H   H69       1.0  0.86570569  0.48774673  0.8279939499999998  1.0000
  H   H70       1.0  0.8546644599999998  0.88656438  0.93337594  1.0000
  H   H71       1.0  0.61846466  0.08917253000000001  0.69950702  1.0000
  H   H72       1.0  0.28500306  0.027870560000000003  0.34208667  1.0000
  C   C1        1.0  0.8281044  0.88146539  0.4227065499999999  1.0000
  C   C2        1.0  0.60621826  0.47852423  0.71474512  1.0000
  C   C3        1.0  0.9746984899999999  0.77140569  0.49011896  1.0000
  C   C4        1.0  0.78170906  0.77780752  0.44277835  1.0000
  C   C5        1.0  0.2182911  0.22219245  0.55722156  1.0000
  C   C6        1.0  0.28418268  0.20475449  0.3069012  1.0000
  C   C7        1.0  0.91351081  0.33957443000000004  0.6668610399999999  1.0000
  C   C8        1.0  0.11631468  0.21730781  0.12607233  1.0000
  C   C9        1.0  0.97365278  0.51890886  0.26437819  1.0000
  C   C10       1.0  0.17574867  0.19491527  0.08096934  1.0000
  C   C11       1.0  0.8244935899999999  0.15674578000000003  0.32101757999999997  1.0000
  C   C12       1.0  0.14075250000000003  0.3518707300000001  0.78167964  1.0000
  C   C13       1.0  0.9125786899999999  0.04922530000000001  0.12765778  1.0000
  C   C14       1.0  0.11365131999999994  0.7597272  0.35458561  1.0000
  C   C15       1.0  0.9981086799999999  0.88472451  0.79218729  1.0000
  C   C16       1.0  0.23830964  0.55504998  0.16591271  1.0000
  C   C17       1.0  0.34373986  0.05249970000000001  0.3053438  1.0000
  C   C18       1.0  0.026346730000000002  0.48109081  0.73562235  1.0000
  C   C19       1.0  0.6607721599999999  0.8200066100000001  0.3523787  1.0000
  C   C20       1.0  0.38634826  0.74027265  0.85458547  1.0000
  C   C21       1.0  0.7841824099999999  0.70475457  0.1930988  1.0000
  C   C22       1.0  0.85924756  0.64812907  0.21832026  1.0000
  C   C23       1.0  0.5018915  0.6152753  0.29218724  1.0000
  C   C24       1.0  0.4746986799999999  0.2714058  0.00988104  1.0000
  C   C25       1.0  0.50997509  0.7679532600000002  0.03960439  1.0000
  C   C26       1.0  0.9407417600000001  0.6857922500000001  0.26537418  1.0000
  C   C27       1.0  0.28170927  0.27780761  0.05722164  1.0000
  C   C28       1.0  0.4900252299999999  0.23204717  0.96039555  1.0000
  C   C29       1.0  0.23326262  0.09864814  0.62259898  1.0000
  C   C30       1.0  0.029891920000000034  0.21281159000000005  0.71076613  1.0000
  C   C31       1.0  0.9458721099999999  0.17694727  0.66729013  1.0000
  C   C32       1.0  0.97498878  0.55646564  0.71218181  1.0000
  C   C33       1.0  0.52634642  0.98109021  0.7643778  1.0000
  C   C34       1.0  0.17189572  0.11853461  0.57729333  1.0000
  C   C35       1.0  0.71295039  0.7927338100000001  0.03528882  1.0000
  C   C36       1.0  0.7158167699999999  0.79524502  0.6930988599999999  1.0000
  C   C37       1.0  0.10621822000000002  0.97852423  0.78525487  1.0000
  C   C38       1.0  0.67574851  0.69491535  0.41903067  1.0000
  C   C39       1.0  0.47498802999999995  0.05646493  0.78781835  1.0000
  C   C40       1.0  0.8863487399999997  0.24027279000000004  0.64541444  1.0000
  C   C41       1.0  0.02501052  0.44353427  0.28781904  1.0000
  C   C42       1.0  0.76169056  0.44495002  0.8340873399999997  1.0000
  C   C43       1.0  0.55412842  0.32305353000000003  0.1672904  1.0000
  C   C44       1.0  0.08648882999999999  0.66042581  0.33313903999999994  1.0000
  C   C45       1.0  0.4981086099999999  0.3847245  0.70781273  1.0000
  C   C46       1.0  0.89378159  0.02147577  0.21474510999999996  1.0000
  C   C47       1.0  0.35924766  0.1481297  0.28167951  1.0000
  C   C48       1.0  0.15626026000000004  0.4475003900000001  0.80534385  1.0000
  C   C49       1.0  0.55973186  0.41961367  0.85661886  1.0000
  C   C50       1.0  0.61365168  0.25972817  0.14541436  1.0000
  C   C51       1.0  0.32810433  0.38146543  0.0772934  1.0000
  C   C52       1.0  0.97010899  0.7871889000000001  0.28923358  1.0000
  C   C53       1.0  0.5250107900000001  0.9435339300000001  0.21218181  1.0000
  C   C54       1.0  0.28704977  0.20726640000000002  0.96471118  1.0000
  C   C55       1.0  0.44587196000000007  0.6769460100000002  0.83270987  1.0000
  C   C56       1.0  0.49983274  0.12038927  0.21162055  1.0000
  C   C57       1.0  0.47010885  0.28718932  0.21076634  1.0000
  C   C58       1.0  0.26169051000000004  0.9449500100000001  0.6659126899999999  1.0000
  C   C59       1.0  0.67550645  0.34325421000000006  0.82101764  1.0000
  C   C60       1.0  0.3244937  0.65674586  0.17898226999999997  1.0000
  C   C61       1.0  0.21295074  0.29273382  0.4647110699999999  1.0000
  C   C62       1.0  0.60088755  0.01215133  0.71757799  1.0000
  C   C63       1.0  0.44026837  0.58038632  0.14338113  1.0000
  C   C64       1.0  0.05973168000000002  0.91961376  0.64338114  1.0000
  C   C65       1.0  0.47365291  0.0189092  0.23562161999999998  1.0000
  C   C66       1.0  0.7383095399999999  0.055049860000000006  0.33408721999999996  1.0000
  C   C67       1.0  0.33922805  0.17999328  0.64762117  1.0000
  C   C68       1.0  0.58648923  0.16042622000000006  0.16686088  1.0000
  C   C69       1.0  0.6718957799999999  0.61853456  0.92270666  1.0000
  C   C70       1.0  0.05412825999999996  0.82305304  0.33270954999999997  1.0000
  C   C71       1.0  0.52989158  0.7128115  0.7892339399999999  1.0000
  C   C72       1.0  0.55925798  0.81420718  0.7653744099999997  1.0000
  C   C73       1.0  0.9998328  0.62038865  0.28837935  1.0000
  C   C74       1.0  0.0018914600000000073  0.11527525  0.20781268  1.0000
  C   C75       1.0  0.39378148  0.52147577  0.28525483  1.0000
  C   C76       1.0  0.44074174  0.18579242  0.23462571  1.0000
  C   C77       1.0  0.08742118000000011  0.9507749100000001  0.87234221  1.0000
  C   C78       1.0  0.41351037  0.8395726  0.83313909  1.0000
  C   C79       1.0  0.32425165  0.30508468  0.58096922  1.0000
  C   C80       1.0  0.16077213  0.32000673  0.14762126  1.0000
  C   C81       1.0  0.025301669999999967  0.22859439  0.50988101  1.0000
  C   C82       1.0  0.71829113  0.72219235  0.9427783999999998  1.0000
  C   C83       1.0  0.38368563999999994  0.28269208  0.62607232  1.0000
  C   C84       1.0  0.8242516999999999  0.80508458  0.91903077  1.0000
  C   C85       1.0  0.41257863  0.54922528  0.3723422  1.0000
  C   C86       1.0  0.5001664800000002  0.8796109400000002  0.78837954  1.0000
  C   C87       1.0  0.39911197  0.98784856  0.28242197  1.0000
  C   C88       1.0  0.00016726999999998806  0.37961143  0.7116207499999999  1.0000
  C   C89       1.0  0.17550641  0.84325416  0.67898239  1.0000
  C   C90       1.0  0.6407520200000001  0.8518706600000001  0.71832063  1.0000
  C   C91       1.0  0.73326259  0.59864807  0.8774010899999999  1.0000
  C   C92       1.0  0.83922824  0.67999318  0.8523788499999999  1.0000
  C   C93       1.0  0.009975020000000001  0.2679533  0.46039548  1.0000
  C   C94       1.0  0.78704945  0.70726632  0.53528886  1.0000
  C   C95       1.0  0.76673751  0.90135175  0.37740091  1.0000
  C   C96       1.0  0.21581677  0.29524505  0.80690119  1.0000
  C   C97       1.0  0.61631456  0.71730786  0.37392761  1.0000
  C   C98       1.0  0.0592583  0.31420802  0.73462563  1.0000
  C   C99       1.0  0.52530165  0.72859435  0.99011892  1.0000
  C   C100      1.0  0.88368571  0.78269211  0.8739277399999998  1.0000
  C   C101      1.0  0.6562602200000001  0.9475001400000003  0.69465628  1.0000
  C   C102      1.0  0.99002515  0.73204695  0.53960451  1.0000
  C   C103      1.0  0.8437402399999999  0.55249985  0.19465598999999997  1.0000
  C   C104      1.0  0.58742114  0.45077491000000003  0.62765777  1.0000
  C   C105      1.0  0.26673767  0.40135187  0.12259892  1.0000
  C   C106      1.0  0.9402684399999999  0.08038618  0.35661883999999994  1.0000
  C   C107      1.0  0.89911213  0.48784843  0.21757769  1.0000
  C   C108      1.0  0.10088839999999996  0.5121516  0.78242245  1.0000
  N   N1        1.0  0.12714434  0.30693074  0.4327940099999999  1.0000
  N   N2        1.0  0.18711980000000006  0.9932620100000003  0.64305254  1.0000
  N   N3        1.0  0.68711983  0.49326195000000006  0.8569475  1.0000
  N   N4        1.0  0.83886396  0.98173218  0.16482851  1.0000
  N   N5        1.0  0.81288031  0.00673793  0.35694736  1.0000
  N   N6        1.0  0.8728558399999999  0.69306952  0.567206  1.0000
  N   N7        1.0  0.84466252  0.75464677  0.48771302  1.0000
  N   N8        1.0  0.05084333000000006  0.82912683  0.66494397  1.0000
  N   N9        1.0  0.44915673999999994  0.6708731000000001  0.16494387  1.0000
  N   N10       1.0  0.16113556  0.0182681  0.8351714199999998  1.0000
  N   N11       1.0  0.34466264  0.25464687  0.012286939999999998  1.0000
  N   N12       1.0  0.33886385  0.48173215  0.33517139  1.0000
  N   N13       1.0  0.65533767  0.74535328  0.98771309  1.0000
  N   N14       1.0  0.15533771  0.24535325  0.51228691  1.0000
  N   N15       1.0  0.31288043  0.50673807  0.14305255  1.0000
  N   N16       1.0  0.55084338  0.32912687000000007  0.83505606  1.0000
  N   N17       1.0  0.9491566899999999  0.17087312  0.33505603  1.0000
  N   N18       1.0  0.4866012  0.36785661  0.6521180199999999  1.0000
  N   N19       1.0  0.013398930000000005  0.13214329  0.15211803  1.0000
  N   N20       1.0  0.6611356  0.51826809  0.6648285799999999  1.0000
  N   N21       1.0  0.98660123  0.86785653  0.8478819899999998  1.0000
  N   N22       1.0  0.51339883  0.63214325  0.34788191  1.0000
  N   N23       1.0  0.6271444300000001  0.8069307900000001  0.06720586  1.0000
  N   N24       1.0  0.37285593  0.19306957  0.9327940799999999  1.0000
  O   O1        1.0  0.7517097400000002  0.7375128900000001  0.7243453999999998  1.0000
  O   O2        1.0  0.24829038  0.26248716  0.27565469  1.0000
  O   O3        1.0  0.7482905  0.7624870100000001  0.22434548999999998  1.0000
  O   O4        1.0  0.25170998  0.23751316000000003  0.77565467  1.0000
  O   O5        1.0  0.97280044  0.56590517  0.66064803  1.0000
  O   O6        1.0  0.75464836  0.6904600500000001  0.14319506  1.0000
  O   O7        1.0  0.47279973  0.06590441  0.8393523  1.0000
  O   O8        1.0  0.5271938199999999  0.93409282  0.16064608999999996  1.0000
  O   O9        1.0  0.93651924  0.6087899500000001  0.74511562  1.0000
  O   O10       1.0  0.027193860000000042  0.4340928600000001  0.33935345  1.0000
  O   O11       1.0  0.7453502699999998  0.80953928  0.64319502  1.0000
  O   O12       1.0  0.43651837999999993  0.10878895  0.75488461  1.0000
  O   O13       1.0  0.25464906  0.19046011  0.35680512  1.0000
  O   O14       1.0  0.06348384999999998  0.3912126000000001  0.2548858  1.0000
  O   O15       1.0  0.56348297  0.89121293  0.24511411  1.0000
  O   O16       1.0  0.24535009  0.30953912  0.8568052499999999  1.0000
