data_image0
_chemical_formula_structural       NdP3O2HO2HO3HOHO3HOHCHC2HCHCHC2HCHCHC2HCHNdP3O2HO2HO3HOHO3HOHCHC2HCHCHC2HCHCHC2HCH
_chemical_formula_sum              "Nd2 P6 O24 H30 C24"
_cell_length_a       10.3912
_cell_length_b       11.8723
_cell_length_c       11.879
_cell_angle_alpha    82.37899999999999
_cell_angle_beta     87.725
_cell_angle_gamma    81.666

_space_group_name_H-M_alt    "P 1"
_space_group_IT_number       1

loop_
  _space_group_symop_operation_xyz
  'x, y, z'

loop_
  _atom_site_type_symbol
  _atom_site_label
  _atom_site_symmetry_multiplicity
  _atom_site_fract_x
  _atom_site_fract_y
  _atom_site_fract_z
  _atom_site_occupancy
  Nd  Nd1       1.0  0.9810400000000001  0.07737999999999999  0.23929  1.0000
  P   P1        1.0  0.70199  0.31665  0.27806  1.0000
  P   P2        1.0  0.11861  0.11678000000000002  0.50462  1.0000
  P   P3        1.0  0.8463  0.10743999999999995  0.9653600000000001  1.0000
  O   O1        1.0  0.7999000000000002  0.21569999999999998  0.25910000000000005  1.0000
  O   O2        1.0  0.5644000000000001  0.30119999999999997  0.2447  1.0000
  H   H1        1.0  0.5513  0.33029999999999987  0.17880000000000001  1.0000
  O   O3        1.0  0.7391  0.4295  0.22010000000000002  1.0000
  O   O4        1.0  0.8209000000000001  0.3306  0.4683000000000001  1.0000
  H   H2        1.0  0.8196000000000001  0.3288999999999999  0.5375000000000001  1.0000
  O   O5        1.0  0.08170000000000001  0.07309999999999996  0.6240000000000001  1.0000
  O   O6        1.0  0.0109  0.1536  0.4208  1.0000
  O   O7        1.0  0.1981  0.2194  0.5115  1.0000
  H   H3        1.0  0.20250000000000004  0.2563999999999999  0.44840000000000013  1.0000
  O   O8        1.0  0.20440000000000003  0.009800000000000001  0.33  1.0000
  H   H4        1.0  0.2451  0.9465999999999999  0.31310000000000004  1.0000
  O   O9        1.0  0.894  0.07029999999999997  0.8534000000000003  1.0000
  O   O10       1.0  0.9441  0.1411  0.0397  1.0000
  O   O11       1.0  0.7334  0.20940000000000003  0.94  1.0000
  H   H5        1.0  0.7559  0.26839999999999997  0.9568000000000002  1.0000
  O   O12       1.0  0.7983  0.99  0.1638  1.0000
  H   H6        1.0  0.7569000000000001  0.9485  0.21130000000000004  1.0000
  C   C1        1.0  0.6944000000000001  0.3198999999999999  0.4314  1.0000
  H   H7        1.0  0.6712  0.2463  0.4679  1.0000
  C   C2        1.0  0.5952  0.41419999999999996  0.4679  1.0000
  C   C3        1.0  0.4743  0.3887999999999999  0.5031  1.0000
  H   H8        1.0  0.4562  0.3141  0.5052  1.0000
  C   C4        1.0  0.6218  0.5266999999999997  0.46420000000000006  1.0000
  H   H9        1.0  0.7034000000000001  0.545  0.44  1.0000
  C   C5        1.0  0.2277  0.9999  0.44880000000000003  1.0000
  H   H10       1.0  0.20260000000000003  0.9267999999999998  0.4846  1.0000
  C   C6        1.0  0.36950000000000005  0.00039999999999999677  0.4739  1.0000
  C   C7        1.0  0.41460000000000014  0.9582999999999999  0.5822  1.0000
  H   H11       1.0  0.35780000000000006  0.9301999999999998  0.6380000000000001  1.0000
  C   C8        1.0  0.45570000000000005  0.042099999999999985  0.3926000000000001  1.0000
  H   H12       1.0  0.4266  0.0709  0.32  1.0000
  C   C9        1.0  0.7743  0.9873999999999998  0.04590000000000002  1.0000
  H   H13       1.0  0.8201000000000002  0.9154  0.0235  1.0000
  C   C10       1.0  0.6311  0.9929  0.0238  1.0000
  C   C11       1.0  0.539  0.0632  0.0792  1.0000
  H   H14       1.0  0.5649  0.10569999999999997  0.13250000000000003  1.0000
  C   C12       1.0  0.5922000000000001  0.9293  0.9446  1.0000
  H   H15       1.0  0.6538  0.8815999999999999  0.9074000000000002  1.0000
  Nd  Nd2       1.0  0.018959999999999994  0.9226199999999999  0.76071  1.0000
  P   P4        1.0  0.29801  0.6833499999999999  0.7219400000000001  1.0000
  P   P5        1.0  0.88139  0.88322  0.4953800000000001  1.0000
  P   P6        1.0  0.1537  0.89256  0.034640000000000004  1.0000
  O   O13       1.0  0.2001  0.7843  0.7409  1.0000
  O   O14       1.0  0.43559999999999993  0.6988  0.7553000000000001  1.0000
  H   H16       1.0  0.4487  0.6697  0.8212  1.0000
  O   O15       1.0  0.2609  0.5705  0.7799  1.0000
  O   O16       1.0  0.1791  0.6694  0.5317  1.0000
  H   H17       1.0  0.18040000000000006  0.6710999999999998  0.4625  1.0000
  O   O17       1.0  0.9183  0.9269  0.376  1.0000
  O   O18       1.0  0.9891000000000002  0.8463999999999998  0.5792  1.0000
  O   O19       1.0  0.8019  0.7805999999999998  0.4885  1.0000
  H   H18       1.0  0.7975000000000001  0.7436  0.5516  1.0000
  O   O20       1.0  0.7956000000000001  0.9901999999999999  0.67  1.0000
  H   H19       1.0  0.7549  0.053399999999999975  0.6869  1.0000
  O   O21       1.0  0.106  0.9296999999999999  0.14660000000000004  1.0000
  O   O22       1.0  0.05589999999999999  0.8589  0.9603  1.0000
  O   O23       1.0  0.2666  0.7906  0.06  1.0000
  H   H20       1.0  0.2441  0.7316  0.043200000000000016  1.0000
  O   O24       1.0  0.2017  0.009999999999999986  0.8362000000000002  1.0000
  H   H21       1.0  0.24310000000000004  0.0515  0.7887  1.0000
  C   C13       1.0  0.3056  0.6800999999999999  0.5686  1.0000
  H   H22       1.0  0.32880000000000004  0.7537  0.5321000000000001  1.0000
  C   C14       1.0  0.4048  0.5858  0.5321000000000001  1.0000
  C   C15       1.0  0.5257000000000002  0.6112  0.4969000000000001  1.0000
  H   H23       1.0  0.5438  0.6859  0.4948  1.0000
  C   C16       1.0  0.37820000000000004  0.47329999999999994  0.5358  1.0000
  H   H24       1.0  0.29660000000000003  0.45499999999999996  0.5600000000000002  1.0000
  C   C17       1.0  0.7723  0.00010000000000000628  0.5512  1.0000
  H   H25       1.0  0.7974000000000001  0.07320000000000002  0.5154  1.0000
  C   C18       1.0  0.6305000000000001  0.9995999999999998  0.5261000000000001  1.0000
  C   C19       1.0  0.5854  0.0417  0.4178  1.0000
  H   H26       1.0  0.6422  0.0698  0.362  1.0000
  C   C20       1.0  0.5443000000000002  0.9579  0.6074  1.0000
  H   H27       1.0  0.5734  0.9290999999999998  0.6800000000000002  1.0000
  C   C21       1.0  0.2257  0.012599999999999998  0.9541  1.0000
  H   H28       1.0  0.17990000000000003  0.08459999999999997  0.9765000000000001  1.0000
  C   C22       1.0  0.36889999999999995  0.007099999999999983  0.9762000000000001  1.0000
  C   C23       1.0  0.4609999999999999  0.9368  0.9208000000000002  1.0000
  H   H29       1.0  0.4351  0.8943  0.8675000000000003  1.0000
  C   C24       1.0  0.40780000000000005  0.0707  0.0554  1.0000
  H   H30       1.0  0.3462  0.11839999999999999  0.0926  1.0000
