data_image0
_chemical_formula_structural       Sm16H16C80N32O64
_chemical_formula_sum              "Sm16 H16 C80 N32 O64"
_cell_length_a       16.2663
_cell_length_b       16.5397
_cell_length_c       16.5397
_cell_angle_alpha    76.007
_cell_angle_beta     60.545300000000005
_cell_angle_gamma    60.545300000000005

_symmetry_space_group_name_H-M    'P 1'
_symmetry_Int_Tables_number       1

loop_
  _symmetry_equiv_pos_as_xyz
  'x,y,z'

loop_
  _atom_site_type_symbol
  _atom_site_label
  _atom_site_symmetry_multiplicity
  _atom_site_fract_x
  _atom_site_fract_y
  _atom_site_fract_z
  _atom_site_occupancy
  Sm  Sm1       1.0  0.23817000000000008  0.8784799999999999  0.46942  1.0000
  Sm  Sm2       1.0  0.51265  0.52266  0.114  1.0000
  Sm  Sm3       1.0  0.08606999999999998  0.62152  0.030579999999999993  1.0000
  Sm  Sm4       1.0  0.6493100000000002  0.9773399999999998  0.3859999999999999  1.0000
  Sm  Sm5       1.0  0.7075899999999999  0.53058  0.37847999999999987  1.0000
  Sm  Sm6       1.0  0.6266499999999999  0.886  0.02266  1.0000
  Sm  Sm7       1.0  0.11665000000000018  0.9694199999999997  0.12151999999999999  1.0000
  Sm  Sm8       1.0  0.0353100000000001  0.614  0.47734  1.0000
  Sm  Sm9       1.0  0.7618299999999999  0.12151999999999998  0.53058  1.0000
  Sm  Sm10      1.0  0.4873500000000001  0.4773399999999999  0.8859999999999998  1.0000
  Sm  Sm11      1.0  0.9139300000000002  0.37848  0.9694199999999997  1.0000
  Sm  Sm12      1.0  0.35069000000000006  0.02266  0.614  1.0000
  Sm  Sm13      1.0  0.29241000000000006  0.4694199999999999  0.6215199999999999  1.0000
  Sm  Sm14      1.0  0.3733500000000001  0.11399999999999998  0.9773399999999999  1.0000
  Sm  Sm15      1.0  0.88335  0.030579999999999993  0.87848  1.0000
  Sm  Sm16      1.0  0.9646899999999998  0.38599999999999995  0.52266  1.0000
  H   H1        1.0  0.3067  0.7515  0.2525  1.0000
  H   H2        1.0  0.36540000000000006  0.8992  0.21759999999999993  1.0000
  H   H3        1.0  0.8106999999999999  0.7485  0.2475  1.0000
  H   H4        1.0  0.9822  0.6008  0.2824  1.0000
  H   H5        1.0  0.5592  0.7475  0.2515  1.0000
  H   H6        1.0  0.5830000000000002  0.7823999999999998  0.3991999999999999  1.0000
  H   H7        1.0  0.058199999999999995  0.7525  0.2485  1.0000
  H   H8        1.0  0.26460000000000017  0.7175999999999998  0.1008  1.0000
  H   H9        1.0  0.6933  0.2485  0.7475  1.0000
  H   H10       1.0  0.6346  0.1008  0.7824  1.0000
  H   H11       1.0  0.1893000000000002  0.25149999999999995  0.7524999999999997  1.0000
  H   H12       1.0  0.01780000000000001  0.3992  0.7176  1.0000
  H   H13       1.0  0.4408000000000002  0.2525  0.7484999999999998  1.0000
  H   H14       1.0  0.41700000000000004  0.21759999999999993  0.6008  1.0000
  H   H15       1.0  0.9418  0.24749999999999994  0.7515  1.0000
  H   H16       1.0  0.7354000000000002  0.28239999999999993  0.8991999999999998  1.0000
  C   C1        1.0  0.3532999999999999  0.7157  0.2785  1.0000
  C   C2        1.0  0.4273000000000003  0.6689999999999998  0.3689999999999999  1.0000
  C   C3        1.0  0.48610000000000003  0.6041999999999997  0.2984  1.0000
  C   C4        1.0  0.5793  0.5137  0.2755  1.0000
  C   C5        1.0  0.43910000000000016  0.6777  0.44829999999999987  1.0000
  C   C6        1.0  0.3992000000000001  0.9131999999999998  0.24019999999999994  1.0000
  C   C7        1.0  0.4371000000000001  0.9409999999999997  0.33699999999999997  1.0000
  C   C8        1.0  0.5049000000000002  0.9505999999999998  0.2454  1.0000
  C   C9        1.0  0.5984999999999997  0.9682  0.20579999999999996  1.0000
  C   C10       1.0  0.4194  0.9534  0.4315999999999999  1.0000
  C   C11       1.0  0.8475  0.7843  0.22149999999999995  1.0000
  C   C12       1.0  0.9652999999999996  0.8309999999999998  0.131  1.0000
  C   C13       1.0  0.8887000000000002  0.8957999999999998  0.2016  1.0000
  C   C14       1.0  0.8685000000000002  0.9862999999999997  0.22449999999999995  1.0000
  C   C15       1.0  0.06509999999999995  0.8223  0.05169999999999999  1.0000
  C   C16       1.0  0.052600000000000126  0.5867999999999998  0.2598  1.0000
  C   C17       1.0  0.2151000000000001  0.5589999999999998  0.163  1.0000
  C   C18       1.0  0.20090000000000005  0.5493999999999999  0.2546  1.0000
  C   C19       1.0  0.2725  0.5318  0.2942  1.0000
  C   C20       1.0  0.30440000000000006  0.5466  0.0684  1.0000
  C   C21       1.0  0.6317999999999999  0.7215  0.2157  1.0000
  C   C22       1.0  0.7962999999999999  0.631  0.169  1.0000
  C   C23       1.0  0.7845  0.7016  0.10419999999999997  1.0000
  C   C24       1.0  0.8548000000000001  0.7244999999999998  0.0137  1.0000
  C   C25       1.0  0.8874  0.5517  0.1777  1.0000
  C   C26       1.0  0.6394000000000002  0.7597999999999998  0.4131999999999999  1.0000
  C   C27       1.0  0.7741  0.663  0.441  1.0000
  C   C28       1.0  0.7503000000000001  0.7545999999999999  0.4505999999999999  1.0000
  C   C29       1.0  0.8043  0.7942  0.4682  1.0000
  C   C30       1.0  0.8510000000000002  0.5683999999999998  0.4534  1.0000
  C   C31       1.0  0.06899999999999999  0.7785  0.2843  1.0000
  C   C32       1.0  0.09630000000000005  0.8689999999999999  0.3309999999999999  1.0000
  C   C33       1.0  0.09029999999999994  0.7984  0.3958  1.0000
  C   C34       1.0  0.09300000000000008  0.7754999999999997  0.4862999999999999  1.0000
  C   C35       1.0  0.11680000000000028  0.9482999999999998  0.3223  1.0000
  C   C36       1.0  0.3124000000000001  0.7401999999999997  0.0868  1.0000
  C   C37       1.0  0.3781  0.837  0.059  1.0000
  C   C38       1.0  0.4554999999999999  0.7453999999999997  0.049399999999999986  1.0000
  C   C39       1.0  0.5667  0.7058  0.0318  1.0000
  C   C40       1.0  0.37280000000000013  0.9315999999999998  0.0466  1.0000
  C   C41       1.0  0.6467  0.2843  0.7215  1.0000
  C   C42       1.0  0.5726999999999999  0.331  0.631  1.0000
  C   C43       1.0  0.5139  0.3958  0.7016  1.0000
  C   C44       1.0  0.4207  0.4862999999999999  0.7245  1.0000
  C   C45       1.0  0.5609  0.3223  0.5517  1.0000
  C   C46       1.0  0.6008000000000001  0.08679999999999997  0.7597999999999999  1.0000
  C   C47       1.0  0.5629  0.059  0.663  1.0000
  C   C48       1.0  0.4951000000000001  0.049399999999999986  0.7545999999999999  1.0000
  C   C49       1.0  0.4015  0.031799999999999995  0.7942  1.0000
  C   C50       1.0  0.5806000000000001  0.04659999999999999  0.5683999999999998  1.0000
  C   C51       1.0  0.15249999999999997  0.2157  0.7785  1.0000
  C   C52       1.0  0.0347000000000001  0.16899999999999996  0.8689999999999998  1.0000
  C   C53       1.0  0.11130000000000012  0.10419999999999997  0.7983999999999998  1.0000
  C   C54       1.0  0.13150000000000003  0.013699999999999997  0.7754999999999999  1.0000
  C   C55       1.0  0.9348999999999998  0.17769999999999994  0.9482999999999998  1.0000
  C   C56       1.0  0.9474  0.4132  0.7402  1.0000
  C   C57       1.0  0.7849  0.4409999999999999  0.8369999999999997  1.0000
  C   C58       1.0  0.7991  0.4506  0.7454  1.0000
  C   C59       1.0  0.7275000000000003  0.4681999999999999  0.7058  1.0000
  C   C60       1.0  0.6956  0.4533999999999999  0.9316  1.0000
  C   C61       1.0  0.36820000000000014  0.2785  0.7843  1.0000
  C   C62       1.0  0.20370000000000013  0.369  0.8309999999999997  1.0000
  C   C63       1.0  0.21550000000000005  0.2983999999999999  0.8958  1.0000
  C   C64       1.0  0.14520000000000013  0.27549999999999997  0.9862999999999997  1.0000
  C   C65       1.0  0.11259999999999994  0.4483  0.8223  1.0000
  C   C66       1.0  0.3606  0.2402  0.5867999999999999  1.0000
  C   C67       1.0  0.22589999999999996  0.337  0.559  1.0000
  C   C68       1.0  0.2497  0.24539999999999995  0.5494  1.0000
  C   C69       1.0  0.19570000000000004  0.2058  0.5318  1.0000
  C   C70       1.0  0.14900000000000002  0.4316  0.5466  1.0000
  C   C71       1.0  0.931  0.2215  0.7156999999999998  1.0000
  C   C72       1.0  0.9037  0.131  0.669  1.0000
  C   C73       1.0  0.9097  0.2016  0.6042  1.0000
  C   C74       1.0  0.9069999999999999  0.22449999999999998  0.5137  1.0000
  C   C75       1.0  0.8832000000000002  0.05169999999999999  0.6776999999999997  1.0000
  C   C76       1.0  0.6876000000000001  0.2597999999999999  0.9132  1.0000
  C   C77       1.0  0.6219000000000002  0.163  0.9409999999999997  1.0000
  C   C78       1.0  0.5445000000000001  0.2546  0.9506  1.0000
  C   C79       1.0  0.43329999999999996  0.2941999999999999  0.9682  1.0000
  C   C80       1.0  0.6272000000000001  0.0684  0.9534  1.0000
  N   N1        1.0  0.4388000000000001  0.6338999999999999  0.2411  1.0000
  N   N2        1.0  0.3426000000000002  0.7397999999999998  0.35659999999999986  1.0000
  N   N3        1.0  0.37  0.9163999999999999  0.3316  1.0000
  N   N4        1.0  0.48119999999999996  0.9323  0.18529999999999994  1.0000
  N   N5        1.0  0.8138000000000001  0.8660999999999998  0.2589  1.0000
  N   N6        1.0  0.9390000000000001  0.7601999999999998  0.14339999999999994  1.0000
  N   N7        1.0  0.11800000000000006  0.5836  0.1684  1.0000
  N   N8        1.0  0.09880000000000008  0.5677  0.3147  1.0000
  N   N9        1.0  0.6799  0.7589  0.1339  1.0000
  N   N10       1.0  0.6992  0.6434  0.2398  1.0000
  N   N11       1.0  0.7016000000000001  0.6684  0.4164  1.0000
  N   N12       1.0  0.6664999999999999  0.8147  0.4322999999999999  1.0000
  N   N13       1.0  0.07269999999999997  0.7411  0.36609999999999987  1.0000
  N   N14       1.0  0.08240000000000015  0.8565999999999998  0.2602  1.0000
  N   N15       1.0  0.28639999999999993  0.8316  0.0836  1.0000
  N   N16       1.0  0.4135  0.6853  0.0677  1.0000
  N   N17       1.0  0.5612000000000003  0.36609999999999987  0.7588999999999998  1.0000
  N   N18       1.0  0.6574  0.26019999999999993  0.6434  1.0000
  N   N19       1.0  0.63  0.0836  0.6684  1.0000
  N   N20       1.0  0.5188000000000001  0.0677  0.8146999999999998  1.0000
  N   N21       1.0  0.18619999999999995  0.1339  0.7411  1.0000
  N   N22       1.0  0.06100000000000021  0.2398  0.8565999999999998  1.0000
  N   N23       1.0  0.8820000000000001  0.4164  0.8315999999999998  1.0000
  N   N24       1.0  0.9012  0.4322999999999999  0.6853  1.0000
  N   N25       1.0  0.3201000000000002  0.24109999999999998  0.8661  1.0000
  N   N26       1.0  0.3008000000000002  0.3566  0.7601999999999998  1.0000
  N   N27       1.0  0.2984000000000001  0.3315999999999999  0.5836  1.0000
  N   N28       1.0  0.33350000000000013  0.18529999999999994  0.5676999999999998  1.0000
  N   N29       1.0  0.9273000000000001  0.25889999999999996  0.6338999999999998  1.0000
  N   N30       1.0  0.9175999999999999  0.14339999999999994  0.7398  1.0000
  N   N31       1.0  0.7136000000000001  0.1684  0.9163999999999999  1.0000
  N   N32       1.0  0.5865  0.3147  0.9323  1.0000
  O   O1        1.0  0.6033000000000001  0.4688  0.20959999999999995  1.0000
  O   O2        1.0  0.6340999999999997  0.4817  0.3208999999999999  1.0000
  O   O3        1.0  0.5265000000000001  0.6269999999999999  0.4541999999999999  1.0000
  O   O4        1.0  0.3619  0.7374  0.5084  1.0000
  O   O5        1.0  0.6525000000000001  0.9572999999999998  0.11829999999999997  1.0000
  O   O6        1.0  0.6194000000000001  0.9958999999999998  0.2553  1.0000
  O   O7        1.0  0.4694000000000001  0.9840999999999998  0.4439  1.0000
  O   O8        1.0  0.35110000000000025  0.9303999999999998  0.4989999999999999  1.0000
  O   O9        1.0  0.7817  0.03119999999999999  0.2903999999999999  1.0000
  O   O10       1.0  0.9367  0.0183  0.17909999999999995  1.0000
  O   O11       1.0  0.10770000000000012  0.8729999999999998  0.04579999999999999  1.0000
  O   O12       1.0  0.10770000000000002  0.7626  0.9915999999999998  1.0000
  O   O13       1.0  0.22809999999999997  0.5427  0.3817  1.0000
  O   O14       1.0  0.37060000000000004  0.5041  0.2447  1.0000
  O   O15       1.0  0.39740000000000014  0.5158999999999998  0.0561  1.0000
  O   O16       1.0  0.2805  0.5696  0.001  1.0000
  O   O17       1.0  0.8129000000000001  0.7903999999999998  0.9687999999999998  1.0000
  O   O18       1.0  0.9550000000000001  0.6790999999999998  0.9816999999999998  1.0000
  O   O19       1.0  0.9807  0.5458  0.12699999999999997  1.0000
  O   O20       1.0  0.8703000000000001  0.49159999999999987  0.23739999999999994  1.0000
  O   O21       1.0  0.7708  0.8817  0.4573  1.0000
  O   O22       1.0  0.8747  0.7447  0.49589999999999995  1.0000
  O   O23       1.0  0.9132999999999996  0.5561  0.4841  1.0000
  O   O24       1.0  0.8501  0.501  0.4304  1.0000
  O   O25       1.0  0.07210000000000005  0.7095999999999998  0.5312  1.0000
  O   O26       1.0  0.11580000000000013  0.8208999999999997  0.5183  1.0000
  O   O27       1.0  0.15350000000000022  0.9541999999999998  0.3729999999999999  1.0000
  O   O28       1.0  0.0993  0.0084  0.2626  1.0000
  O   O29       1.0  0.6098  0.6183  0.0427  1.0000
  O   O30       1.0  0.6153  0.7553  0.0041  1.0000
  O   O31       1.0  0.4535  0.9439  0.0159  1.0000
  O   O32       1.0  0.2815000000000001  0.9989999999999998  0.0696  1.0000
  O   O33       1.0  0.3967000000000001  0.5311999999999999  0.7903999999999998  1.0000
  O   O34       1.0  0.36590000000000006  0.5182999999999999  0.6790999999999998  1.0000
  O   O35       1.0  0.47350000000000003  0.3729999999999999  0.5458  1.0000
  O   O36       1.0  0.6381000000000001  0.2626  0.49159999999999987  1.0000
  O   O37       1.0  0.3475  0.0427  0.8816999999999999  1.0000
  O   O38       1.0  0.3806000000000001  0.0041  0.7446999999999998  1.0000
  O   O39       1.0  0.5306  0.015899999999999997  0.5561  1.0000
  O   O40       1.0  0.6489000000000001  0.06959999999999997  0.501  1.0000
  O   O41       1.0  0.21830000000000008  0.9688  0.7096  1.0000
  O   O42       1.0  0.06330000000000004  0.9816999999999998  0.8209  1.0000
  O   O43       1.0  0.8922999999999999  0.12699999999999997  0.9541999999999998  1.0000
  O   O44       1.0  0.8923  0.23739999999999994  0.0084  1.0000
  O   O45       1.0  0.7719000000000001  0.4572999999999999  0.6183  1.0000
  O   O46       1.0  0.6294000000000001  0.49589999999999995  0.7553  1.0000
  O   O47       1.0  0.6025999999999998  0.4841  0.9438999999999999  1.0000
  O   O48       1.0  0.7195000000000004  0.4304  0.9989999999999999  1.0000
  O   O49       1.0  0.18709999999999993  0.20959999999999998  0.0312  1.0000
  O   O50       1.0  0.045000000000000005  0.32089999999999996  0.0183  1.0000
  O   O51       1.0  0.019300000000000213  0.4541999999999999  0.8729999999999998  1.0000
  O   O52       1.0  0.1297  0.5084  0.7626  1.0000
  O   O53       1.0  0.22920000000000013  0.11829999999999997  0.5426999999999998  1.0000
  O   O54       1.0  0.1253  0.2553  0.5041  1.0000
  O   O55       1.0  0.08670000000000014  0.4438999999999999  0.5158999999999999  1.0000
  O   O56       1.0  0.14990000000000012  0.4989999999999999  0.5695999999999998  1.0000
  O   O57       1.0  0.9278999999999995  0.2904  0.4688  1.0000
  O   O58       1.0  0.8842  0.1791  0.4816999999999999  1.0000
  O   O59       1.0  0.8465  0.04579999999999999  0.627  1.0000
  O   O60       1.0  0.9007000000000002  0.9915999999999998  0.7373999999999998  1.0000
  O   O61       1.0  0.3902000000000001  0.3816999999999999  0.9573  1.0000
  O   O62       1.0  0.3847000000000001  0.2447  0.9959  1.0000
  O   O63       1.0  0.5464999999999999  0.0561  0.9841  1.0000
  O   O64       1.0  0.7185  0.001  0.9304  1.0000
