data_image0
_chemical_formula_structural       Zn3H24C38N12O8
_chemical_formula_sum              "Zn3 H24 C38 N12 O8"
_cell_length_a       11.4581
_cell_length_b       11.681900000000002
_cell_length_c       11.8696
_cell_angle_alpha    64.132
_cell_angle_beta     81.202
_cell_angle_gamma    72.66299999999998

_symmetry_space_group_name_H-M    'P 1'
_symmetry_Int_Tables_number       1

loop_
  _symmetry_equiv_pos_as_xyz
  'x,y,z'

loop_
  _atom_site_type_symbol
  _atom_site_label
  _atom_site_symmetry_multiplicity
  _atom_site_fract_x
  _atom_site_fract_y
  _atom_site_fract_z
  _atom_site_occupancy
  Zn  Zn1       1.0  0.0  0.0  0.5  1.0000
  Zn  Zn2       1.0  0.0  0.5000000000000001  0.5  1.0000
  Zn  Zn3       1.0  0.0  0.0  0.0  1.0000
  H   H1        1.0  0.7797999999999999  0.9993  0.688  1.0000
  H   H2        1.0  0.6401  0.4019  0.3674  1.0000
  H   H3        1.0  0.5819  0.11710000000000004  0.6996  1.0000
  H   H4        1.0  0.20839999999999984  0.37220000000000003  0.6998  1.0000
  H   H5        1.0  0.8363999999999999  0.27619999999999995  0.3662  1.0000
  H   H6        1.0  0.4163  0.27710000000000007  0.7148  1.0000
  H   H7        1.0  0.4416999999999999  0.44190000000000007  0.3391  1.0000
  H   H8        1.0  0.23380000000000004  0.5298  0.3363  1.0000
  H   H9        1.0  0.5395999999999996  0.19440000000000004  0.9514  1.0000
  H   H10       1.0  0.8411  0.8137000000000001  0.0316  1.0000
  H   H11       1.0  0.6439  0.8077  0.0347  1.0000
  H   H12       1.0  0.7403999999999997  0.19000000000000017  0.9456999999999999  1.0000
  H   H13       1.0  0.22020000000000003  0.0006999999999999916  0.312  1.0000
  H   H14       1.0  0.3599  0.5981  0.6326  1.0000
  H   H15       1.0  0.4181000000000003  0.8829  0.3004  1.0000
  H   H16       1.0  0.7915999999999999  0.6278000000000002  0.3002  1.0000
  H   H17       1.0  0.1635999999999999  0.7238000000000001  0.6338  1.0000
  H   H18       1.0  0.5836999999999999  0.7229  0.2852  1.0000
  H   H19       1.0  0.5583000000000001  0.5581  0.6609  1.0000
  H   H20       1.0  0.7661999999999999  0.4702000000000001  0.6637  1.0000
  H   H21       1.0  0.46040000000000003  0.8056  0.0486  1.0000
  H   H22       1.0  0.15889999999999987  0.1863  0.9684  1.0000
  H   H23       1.0  0.3561  0.19229999999999997  0.9653  1.0000
  H   H24       1.0  0.25960000000000005  0.81  0.054299999999999994  1.0000
  C   C1        1.0  0.7508  0.0806  0.6223  1.0000
  C   C2        1.0  0.02330000000000001  0.2205  0.6195  1.0000
  C   C3        1.0  0.0396  0.9668000000000001  0.7666  1.0000
  C   C4        1.0  0.4533  0.3437  0.5275  1.0000
  C   C5        1.0  0.6657  0.3196  0.433  1.0000
  C   C6        1.0  0.6313  0.1506  0.6298  1.0000
  C   C7        1.0  0.25579999999999997  0.3842  0.6266  1.0000
  C   C8        1.0  0.05150000000000002  0.24759999999999996  0.4839  1.0000
  C   C9        1.0  0.019599999999999992  0.11129999999999997  0.7298  1.0000
  C   C10       1.0  0.5854000000000001  0.2724000000000001  0.5314  1.0000
  C   C11       1.0  0.7839999999999998  0.2433  0.4331  1.0000
  C   C12       1.0  0.3812  0.3264  0.6366  1.0000
  C   C13       1.0  0.3963  0.4239  0.41390000000000005  1.0000
  C   C14       1.0  0.2708999999999999  0.4769  0.4132  1.0000
  C   C15       1.0  0.5656000000000001  0.0006000000000000213  0.9966999999999999  1.0000
  C   C16       1.0  0.5992  0.11519999999999994  0.9684  1.0000
  C   C17       1.0  0.7794999999999999  0.8913  0.0152  1.0000
  C   C18       1.0  0.6609  0.8866000000000002  0.0183  1.0000
  C   C19       1.0  0.7203  0.11170000000000001  0.9654999999999999  1.0000
  C   C20       1.0  0.24919999999999995  0.9194000000000003  0.3776999999999999  1.0000
  C   C21       1.0  0.9766999999999998  0.7795  0.38050000000000006  1.0000
  C   C22       1.0  0.9603999999999999  0.03319999999999999  0.2334  1.0000
  C   C23       1.0  0.5467  0.6563  0.4725  1.0000
  C   C24       1.0  0.33429999999999993  0.6804000000000001  0.567  1.0000
  C   C25       1.0  0.36869999999999997  0.8494000000000002  0.3702  1.0000
  C   C26       1.0  0.7442  0.6158000000000001  0.3734  1.0000
  C   C27       1.0  0.9484999999999998  0.7524  0.5161  1.0000
  C   C28       1.0  0.9803999999999998  0.8887000000000002  0.2702  1.0000
  C   C29       1.0  0.4145999999999999  0.7276000000000001  0.4686  1.0000
  C   C30       1.0  0.21599999999999994  0.7567000000000003  0.5669  1.0000
  C   C31       1.0  0.6188  0.6736000000000001  0.3634  1.0000
  C   C32       1.0  0.6036999999999998  0.5761  0.5861  1.0000
  C   C33       1.0  0.7290999999999999  0.5231  0.5868  1.0000
  C   C34       1.0  0.4343999999999998  0.9994000000000002  0.0033000000000000004  1.0000
  C   C35       1.0  0.40079999999999993  0.8848000000000003  0.0316  1.0000
  C   C36       1.0  0.22049999999999995  0.10869999999999998  0.9848  1.0000
  C   C37       1.0  0.3391  0.11339999999999996  0.9817  1.0000
  C   C38       1.0  0.2796999999999998  0.8883000000000002  0.0345  1.0000
  N   N1        1.0  0.9968  0.3240000000000001  0.6505  1.0000
  N   N2        1.0  0.8267999999999999  0.12419999999999999  0.5251  1.0000
  N   N3        1.0  0.20040000000000005  0.4559  0.5172  1.0000
  N   N4        1.0  0.9766  0.2829  0.7735  1.0000
  N   N5        1.0  0.9907  0.15369999999999998  0.8225  1.0000
  N   N6        1.0  0.8112999999999999  0.0013999999999999434  0.9898  1.0000
  N   N7        1.0  0.0031999999999999143  0.6760000000000003  0.3495  1.0000
  N   N8        1.0  0.1732  0.8758000000000001  0.47489999999999993  1.0000
  N   N9        1.0  0.7996  0.5441  0.4828  1.0000
  N   N10       1.0  0.02340000000000002  0.7171  0.2265  1.0000
  N   N11       1.0  0.009299999999999978  0.8463000000000002  0.1775  1.0000
  N   N12       1.0  0.18869999999999992  0.9986000000000003  0.0102  1.0000
  O   O1        1.0  0.08359999999999998  0.15490000000000004  0.4496  1.0000
  O   O2        1.0  0.04369999999999997  0.3672  0.4115  1.0000
  O   O3        1.0  0.043600000000000055  0.9222  0.6883  1.0000
  O   O4        1.0  0.05209999999999997  0.8957  0.8835  1.0000
  O   O5        1.0  0.9164  0.8451  0.5504  1.0000
  O   O6        1.0  0.9563000000000001  0.6328000000000001  0.5885  1.0000
  O   O7        1.0  0.9564  0.0778  0.3117  1.0000
  O   O8        1.0  0.9479  0.1043  0.11650000000000002  1.0000
