data_image0
_chemical_formula_structural       Cu32H192C96I32N32
_chemical_formula_sum              "Cu32 H192 C96 I32 N32"
_cell_length_a       15.44269
_cell_length_b       18.04219
_cell_length_c       21.814799999999998
_cell_angle_alpha    114.48041
_cell_angle_beta     110.70808999999998
_cell_angle_gamma    90.01543000000001

_symmetry_space_group_name_H-M    'P 1'
_symmetry_Int_Tables_number       1

loop_
  _symmetry_equiv_pos_as_xyz
  'x,y,z'

loop_
  _atom_site_type_symbol
  _atom_site_label
  _atom_site_symmetry_multiplicity
  _atom_site_fract_x
  _atom_site_fract_y
  _atom_site_fract_z
  _atom_site_occupancy
  Cu  Cu1       1.0  0.36779  0.15142  0.73455  1.0000
  Cu  Cu2       1.0  0.63219  0.84835  0.26544000000000006  1.0000
  Cu  Cu3       1.0  0.33722  0.24402  0.67344  1.0000
  Cu  Cu4       1.0  0.66236  0.7525500000000002  0.3252  1.0000
  Cu  Cu5       1.0  0.6064600000000002  0.34439000000000003  0.21511000000000005  1.0000
  Cu  Cu6       1.0  0.3902300000000002  0.6549399999999999  0.7837100000000001  1.0000
  Cu  Cu7       1.0  0.3860800000000001  0.10236999999999999  0.60851  1.0000
  Cu  Cu8       1.0  0.7746700000000004  0.8888300000000001  0.38676000000000005  1.0000
  Cu  Cu9       1.0  0.6110300000000002  0.88895  0.38657  1.0000
  Cu  Cu10      1.0  0.5157100000000001  0.21898  0.19903  1.0000
  Cu  Cu11      1.0  0.31648  0.7809699999999999  0.80069  1.0000
  Cu  Cu12      1.0  0.4844000000000001  0.78089  0.80132  1.0000
  Cu  Cu13      1.0  0.6836600000000003  0.22010999999999997  0.2002  1.0000
  Cu  Cu14      1.0  0.8664100000000002  0.58184  0.73349  1.0000
  Cu  Cu15      1.0  0.8352000000000003  0.42621  0.67299  1.0000
  Cu  Cu16      1.0  0.89194  0.12957999999999997  0.78462  1.0000
  Cu  Cu17      1.0  0.72377  0.50293  0.61296  1.0000
  Cu  Cu18      1.0  0.8870300000000003  0.5005  0.61198  1.0000
  Cu  Cu19      1.0  0.8175500000000003  0.01896000000000006  0.7994800000000001  1.0000
  Cu  Cu20      1.0  0.13044  0.41699  0.26595  1.0000
  Cu  Cu21      1.0  0.16414  0.57108  0.32774  1.0000
  Cu  Cu22      1.0  0.10816000000000003  0.8705299999999999  0.21616  1.0000
  Cu  Cu23      1.0  0.18241  0.9807899999999999  0.20003  1.0000
  Cu  Cu24      1.0  0.5453900000000003  0.22557  0.09014  1.0000
  Cu  Cu25      1.0  0.4545900000000001  0.77423  0.90994  1.0000
  Cu  Cu26      1.0  0.22087000000000018  0.1031000000000001  0.6096300000000001  1.0000
  Cu  Cu27      1.0  0.9564900000000003  0.13631000000000007  0.9097900000000001  1.0000
  Cu  Cu28      1.0  0.9827000000000004  0.019270000000000002  0.79826  1.0000
  Cu  Cu29      1.0  0.04362000000000001  0.86329  0.09001  1.0000
  Cu  Cu30      1.0  0.1126  0.49293  0.39136  1.0000
  Cu  Cu31      1.0  0.27744000000000013  0.49263  0.39085  1.0000
  Cu  Cu32      1.0  0.01703000000000001  0.9806299999999999  0.20096  1.0000
  H   H1        1.0  0.5589100000000004  0.1608200000000001  0.8465600000000001  1.0000
  H   H2        1.0  0.7121300000000003  0.83939  0.15429  1.0000
  H   H3        1.0  0.44139000000000017  0.8394699999999999  0.15416  1.0000
  H   H4        1.0  0.28826  0.16083999999999998  0.84639  1.0000
  H   H5        1.0  0.48817000000000016  0.0683300000000001  0.8233900000000002  1.0000
  H   H6        1.0  0.66437  0.9317299999999998  0.17747  1.0000
  H   H7        1.0  0.5125  0.9317499999999999  0.17731000000000002  1.0000
  H   H8        1.0  0.33570000000000005  0.06832  0.82322  1.0000
  H   H9        1.0  0.5515800000000002  0.09356999999999997  0.94741  1.0000
  H   H10       1.0  0.6044800000000002  0.9068699999999998  0.05362000000000001  1.0000
  H   H11       1.0  0.4487000000000001  0.9067799999999999  0.05344  1.0000
  H   H12       1.0  0.39606000000000013  0.0934700000000001  0.9472  1.0000
  H   H13       1.0  0.6207800000000002  0.18714000000000008  0.97085  1.0000
  H   H14       1.0  0.6501700000000002  0.8132499999999999  0.03004  1.0000
  H   H15       1.0  0.37954  0.8131  0.029860000000000005  1.0000
  H   H16       1.0  0.3501300000000001  0.18694000000000013  0.9706100000000001  1.0000
  H   H17       1.0  0.38561000000000023  0.3598000000000001  0.6155200000000002  1.0000
  H   H18       1.0  0.7692600000000004  0.63789  0.38328  1.0000
  H   H19       1.0  0.61383  0.63793  0.38337  1.0000
  H   H20       1.0  0.22993999999999995  0.35932  0.61545  1.0000
  H   H21       1.0  0.48328000000000004  0.37650000000000006  0.6961000000000002  1.0000
  H   H22       1.0  0.7866100000000005  0.62198  0.30296  1.0000
  H   H23       1.0  0.5161000000000002  0.62197  0.30306  1.0000
  H   H24       1.0  0.21283000000000005  0.37578  0.69597  1.0000
  H   H25       1.0  0.4975900000000001  0.47784999999999994  0.26626  1.0000
  H   H26       1.0  0.23033000000000012  0.51974  0.7322200000000002  1.0000
  H   H27       1.0  0.50122  0.52049  0.73253  1.0000
  H   H28       1.0  0.7682900000000003  0.47774000000000005  0.2661  1.0000
  H   H29       1.0  0.5974500000000001  0.49273000000000006  0.34498  1.0000
  H   H30       1.0  0.2500900000000001  0.5044999999999998  0.6528900000000002  1.0000
  H   H31       1.0  0.40233  0.50504  0.65306  1.0000
  H   H32       1.0  0.74727  0.49267  0.34489  1.0000
  H   H33       1.0  0.3822300000000001  0.28834  0.87902  1.0000
  H   H34       1.0  0.5029000000000002  0.7111399999999999  0.121  1.0000
  H   H35       1.0  0.61776  0.71136  0.121  1.0000
  H   H36       1.0  0.49712  0.2885400000000001  0.87902  1.0000
  H   H37       1.0  0.55933  0.31331  0.00321  1.0000
  H   H38       1.0  0.5555600000000003  0.68676  0.99687  1.0000
  H   H39       1.0  0.4407700000000001  0.68698  0.99701  1.0000
  H   H40       1.0  0.44454  0.31355999999999995  0.0033500000000000005  1.0000
  H   H41       1.0  0.3446200000000001  0.39536  0.80395  1.0000
  H   H42       1.0  0.5399400000000002  0.6035  0.19517000000000007  1.0000
  H   H43       1.0  0.6548300000000002  0.60358  0.19514  1.0000
  H   H44       1.0  0.4595300000000001  0.39559  0.80392  1.0000
  H   H45       1.0  0.6353800000000002  0.45876999999999996  0.15602  1.0000
  H   H46       1.0  0.47826  0.5402199999999999  0.84207  1.0000
  H   H47       1.0  0.36354000000000014  0.54004  0.8422900000000001  1.0000
  H   H48       1.0  0.5204700000000001  0.45874  0.15597000000000005  1.0000
  H   H49       1.0  0.7870300000000003  0.6853800000000001  0.8450200000000001  1.0000
  H   H50       1.0  0.05793999999999998  0.6857  0.84551  1.0000
  H   H51       1.0  0.8351300000000004  0.7552900000000001  0.8227300000000001  1.0000
  H   H52       1.0  0.9875900000000001  0.75557  0.82308  1.0000
  H   H53       1.0  0.8955100000000003  0.85327  0.9470200000000001  1.0000
  H   H54       1.0  0.051120000000000006  0.8534600000000001  0.9474700000000001  1.0000
  H   H55       1.0  0.84894  0.78269  0.96961  1.0000
  H   H56       1.0  0.11977000000000004  0.7827100000000002  0.9701200000000001  1.0000
  H   H57       1.0  0.7295800000000002  0.25326  0.61601  1.0000
  H   H58       1.0  0.88561  0.2535  0.61595  1.0000
  H   H59       1.0  0.7124100000000002  0.31835  0.6963  1.0000
  H   H60       1.0  0.9829200000000003  0.31877  0.69628  1.0000
  H   H61       1.0  0.0020600000000000193  0.21214999999999995  0.7339  1.0000
  H   H62       1.0  0.7313200000000003  0.2117400000000001  0.7339200000000001  1.0000
  H   H63       1.0  0.9023400000000005  0.14759000000000003  0.65537  1.0000
  H   H64       1.0  0.7526700000000002  0.1474  0.6554  1.0000
  H   H65       1.0  0.6999400000000002  0.85537  0.8779  1.0000
  H   H66       1.0  0.6786200000000003  0.02361000000000006  0.8769400000000002  1.0000
  H   H67       1.0  0.62076  0.9211799999999999  0.90201  1.0000
  H   H68       1.0  0.7820800000000003  0.98235  0.9011000000000001  1.0000
  H   H69       1.0  0.5834700000000003  0.76491  0.68627  1.0000
  H   H70       1.0  0.6013800000000001  0.92087  0.6855100000000001  1.0000
  H   H71       1.0  0.6574000000000004  0.7475100000000001  0.7606200000000002  1.0000
  H   H72       1.0  0.6028700000000002  0.012910000000000093  0.7603000000000002  1.0000
  H   H73       1.0  0.5059  0.9426099999999998  0.7907  1.0000
  H   H74       1.0  0.7846300000000003  0.8481799999999998  0.79043  1.0000
  H   H75       1.0  0.4782400000000001  0.86127  0.70261  1.0000
  H   H76       1.0  0.7238600000000002  0.83996  0.70188  1.0000
  H   H77       1.0  0.99582  0.58977  0.87698  1.0000
  H   H78       1.0  0.88093  0.58959  0.87688  1.0000
  H   H79       1.0  0.9431700000000002  0.68794  0.00153  1.0000
  H   H80       1.0  0.05801000000000001  0.68837  0.0013800000000000002  1.0000
  H   H81       1.0  0.95883  0.40885  0.80344  1.0000
  H   H82       1.0  0.8440900000000003  0.40892000000000006  0.8036700000000001  1.0000
  H   H83       1.0  0.8642800000000003  0.30423  0.8439  1.0000
  H   H84       1.0  0.9791300000000002  0.30424  0.8437700000000002  1.0000
  H   H85       1.0  0.9402600000000002  0.3134100000000001  0.15287  1.0000
  H   H86       1.0  0.21169000000000007  0.31505  0.15459000000000003  1.0000
  H   H87       1.0  0.010900000000000017  0.2439  0.17571000000000003  1.0000
  H   H88       1.0  0.16395000000000007  0.24501000000000003  0.17693  1.0000
  H   H89       1.0  0.94833  0.1458  0.05137  1.0000
  H   H90       1.0  0.10420000000000003  0.14665  0.0527  1.0000
  H   H91       1.0  0.8794  0.21618  0.02831  1.0000
  H   H92       1.0  0.15089000000000005  0.21721  0.03015  1.0000
  H   H93       1.0  0.11481000000000005  0.7454700000000001  0.3851000000000001  1.0000
  H   H94       1.0  0.27096  0.7454899999999999  0.38503  1.0000
  H   H95       1.0  0.017429999999999994  0.68073  0.30456  1.0000
  H   H96       1.0  0.28778  0.68082  0.30446  1.0000
  H   H97       1.0  0.2693400000000002  0.78785  0.26746000000000003  1.0000
  H   H98       1.0  0.9986500000000001  0.7876100000000001  0.26746000000000003  1.0000
  H   H99       1.0  0.2493500000000001  0.85235  0.34659000000000006  1.0000
  H   H100      1.0  0.09764000000000007  0.85231  0.34659000000000006  1.0000
  H   H101      1.0  0.3003200000000001  0.14534000000000002  0.12238000000000002  1.0000
  H   H102      1.0  0.32139000000000006  0.9768099999999998  0.12277  1.0000
  H   H103      1.0  0.3795600000000001  0.07964  0.09827  1.0000
  H   H104      1.0  0.21797000000000002  0.018169999999999995  0.09863  1.0000
  H   H105      1.0  0.4160000000000001  0.23561999999999997  0.31395  1.0000
  H   H106      1.0  0.3978800000000001  0.07940000000000001  0.31429000000000007  1.0000
  H   H107      1.0  0.34220000000000006  0.25266  0.23930000000000004  1.0000
  H   H108      1.0  0.3968500000000001  0.98732  0.23976000000000003  1.0000
  H   H109      1.0  0.4939100000000002  0.0577  0.20942  1.0000
  H   H110      1.0  0.21506  0.15205  0.20952  1.0000
  H   H111      1.0  0.5215800000000003  0.13883  0.29764  1.0000
  H   H112      1.0  0.27577  0.15984  0.29791  1.0000
  H   H113      1.0  0.11805000000000002  0.41  0.12240000000000001  1.0000
  H   H114      1.0  0.0028900000000000115  0.40984  0.12179000000000001  1.0000
  H   H115      1.0  0.9413100000000002  0.3108600000000001  0.9974  1.0000
  H   H116      1.0  0.056370000000000114  0.31166  0.99769  1.0000
  H   H117      1.0  0.15631000000000006  0.59127  0.1971  1.0000
  H   H118      1.0  0.041460000000000025  0.59126  0.19716  1.0000
  H   H119      1.0  0.021740000000000013  0.69673  0.15789  1.0000
  H   H120      1.0  0.13653000000000007  0.69675  0.15778  1.0000
  H   H121      1.0  0.17801000000000008  0.85531  0.87759  1.0000
  H   H122      1.0  0.19846000000000014  0.02355000000000005  0.8765900000000001  1.0000
  H   H123      1.0  0.2811900000000001  0.92109  0.90151  1.0000
  H   H124      1.0  0.11909  0.9823899999999999  0.90081  1.0000
  H   H125      1.0  0.10249999999999998  0.76484  0.68585  1.0000
  H   H126      1.0  0.08410999999999999  0.9207799999999999  0.68515  1.0000
  H   H127      1.0  0.10303000000000015  0.7475900000000001  0.7603300000000001  1.0000
  H   H128      1.0  0.15738  0.012890000000000007  0.75986  1.0000
  H   H129      1.0  0.2846700000000001  0.9427099999999999  0.79049  1.0000
  H   H130      1.0  0.005690000000000085  0.8483299999999999  0.7901900000000001  1.0000
  H   H131      1.0  0.22453  0.86142  0.70227  1.0000
  H   H132      1.0  0.9779200000000002  0.84009  0.70166  1.0000
  H   H133      1.0  0.8218200000000002  0.14559  0.12276000000000001  1.0000
  H   H134      1.0  0.80114  0.9770199999999999  0.12312  1.0000
  H   H135      1.0  0.7185700000000003  0.07993000000000001  0.09884000000000001  1.0000
  H   H136      1.0  0.8803900000000002  0.018359999999999998  0.0989  1.0000
  H   H137      1.0  0.89825  0.23579000000000003  0.31441  1.0000
  H   H138      1.0  0.9164100000000001  0.07956999999999999  0.3146  1.0000
  H   H139      1.0  0.89725  0.25270000000000004  0.23964000000000002  1.0000
  H   H140      1.0  0.8429300000000002  0.98744  0.24017  1.0000
  H   H141      1.0  0.7155800000000001  0.05770999999999999  0.20964  1.0000
  H   H142      1.0  0.9945200000000002  0.15202  0.20978  1.0000
  H   H143      1.0  0.77584  0.13872  0.29804  1.0000
  H   H144      1.0  0.02212999999999998  0.15977999999999995  0.29812  1.0000
  H   H145      1.0  0.3412100000000001  0.01444  0.44303  1.0000
  H   H146      1.0  0.4247900000000001  0.10355999999999997  0.48016  1.0000
  H   H147      1.0  0.15783  0.57153  0.5573  1.0000
  H   H148      1.0  0.07431000000000004  0.62361  0.52045  1.0000
  H   H149      1.0  0.05444999999999999  0.10338000000000001  0.47998  1.0000
  H   H150      1.0  0.10109000000000003  0.014270000000000036  0.44310000000000005  1.0000
  H   H151      1.0  0.4446700000000001  0.6234199999999999  0.51962  1.0000
  H   H152      1.0  0.39773  0.57138  0.55643  1.0000
  H   H153      1.0  0.86674  0.06173999999999997  0.50725  1.0000
  H   H154      1.0  0.88186  0.99394  0.54894  1.0000
  H   H155      1.0  0.63221  0.5542200000000002  0.4924700000000001  1.0000
  H   H156      1.0  0.6169400000000003  0.44464  0.45072  1.0000
  H   H157      1.0  0.6661100000000002  0.99426  0.54917  1.0000
  H   H158      1.0  0.6399100000000002  0.06222  0.50767  1.0000
  H   H159      1.0  0.8328400000000002  0.44434  0.45008000000000004  1.0000
  H   H160      1.0  0.8594300000000002  0.55389  0.49226000000000003  1.0000
  H   H161      1.0  0.4709500000000001  0.9404599999999999  0.5748600000000001  1.0000
  H   H162      1.0  0.36968  0.9190499999999999  0.49595  1.0000
  H   H163      1.0  0.028990000000000002  0.36553  0.42461  1.0000
  H   H164      1.0  0.1299400000000001  0.42328999999999994  0.5037300000000001  1.0000
  H   H165      1.0  0.9987700000000002  0.62575  0.59867  1.0000
  H   H166      1.0  0.08095000000000009  0.57032  0.6333800000000002  1.0000
  H   H167      1.0  0.56542  0.13366000000000006  0.5884500000000001  1.0000
  H   H168      1.0  0.5867700000000002  0.06256999999999999  0.62607  1.0000
  H   H169      1.0  0.9337400000000002  0.545  0.41152  1.0000
  H   H170      1.0  0.9128300000000004  0.4361499999999999  0.37368  1.0000
  H   H171      1.0  0.03800000000000003  0.06228000000000003  0.6259500000000001  1.0000
  H   H172      1.0  0.021700000000000046  0.13346  0.58838  1.0000
  H   H173      1.0  0.4608800000000001  0.43598  0.37363  1.0000
  H   H174      1.0  0.4773800000000002  0.54485  0.41126  1.0000
  H   H175      1.0  0.9456700000000002  0.8708300000000001  0.50173  1.0000
  H   H176      1.0  0.9701200000000002  0.8448299999999999  0.42254  1.0000
  H   H177      1.0  0.55288  0.36882000000000004  0.49739000000000005  1.0000
  H   H178      1.0  0.52838  0.42171  0.57663  1.0000
  H   H179      1.0  0.4523100000000001  0.8449  0.42268  1.0000
  H   H180      1.0  0.55584  0.8714  0.50197  1.0000
  H   H181      1.0  0.04717000000000005  0.42148  0.57658  1.0000
  H   H182      1.0  0.9439000000000004  0.36823  0.49707000000000007  1.0000
  H   H183      1.0  0.12571000000000004  0.9193199999999999  0.49601  1.0000
  H   H184      1.0  0.10323999999999997  0.9403999999999999  0.57485  1.0000
  H   H185      1.0  0.3728500000000002  0.4230200000000001  0.5032300000000001  1.0000
  H   H186      1.0  0.39545  0.36537  0.42441  1.0000
  H   H187      1.0  0.9481900000000003  0.93721  0.3664  1.0000
  H   H188      1.0  0.90072  0.027500000000000066  0.4011300000000001  1.0000
  H   H189      1.0  0.5504700000000002  0.5708900000000001  0.6331700000000001  1.0000
  H   H190      1.0  0.5981500000000002  0.62628  0.5985  1.0000
  H   H191      1.0  0.49969000000000013  0.0279  0.40126  1.0000
  H   H192      1.0  0.4176600000000001  0.93749  0.36646  1.0000
  C   C1        1.0  0.44664000000000015  0.26249  0.8928300000000001  1.0000
  C   C2        1.0  0.5534500000000002  0.7373599999999999  0.10735  1.0000
  C   C3        1.0  0.48722000000000015  0.27881000000000006  0.9740100000000002  1.0000
  C   C4        1.0  0.51291  0.7214199999999998  0.026280000000000005  1.0000
  C   C5        1.0  0.50852  0.13467  0.86038  1.0000
  C   C6        1.0  0.6479200000000004  0.86543  0.14037  1.0000
  C   C7        1.0  0.4918300000000001  0.86544  0.14028  1.0000
  C   C8        1.0  0.3523600000000001  0.13465  0.86026  1.0000
  C   C9        1.0  0.5493600000000001  0.15124000000000007  0.9416800000000001  1.0000
  C   C10       1.0  0.6077500000000001  0.8490499999999999  0.0591  1.0000
  C   C11       1.0  0.4509400000000001  0.84901  0.05899  1.0000
  C   C12       1.0  0.3925500000000001  0.15117000000000003  0.9415400000000002  1.0000
  C   C13       1.0  0.3923600000000001  0.41579  0.78468  1.0000
  C   C14       1.0  0.6069100000000001  0.58292  0.21414  1.0000
  C   C15       1.0  0.5942000000000002  0.4886  0.18861  1.0000
  C   C16       1.0  0.4046000000000001  0.51009  0.80962  1.0000
  C   C17       1.0  0.41687000000000013  0.03799999999999999  0.46787  1.0000
  C   C18       1.0  0.05016000000000002  0.03789000000000004  0.46785000000000004  1.0000
  C   C19       1.0  0.91287  0.02097000000000002  0.52309  1.0000
  C   C20       1.0  0.6093800000000003  0.02135000000000002  0.5233  1.0000
  C   C21       1.0  0.44521  0.9439  0.52259  1.0000
  C   C22       1.0  0.07670000000000006  0.9439  0.52258  1.0000
  C   C23       1.0  0.9495800000000004  0.98835  0.4168300000000001  1.0000
  C   C24       1.0  0.4666000000000001  0.9886499999999999  0.41692  1.0000
  C   C25       1.0  0.55848  0.06759  0.57446  1.0000
  C   C26       1.0  0.014779999999999984  0.06739  0.57436  1.0000
  C   C27       1.0  0.9745900000000002  0.89628  0.47386999999999996  1.0000
  C   C28       1.0  0.4987900000000001  0.8965399999999999  0.47396  1.0000
  C   C29       1.0  0.41592000000000007  0.39561  0.67523  1.0000
  C   C30       1.0  0.7400000000000002  0.60249  0.32354000000000005  1.0000
  C   C31       1.0  0.5833100000000002  0.60253  0.32363  1.0000
  C   C32       1.0  0.25921000000000016  0.3951700000000001  0.6751600000000001  1.0000
  C   C33       1.0  0.57129  0.50793  0.2986  1.0000
  C   C34       1.0  0.27145000000000014  0.48974  0.69961  1.0000
  C   C35       1.0  0.4276300000000001  0.49021000000000003  0.69974  1.0000
  C   C36       1.0  0.72699  0.50786  0.2985  1.0000
  C   C37       1.0  0.9453500000000002  0.6295  0.89104  1.0000
  C   C38       1.0  0.9859200000000002  0.69388  0.9724200000000001  1.0000
  C   C39       1.0  0.85139  0.7254  0.8592500000000001  1.0000
  C   C40       1.0  0.007610000000000031  0.72561  0.85953  1.0000
  C   C41       1.0  0.89165  0.7896800000000002  0.94082  1.0000
  C   C42       1.0  0.04849  0.78981  0.94115  1.0000
  C   C43       1.0  0.89206  0.36918000000000006  0.7848500000000002  1.0000
  C   C44       1.0  0.9052900000000003  0.30101000000000006  0.81111  1.0000
  C   C45       1.0  0.44872  0.57005  0.53172  1.0000
  C   C46       1.0  0.5859300000000002  0.49758  0.47651  1.0000
  C   C47       1.0  0.4219900000000001  0.42108999999999996  0.47680000000000006  1.0000
  C   C48       1.0  0.5491600000000002  0.57145  0.58275  1.0000
  C   C49       1.0  0.48410000000000014  0.49280000000000007  0.4252300000000001  1.0000
  C   C50       1.0  0.52399  0.4221  0.52545  1.0000
  C   C51       1.0  0.6547300000000003  0.8971499999999999  0.86303  1.0000
  C   C52       1.0  0.7089800000000003  0.96691  0.86241  1.0000
  C   C53       1.0  0.63369  0.7956499999999999  0.74332  1.0000
  C   C54       1.0  0.60917  0.9474  0.74282  1.0000
  C   C55       1.0  0.53656  0.90036  0.75432  1.0000
  C   C56       1.0  0.7175200000000003  0.8536  0.75387  1.0000
  C   C57       1.0  0.7590600000000002  0.27824  0.6758  1.0000
  C   C58       1.0  0.9158800000000002  0.2784700000000001  0.6757400000000002  1.0000
  C   C59       1.0  0.9283100000000001  0.20949000000000004  0.70143  1.0000
  C   C60       1.0  0.77259  0.20928000000000005  0.70147  1.0000
  C   C61       1.0  0.05348000000000001  0.3701  0.10800000000000001  1.0000
  C   C62       1.0  0.013400000000000006  0.30564  0.026630000000000004  1.0000
  C   C63       1.0  0.9909200000000002  0.27372  0.13915000000000002  1.0000
  C   C64       1.0  0.14754  0.27464  0.14021  1.0000
  C   C65       1.0  0.9506800000000001  0.20942  0.05764  1.0000
  C   C66       1.0  0.10794000000000002  0.21019  0.058750000000000004  1.0000
  C   C67       1.0  0.10839000000000003  0.63093  0.21614  1.0000
  C   C68       1.0  0.09551000000000004  0.6996599999999998  0.19050000000000003  1.0000
  C   C69       1.0  0.3454300000000001  0.10344000000000002  0.13715  1.0000
  C   C70       1.0  0.2910200000000001  0.03349999999999999  0.1374  1.0000
  C   C71       1.0  0.3660100000000001  0.20467  0.2568  1.0000
  C   C72       1.0  0.39044000000000006  0.05279  0.25707  1.0000
  C   C73       1.0  0.46327000000000007  0.09989000000000003  0.24586000000000002  1.0000
  C   C74       1.0  0.28215  0.14649  0.24600000000000002  1.0000
  C   C75       1.0  0.08463000000000005  0.72095  0.32534  1.0000
  C   C76       1.0  0.2413400000000001  0.72098  0.32527  1.0000
  C   C77       1.0  0.2283800000000001  0.79055  0.30019  1.0000
  C   C78       1.0  0.07235000000000004  0.79047  0.30022  1.0000
  C   C79       1.0  0.20822000000000004  0.8970899999999999  0.86262  1.0000
  C   C80       1.0  0.15348  0.96691  0.86209  1.0000
  C   C81       1.0  0.10942000000000003  0.7956499999999999  0.74295  1.0000
  C   C82       1.0  0.13367000000000007  0.94737  0.7424400000000001  1.0000
  C   C83       1.0  0.21773000000000006  0.90039  0.75394  1.0000
  C   C84       1.0  0.03626000000000006  0.8536700000000002  0.7535900000000001  1.0000
  C   C85       1.0  0.7916100000000003  0.10372  0.13762  1.0000
  C   C86       1.0  0.8461800000000004  0.033690000000000025  0.13773000000000005  1.0000
  C   C87       1.0  0.89092  0.20478  0.25720000000000004  1.0000
  C   C88       1.0  0.8665600000000002  0.05293000000000002  0.25743  1.0000
  C   C89       1.0  0.7825500000000002  0.09999000000000001  0.24626000000000003  1.0000
  C   C90       1.0  0.9638400000000003  0.14652000000000004  0.24626000000000003  1.0000
  C   C91       1.0  0.08218000000000002  0.5701  0.53235  1.0000
  C   C92       1.0  0.8897600000000002  0.49729999999999996  0.47627  1.0000
  C   C93       1.0  0.05436000000000002  0.42115999999999987  0.47703  1.0000
  C   C94       1.0  0.032170000000000004  0.5710399999999999  0.58294  1.0000
  C   C95       1.0  0.9408200000000002  0.49283999999999994  0.42536  1.0000
  C   C96       1.0  0.0006199999999999823  0.42176999999999987  0.52535  1.0000
  I   I1        1.0  0.3227900000000002  0.9895700000000002  0.6469700000000002  1.0000
  I   I2        1.0  0.67914  0.010389999999999998  0.35886  1.0000
  I   I3        1.0  0.26424  0.17451000000000005  0.5296600000000001  1.0000
  I   I4        1.0  0.7348400000000003  0.8237399999999999  0.47118999999999994  1.0000
  I   I5        1.0  0.52082  0.2265300000000001  0.7310300000000001  1.0000
  I   I6        1.0  0.7901  0.77002  0.26651  1.0000
  I   I7        1.0  0.4759500000000001  0.76967  0.26656  1.0000
  I   I8        1.0  0.21024  0.22673000000000001  0.73151  1.0000
  I   I9        1.0  0.4105900000000001  0.30695  0.13445  1.0000
  I   I10       1.0  0.27618000000000026  0.69266  0.8653000000000001  1.0000
  I   I11       1.0  0.5881500000000002  0.69244  0.86513  1.0000
  I   I12       1.0  0.7235100000000002  0.30682  0.13459  1.0000
  I   I13       1.0  0.8195000000000002  0.65035  0.63959  1.0000
  I   I14       1.0  0.7627300000000002  0.3516  0.52742  1.0000
  I   I15       1.0  0.9517600000000003  0.9836800000000002  0.9029800000000001  1.0000
  I   I16       1.0  0.8351100000000002  0.97512  0.67089  1.0000
  I   I17       1.0  0.70873  0.5031  0.73271  1.0000
  I   I18       1.0  0.7770700000000003  0.17205999999999996  0.86537  1.0000
  I   I19       1.0  0.17610000000000012  0.34181000000000006  0.3528400000000001  1.0000
  I   I20       1.0  0.2347700000000001  0.64497  0.4711000000000001  1.0000
  I   I21       1.0  0.04770000000000001  0.015430000000000008  0.09601000000000001  1.0000
  I   I22       1.0  0.16430000000000006  0.026020000000000005  0.32816  1.0000
  I   I23       1.0  0.2891500000000001  0.49522  0.2691300000000001  1.0000
  I   I24       1.0  0.2226300000000001  0.82756  0.13459  1.0000
  I   I25       1.0  0.5484100000000001  0.07986  0.09692  1.0000
  I   I26       1.0  0.4519100000000001  0.9202699999999999  0.90392  1.0000
  I   I27       1.0  0.6631000000000002  0.30294000000000004  0.32780000000000004  1.0000
  I   I28       1.0  0.3370200000000001  0.69929  0.67296  1.0000
  I   I29       1.0  0.022670000000000034  0.5032000000000001  0.7327000000000001  1.0000
  I   I30       1.0  0.08909000000000004  0.1721600000000001  0.8645800000000001  1.0000
  I   I31       1.0  0.9789200000000002  0.49644999999999995  0.26919  1.0000
  I   I32       1.0  0.9112900000000003  0.8276099999999998  0.13551  1.0000
  N   N1        1.0  0.4222700000000001  0.17193  0.8438800000000001  1.0000
  N   N2        1.0  0.57798  0.8279400000000001  0.15665  1.0000
  N   N3        1.0  0.35177000000000014  0.3707100000000001  0.7034200000000003  1.0000
  N   N4        1.0  0.6476000000000002  0.62742  0.29549  1.0000
  N   N5        1.0  0.6262800000000002  0.46994  0.25291  1.0000
  N   N6        1.0  0.37210000000000015  0.5284000000000001  0.7450400000000001  1.0000
  N   N7        1.0  0.4560200000000002  0.033  0.53885  1.0000
  N   N8        1.0  0.9114300000000001  0.95236  0.45432  1.0000
  N   N9        1.0  0.54225  0.9527499999999999  0.45443  1.0000
  N   N10       1.0  0.9210900000000002  0.67157  0.84246  1.0000
  N   N11       1.0  0.8512400000000001  0.33143999999999996  0.70346  1.0000
  N   N12       1.0  0.8733500000000002  0.2176  0.74721  1.0000
  N   N13       1.0  0.5872  0.49786  0.54522  1.0000
  N   N14       1.0  0.58203  0.8457099999999999  0.78797  1.0000
  N   N15       1.0  0.70582  0.9420999999999999  0.7869500000000001  1.0000
  N   N16       1.0  0.07731  0.32798  0.15646  1.0000
  N   N17       1.0  0.14906000000000003  0.6679300000000001  0.29745000000000005  1.0000
  N   N18       1.0  0.12761  0.7829799999999999  0.25471  1.0000
  N   N19       1.0  0.41797  0.15472  0.21236  1.0000
  N   N20       1.0  0.29393000000000014  0.05803000000000002  0.21274000000000007  1.0000
  N   N21       1.0  0.20575000000000004  0.84566  0.78751  1.0000
  N   N22       1.0  0.7944100000000002  0.15499000000000002  0.21290000000000006  1.0000
  N   N23       1.0  0.9567300000000002  0.49726000000000004  0.54497  1.0000
  N   N24       1.0  0.4899600000000001  0.19925999999999996  0.97972  1.0000
  N   N25       1.0  0.51027  0.80109  0.020820000000000005  1.0000
  N   N26       1.0  0.08183999999999995  0.03301  0.5389  1.0000
  N   N27       1.0  0.98888  0.77946  0.9788900000000001  1.0000
  N   N28       1.0  0.417  0.49398  0.46067  1.0000
  N   N29       1.0  0.010700000000000003  0.2201  0.02031  1.0000
  N   N30       1.0  0.0812  0.9421300000000001  0.7866300000000002  1.0000
  N   N31       1.0  0.9186500000000002  0.05810000000000002  0.21300000000000005  1.0000
  N   N32       1.0  0.04329999999999999  0.4942  0.46113  1.0000
