data_image0
_chemical_formula_structural       Cu8H104C96N16O32
_chemical_formula_sum              "Cu8 H104 C96 N16 O32"
_cell_length_a       28.46449361
_cell_length_b       13.25247649
_cell_length_c       8.47749615
_cell_angle_alpha    90.00584097
_cell_angle_beta     91.58305089999999
_cell_angle_gamma    89.92255725

_space_group_name_H-M_alt    "P 1"
_space_group_IT_number       1

loop_
  _space_group_symop_operation_xyz
  'x, y, z'

loop_
  _atom_site_type_symbol
  _atom_site_label
  _atom_site_symmetry_multiplicity
  _atom_site_fract_x
  _atom_site_fract_y
  _atom_site_fract_z
  _atom_site_occupancy
  Cu  Cu1       1.0  0.28728897  0.7937331399999997  0.45204621  1.0000
  Cu  Cu2       1.0  0.7870325799999998  0.29358979  0.452076  1.0000
  Cu  Cu3       1.0  0.7129814699999998  0.7936428199999997  0.04793217  1.0000
  Cu  Cu4       1.0  0.21296317999999995  0.29367565  0.04797556  1.0000
  Cu  Cu5       1.0  0.7129677099999998  0.20641056999999993  0.54792357  1.0000
  Cu  Cu6       1.0  0.21271483  0.70627108  0.54794934  1.0000
  Cu  Cu7       1.0  0.2870367199999999  0.20632455999999993  0.9520233299999998  1.0000
  Cu  Cu8       1.0  0.78701846  0.70635764  0.95206821  1.0000
  H   H1        1.0  0.31685784  0.01177211  0.40638155  1.0000
  H   H2        1.0  0.3761273499999999  0.11056955999999997  0.26325457  1.0000
  H   H3        1.0  0.43821774  0.82750986  0.12251093000000002  1.0000
  H   H4        1.0  0.37415042999999987  0.74029697  0.27005002  1.0000
  H   H5        1.0  0.4803396  0.17384405999999994  0.04146192  1.0000
  H   H6        1.0  0.4552259  0.16909619999999995  0.23291594  1.0000
  H   H7        1.0  0.41792464999999995  0.17425776999999995  0.06356953  1.0000
  H   H8        1.0  0.14757282999999996  0.7857445899999997  0.08098899  1.0000
  H   H9        1.0  0.19498578  0.7281363499999998  0.98291983  1.0000
  H   H10       1.0  0.23960571999999997  0.88668848  0.9811156900000001  1.0000
  H   H11       1.0  0.18396162999999993  0.9022145299999997  0.88733286  1.0000
  H   H12       1.0  0.15425236  0.9855838299999999  0.1342892  1.0000
  H   H13       1.0  0.20890642999999995  0.9587648899999998  0.23146821  1.0000
  H   H14       1.0  0.81669914  0.51159406  0.40657858  1.0000
  H   H15       1.0  0.8760040399999998  0.61029232  0.26358071  1.0000
  H   H16       1.0  0.9380657199999998  0.32738917999999995  0.12289456  1.0000
  H   H17       1.0  0.8740071799999998  0.24008304  0.27024815  1.0000
  H   H18       1.0  0.9803067699999999  0.6737502199999998  0.04151089  1.0000
  H   H19       1.0  0.95521102  0.66909297  0.23292711  1.0000
  H   H20       1.0  0.9179110899999998  0.67426805  0.06358182  1.0000
  H   H21       1.0  0.64734558  0.2860246699999999  0.08023892  1.0000
  H   H22       1.0  0.69484139  0.22838591999999994  0.9821078300000001  1.0000
  H   H23       1.0  0.7395492999999997  0.3866535299999999  0.9809264399999998  1.0000
  H   H24       1.0  0.6839803299999998  0.40265622999999995  0.88666677  1.0000
  H   H25       1.0  0.6542616599999997  0.48568227999999997  0.13428097  1.0000
  H   H26       1.0  0.7089150199999997  0.45868894  0.23123179  1.0000
  H   H27       1.0  0.68325132  0.01136905  0.09353427  1.0000
  H   H28       1.0  0.62392074  0.11024787999999998  0.23660805  1.0000
  H   H29       1.0  0.5620023599999998  0.8275811499999998  0.37694097  1.0000
  H   H30       1.0  0.6260915199999998  0.7400271099999998  0.22951473  1.0000
  H   H31       1.0  0.51961628  0.17400447999999993  0.45862294  1.0000
  H   H32       1.0  0.54474728  0.16905113999999993  0.26716561  1.0000
  H   H33       1.0  0.58203057  0.17412543999999996  0.43648666  1.0000
  H   H34       1.0  0.8526766899999998  0.78583199  0.4197035  1.0000
  H   H35       1.0  0.8052016399999999  0.72841662  0.51786774  1.0000
  H   H36       1.0  0.7604517899999998  0.8868815399999997  0.51903146  1.0000
  H   H37       1.0  0.81600719  0.9026401899999997  0.61332933  1.0000
  H   H38       1.0  0.8457452  0.9854449699999998  0.36573808  1.0000
  H   H39       1.0  0.7911051399999998  0.9586828199999998  0.26872451  1.0000
  H   H40       1.0  0.18323914999999993  0.51134984  0.09346215  1.0000
  H   H41       1.0  0.12386226999999997  0.61024429  0.23655477  1.0000
  H   H42       1.0  0.06199063  0.3275840399999999  0.37694763  1.0000
  H   H43       1.0  0.12608087  0.24002413999999997  0.22949889  1.0000
  H   H44       1.0  0.01961255  0.6740042299999999  0.45861775  1.0000
  H   H45       1.0  0.04473895  0.66905654  0.26716801  1.0000
  H   H46       1.0  0.08202444  0.6741148899999998  0.4365462  1.0000
  H   H47       1.0  0.35268915  0.28593647999999994  0.4197591  1.0000
  H   H48       1.0  0.30521221  0.22873614  0.51786187  1.0000
  H   H49       1.0  0.26042001  0.3869423999999999  0.5191157  1.0000
  H   H50       1.0  0.31597452999999986  0.4027044299999999  0.61349472  1.0000
  H   H51       1.0  0.34560287  0.48586532999999993  0.36605597  1.0000
  H   H52       1.0  0.29097451  0.4592017399999999  0.26919686  1.0000
  H   H53       1.0  0.68330109  0.9884061199999999  0.59342139  1.0000
  H   H54       1.0  0.6239962399999998  0.88970758  0.7364192  1.0000
  H   H55       1.0  0.56193451  0.17261081999999994  0.87710528  1.0000
  H   H56       1.0  0.6259931399999997  0.25991665999999997  0.7297516  1.0000
  H   H57       1.0  0.5196933299999998  0.82624967  0.9584890999999999  1.0000
  H   H58       1.0  0.5447890999999999  0.8309068499999998  0.76707259  1.0000
  H   H59       1.0  0.58208911  0.8257317199999997  0.93641818  1.0000
  H   H60       1.0  0.85265457  0.2139754  0.91976084  1.0000
  H   H61       1.0  0.80515871  0.27161401999999996  0.01789221  1.0000
  H   H62       1.0  0.76045076  0.11334628999999997  0.01907359  1.0000
  H   H63       1.0  0.8160198999999998  0.09734365999999998  0.11333352  1.0000
  H   H64       1.0  0.8457386299999999  0.014317609999999996  0.86571881  1.0000
  H   H65       1.0  0.79108514  0.04131092  0.76876816  1.0000
  H   H66       1.0  0.18314203  0.48822791  0.59361894  1.0000
  H   H67       1.0  0.12387216999999998  0.38943067  0.73674562  1.0000
  H   H68       1.0  0.06178222999999999  0.6724897799999998  0.87748969  1.0000
  H   H69       1.0  0.125849  0.75970291  0.72995014  1.0000
  H   H70       1.0  0.019660479999999998  0.3261555899999999  0.95853794  1.0000
  H   H71       1.0  0.044774169999999995  0.33090361  0.76708423  1.0000
  H   H72       1.0  0.08207533  0.3257422899999999  0.93643015  1.0000
  H   H73       1.0  0.35242487  0.714254  0.91900746  1.0000
  H   H74       1.0  0.30501226  0.7718639199999999  0.01708013  1.0000
  H   H75       1.0  0.26039386  0.61331108  0.01889165  1.0000
  H   H76       1.0  0.31603877  0.5977835699999999  0.11266926  1.0000
  H   H77       1.0  0.34574752999999997  0.51441659  0.86571713  1.0000
  H   H78       1.0  0.29109391  0.5412362699999999  0.76853311  1.0000
  H   H79       1.0  0.31676089  0.9886498599999998  0.90653783  1.0000
  H   H80       1.0  0.37613743999999993  0.8897552699999998  0.7634451  1.0000
  H   H81       1.0  0.43800941  0.17241586999999994  0.62305246  1.0000
  H   H82       1.0  0.3739188499999999  0.25997556  0.77050097  1.0000
  H   H83       1.0  0.48038761  0.82599577  0.54138196  1.0000
  H   H84       1.0  0.45526111  0.8309433099999999  0.73283219  1.0000
  H   H85       1.0  0.41797554999999986  0.82588477  0.56345378  1.0000
  H   H86       1.0  0.14730937  0.21406230999999995  0.580237  1.0000
  H   H87       1.0  0.19478776999999994  0.27126281  0.48213907  1.0000
  H   H88       1.0  0.2395802  0.11305736999999998  0.48088985000000006  1.0000
  H   H89       1.0  0.18402577  0.09729815999999998  0.38650765  1.0000
  H   H90       1.0  0.15439693  0.014133829999999997  0.63394322  1.0000
  H   H91       1.0  0.20902516999999995  0.040795769999999995  0.73080411  1.0000
  H   H92       1.0  0.8167488799999998  0.48863072  0.90646587  1.0000
  H   H93       1.0  0.8760794999999998  0.38975184  0.763392  1.0000
  H   H94       1.0  0.9379978999999998  0.6724188299999998  0.62305884  1.0000
  H   H95       1.0  0.87390874  0.75997302  0.77048519  1.0000
  H   H96       1.0  0.9803837899999998  0.3259954699999999  0.54137722  1.0000
  H   H97       1.0  0.9552528499999998  0.33094886999999995  0.732834  1.0000
  H   H98       1.0  0.9179696899999997  0.3258746099999999  0.56351336  1.0000
  H   H99       1.0  0.6473235899999998  0.71416776  0.58029656  1.0000
  H   H100      1.0  0.69479859  0.7715830799999999  0.48213203999999993  1.0000
  H   H101      1.0  0.7395482199999998  0.61311798  0.48096875  1.0000
  H   H102      1.0  0.68399304  0.5973595499999999  0.38667092  1.0000
  H   H103      1.0  0.65425481  0.5145553  0.63426223  1.0000
  H   H104      1.0  0.70889487  0.54131703  0.73127551  1.0000
  C   C1        1.0  0.3446260899999999  0.9741915899999998  0.34239993  1.0000
  C   C2        1.0  0.37844678  0.02865678  0.26333527  1.0000
  C   C3        1.0  0.4135035399999999  0.9766220599999997  0.18330856  1.0000
  C   C4        1.0  0.41177901  0.8705328499999999  0.18414803  1.0000
  C   C5        1.0  0.37671058  0.82240188  0.26555908  1.0000
  C   C6        1.0  0.4512557899999999  0.030995679999999994  0.10342992  1.0000
  C   C7        1.0  0.4515002299999999  0.14385706999999998  0.10957357  1.0000
  C   C8        1.0  0.20928503999999992  0.76422663  0.22591126  1.0000
  C   C9        1.0  0.18580106999999996  0.78800942  0.06683174  1.0000
  C   C10       1.0  0.20179341999999995  0.8896126099999998  0.00210341  1.0000
  C   C11       1.0  0.19206241  0.9762201099999999  0.11588036  1.0000
  C   C12       1.0  0.21220278999999995  0.07741821999999997  0.0685748  1.0000
  C   C13       1.0  0.8444479399999998  0.47395509999999996  0.34264413  1.0000
  C   C14       1.0  0.8783171399999998  0.52838443  0.26368132  1.0000
  C   C15       1.0  0.9133955599999998  0.47645142  0.18365227  1.0000
  C   C16       1.0  0.91163081  0.37037754  0.1845865  1.0000
  C   C17       1.0  0.8765357099999997  0.32217309  0.26583898  1.0000
  C   C18       1.0  0.9511541099999998  0.5308762599999999  0.10367914  1.0000
  C   C19       1.0  0.9514578  0.64376885  0.10964235  1.0000
  C   C20       1.0  0.70910859  0.26393211999999994  0.22473668  1.0000
  C   C21       1.0  0.6856077699999997  0.28812628999999995  0.06622035  1.0000
  C   C22       1.0  0.70171523  0.38980967999999994  0.00163677  1.0000
  C   C23       1.0  0.69206578  0.4763428499999999  0.11571641  1.0000
  C   C24       1.0  0.7122192099999999  0.5775078  0.06861286  1.0000
  C   C25       1.0  0.65552659  0.97382464  0.15741091  1.0000
  C   C26       1.0  0.6216458999999998  0.028356239999999994  0.23643923999999997  1.0000
  C   C27       1.0  0.58659836  0.9765038199999998  0.31639777  1.0000
  C   C28       1.0  0.58842332  0.8704458199999999  0.31529653  1.0000
  C   C29       1.0  0.62352763  0.82211702  0.23400678  1.0000
  C   C30       1.0  0.5487914999999999  0.03093443  0.3964973  1.0000
  C   C31       1.0  0.54846619  0.14382454  0.39052583  1.0000
  C   C32       1.0  0.7909048199999998  0.76393582  0.2752616  1.0000
  C   C33       1.0  0.8144162  0.7880789099999997  0.43372958  1.0000
  C   C34       1.0  0.7982873099999998  0.8898273  0.49834202000000005  1.0000
  C   C35       1.0  0.80793871  0.97628755  0.38425534  1.0000
  C   C36       1.0  0.7877657599999998  0.07752507  0.43138835  1.0000
  C   C37       1.0  0.15552085999999996  0.47382663999999997  0.15741455  1.0000
  C   C38       1.0  0.12164096999999997  0.5283509199999998  0.23645351  1.0000
  C   C39       1.0  0.08659536999999998  0.4765003399999999  0.31643069  1.0000
  C   C40       1.0  0.08841807999999998  0.3704427499999999  0.31532552  1.0000
  C   C41       1.0  0.12352170999999998  0.3221176199999999  0.23402694  1.0000
  C   C42       1.0  0.04878594  0.53093533  0.39650198  1.0000
  C   C43       1.0  0.048464069999999984  0.64382729  0.39052564  1.0000
  C   C44       1.0  0.29091484  0.26406990999999996  0.27527877  1.0000
  C   C45       1.0  0.31442826  0.28839758  0.43373086  1.0000
  C   C46       1.0  0.29824493  0.39007905  0.49850760000000005  1.0000
  C   C47       1.0  0.30783319  0.4766213499999999  0.38468441  1.0000
  C   C48       1.0  0.2875748199999999  0.5781273499999998  0.43146219  1.0000
  C   C49       1.0  0.6555522499999997  0.026044939999999992  0.6573558  1.0000
  C   C50       1.0  0.62168302  0.97161541  0.73631886  1.0000
  C   C51       1.0  0.58660449  0.023548179999999995  0.81634811  1.0000
  C   C52       1.0  0.58836935  0.12962211  0.81541379  1.0000
  C   C53       1.0  0.6234645699999998  0.17782680999999995  0.73416083  1.0000
  C   C54       1.0  0.5488459899999999  0.9691238599999997  0.89632101  1.0000
  C   C55       1.0  0.54854236  0.85623101  0.89035752  1.0000
  C   C56       1.0  0.7908915299999999  0.23606819999999995  0.7752628  1.0000
  C   C57       1.0  0.8143922899999999  0.21187373999999995  0.93377948  1.0000
  C   C58       1.0  0.79828492  0.11019014999999997  0.99836325  1.0000
  C   C59       1.0  0.80793437  0.02365681999999999  0.88428363  1.0000
  C   C60       1.0  0.78778101  0.9224917899999998  0.93138745  1.0000
  C   C61       1.0  0.15537371  0.5258085599999999  0.65759974  1.0000
  C   C62       1.0  0.12155307999999997  0.47134317999999986  0.73666396  1.0000
  C   C63       1.0  0.08649656999999998  0.5233781999999999  0.81669069  1.0000
  C   C64       1.0  0.08822091999999998  0.6294672399999999  0.81585169  1.0000
  C   C65       1.0  0.12328910999999997  0.6775977399999997  0.73444039  1.0000
  C   C66       1.0  0.048744309999999985  0.4690037399999999  0.89656947  1.0000
  C   C67       1.0  0.04849974999999999  0.35614267999999993  0.89042634  1.0000
  C   C68       1.0  0.29071483  0.73577285  0.77408712  1.0000
  C   C69       1.0  0.31419719  0.7119885099999997  0.9331727  1.0000
  C   C70       1.0  0.2982059599999999  0.6103882  0.9979018900000001  1.0000
  C   C71       1.0  0.30793712  0.5237790799999998  0.88412172  1.0000
  C   C72       1.0  0.2877962799999999  0.42258192999999994  0.93142097  1.0000
  C   C73       1.0  0.3444791  0.026173189999999992  0.84258527  1.0000
  C   C74       1.0  0.37835899  0.9716486799999998  0.76354603  1.0000
  C   C75       1.0  0.4134047099999999  0.023499209999999993  0.68356869  1.0000
  C   C76       1.0  0.41158191999999993  0.12955698  0.68467409  1.0000
  C   C77       1.0  0.37647809999999987  0.17788227999999995  0.76597299  1.0000
  C   C78       1.0  0.4512141399999999  0.9690648099999999  0.60349762  1.0000
  C   C79       1.0  0.4515359599999999  0.8561725699999999  0.60947431  1.0000
  C   C80       1.0  0.20908404  0.23593251  0.72472225  1.0000
  C   C81       1.0  0.18557079999999995  0.21160372999999996  0.56627347  1.0000
  C   C82       1.0  0.20175514  0.10992009999999998  0.50149671  1.0000
  C   C83       1.0  0.19216651  0.02337951  0.61531549  1.0000
  C   C84       1.0  0.21242533999999993  0.9218723499999998  0.56853651  1.0000
  C   C85       1.0  0.8444735899999999  0.52617512  0.84258907  1.0000
  C   C86       1.0  0.87835427  0.4716436899999999  0.76356086  1.0000
  C   C87       1.0  0.9134017499999998  0.52349634  0.6836025  1.0000
  C   C88       1.0  0.91157687  0.6295543599999998  0.68470368  1.0000
  C   C89       1.0  0.8764726799999998  0.6778828499999998  0.76599306  1.0000
  C   C90       1.0  0.95120859  0.46906524  0.60350285  1.0000
  C   C91       1.0  0.9515340099999998  0.35617545  0.60947401  1.0000
  C   C92       1.0  0.70909544  0.7360638  0.72473809  1.0000
  C   C93       1.0  0.6855840200000001  0.7119208899999998  0.56627041  1.0000
  C   C94       1.0  0.70171276  0.6101726799999999  0.50165799  1.0000
  C   C95       1.0  0.69206121  0.5237127399999999  0.61574471  1.0000
  C   C96       1.0  0.71223449  0.4224757999999999  0.56861072  1.0000
  N   N1        1.0  0.34380287  0.87294135  0.34536662  1.0000
  N   N2        1.0  0.48223542999999996  0.9742661499999998  0.0350368  1.0000
  N   N3        1.0  0.84357502  0.37267759  0.34554864  1.0000
  N   N4        1.0  0.9821367999999998  0.47415947  0.03528276  1.0000
  N   N5        1.0  0.65645057  0.8725575599999997  0.15436133  1.0000
  N   N6        1.0  0.5178452699999999  0.9742161499999997  0.46475785  1.0000
  N   N7        1.0  0.15644513000000002  0.3725578499999999  0.15438158  1.0000
  N   N8        1.0  0.017838769999999997  0.47423016999999995  0.46476691  1.0000
  N   N9        1.0  0.6564253299999998  0.12732257  0.654451  1.0000
  N   N10       1.0  0.51786333  0.025840389999999994  0.9647173100000002  1.0000
  N   N11       1.0  0.15619662  0.62705852  0.6546329  1.0000
  N   N12       1.0  0.017764649999999993  0.52573338  0.9649630300000002  1.0000
  N   N13       1.0  0.34355457999999994  0.12744211999999996  0.84561848  1.0000
  N   N14       1.0  0.4821611999999999  0.025769879999999995  0.53523288  1.0000
  N   N15       1.0  0.84354993  0.62744193  0.84563816  1.0000
  N   N16       1.0  0.98215487  0.5257837299999998  0.53524192  1.0000
  O   O1        1.0  0.18467264  0.7207102  0.3290832  1.0000
  O   O2        1.0  0.18695028999999994  0.15519964999999997  0.09279983  1.0000
  O   O3        1.0  0.25190024999999994  0.7917417399999997  0.24416921999999996  1.0000
  O   O4        1.0  0.25323395  0.07789288999999998  0.01208287  1.0000
  O   O5        1.0  0.6846459699999998  0.22017047999999995  0.32817732  1.0000
  O   O6        1.0  0.6869526999999997  0.6553053  0.09273813  1.0000
  O   O7        1.0  0.7517659799999998  0.29126944999999993  0.24319416000000002  1.0000
  O   O8        1.0  0.7532678  0.57798845  0.01220454  1.0000
  O   O9        1.0  0.81537286  0.72013483  0.17172988  1.0000
  O   O10       1.0  0.8130211299999998  0.15520386  0.40732157  1.0000
  O   O11       1.0  0.748216  0.7913051099999999  0.25689713  1.0000
  O   O12       1.0  0.74672023  0.0781313  0.48782897000000003  1.0000
  O   O13       1.0  0.3153688799999999  0.22016687  0.17183182  1.0000
  O   O14       1.0  0.31293587  0.65555916  0.4071973  1.0000
  O   O15       1.0  0.24821664999999996  0.2913535499999999  0.25695386  1.0000
  O   O16       1.0  0.24648350999999996  0.57858885  0.48729035  1.0000
  O   O17       1.0  0.8153540399999998  0.27982959  0.6718231  1.0000
  O   O18       1.0  0.8130475399999999  0.84469529  0.90726175  1.0000
  O   O19       1.0  0.74823373  0.20873089999999997  0.7568051  1.0000
  O   O20       1.0  0.74673196  0.92201067  0.9877963899999999  1.0000
  O   O21       1.0  0.31532937  0.77928838  0.67092009  1.0000
  O   O22       1.0  0.31304936999999994  0.34479983  0.90719757  1.0000
  O   O23       1.0  0.24809998999999994  0.7082595  0.75582348  1.0000
  O   O24       1.0  0.24676489999999998  0.4221078899999999  0.9879073499999999  1.0000
  O   O25       1.0  0.18463084  0.2798382  0.82816693  1.0000
  O   O26       1.0  0.18706459999999994  0.8444428499999997  0.59280365  1.0000
  O   O27       1.0  0.25178249999999996  0.20864844999999999  0.74304706  1.0000
  O   O28       1.0  0.25351718  0.92141083  0.51270678  1.0000
  O   O29       1.0  0.68462756  0.77986524  0.82827169  1.0000
  O   O30       1.0  0.6869791499999998  0.34479648  0.5926776  1.0000
  O   O31       1.0  0.75178366  0.7086943599999999  0.74310132  1.0000
  O   O32       1.0  0.7532796099999998  0.42186875  0.51217039  1.0000
