data_image0
_chemical_formula_structural       Eu2P6H30C24O24
_chemical_formula_sum              "Eu2 P6 H30 C24 O24"
_cell_length_a       10.56754
_cell_length_b       11.51941
_cell_length_c       11.85901
_cell_angle_alpha    83.52836
_cell_angle_beta     84.02689
_cell_angle_gamma    87.19008

_symmetry_space_group_name_H-M    'P 1'
_symmetry_Int_Tables_number       1

loop_
  _symmetry_equiv_pos_as_xyz
  'x,y,z'

loop_
  _atom_site_type_symbol
  _atom_site_label
  _atom_site_symmetry_multiplicity
  _atom_site_fract_x
  _atom_site_fract_y
  _atom_site_fract_z
  _atom_site_occupancy
  Eu  Eu1       1.0  0.9725  0.2428  0.07006  1.0000
  Eu  Eu2       1.0  0.02647  0.7520599999999998  0.92942  1.0000
  P   P1        1.0  0.7072  0.26897  0.32183  1.0000
  P   P2        1.0  0.1286  0.4980299999999999  0.11744  1.0000
  P   P3        1.0  0.85084  0.96037  0.11085  1.0000
  P   P4        1.0  0.29153  0.73114  0.6778600000000001  1.0000
  P   P5        1.0  0.8711500000000001  0.49744999999999995  0.88153  1.0000
  P   P6        1.0  0.14704999999999996  0.03490999999999996  0.8890400000000003  1.0000
  H   H1        1.0  0.51422  0.21590999999999996  0.36993000000000004  1.0000
  H   H2        1.0  0.8021600000000002  0.55413  0.35205  1.0000
  H   H3        1.0  0.16941  0.42436  0.28549  1.0000
  H   H4        1.0  0.2258  0.26768999999999993  0.9593400000000001  1.0000
  H   H5        1.0  0.7538700000000002  0.029849999999999988  0.25942  1.0000
  H   H6        1.0  0.7756300000000003  0.20188  0.91363  1.0000
  H   H7        1.0  0.65671  0.46193  0.23741  1.0000
  H   H8        1.0  0.44123000000000007  0.50242  0.30108  1.0000
  H   H9        1.0  0.71842  0.43513  0.54621  1.0000
  H   H10       1.0  0.19512000000000004  0.46475999999999995  0.9261  1.0000
  H   H11       1.0  0.33807999999999994  0.6416899999999998  0.92245  1.0000
  H   H12       1.0  0.43887000000000004  0.29973  0.08241  1.0000
  H   H13       1.0  0.82165  0.0025899999999999933  0.9139  1.0000
  H   H14       1.0  0.57885  0.1313  0.12568  1.0000
  H   H15       1.0  0.65149  0.89754  0.8653500000000001  1.0000
  H   H16       1.0  0.48479000000000005  0.78443  0.63163  1.0000
  H   H17       1.0  0.19771000000000002  0.44902  0.63965  1.0000
  H   H18       1.0  0.83277  0.56989  0.71285  1.0000
  H   H19       1.0  0.77431  0.73119  0.03509  1.0000
  H   H20       1.0  0.24402000000000001  0.9691099999999998  0.7388  1.0000
  H   H21       1.0  0.22317  0.7938699999999997  0.08606  1.0000
  H   H22       1.0  0.34265  0.53805  0.76241  1.0000
  H   H23       1.0  0.5582  0.49781999999999993  0.6986500000000001  1.0000
  H   H24       1.0  0.28112  0.5656299999999999  0.45319  1.0000
  H   H25       1.0  0.80454  0.53476  0.07177  1.0000
  H   H26       1.0  0.66188  0.35653  0.07625000000000001  1.0000
  H   H27       1.0  0.56121  0.6979699999999999  0.9160200000000001  1.0000
  H   H28       1.0  0.17673000000000003  0.99257  0.08581000000000003  1.0000
  H   H29       1.0  0.41983999999999994  0.8654699999999999  0.8738300000000001  1.0000
  H   H30       1.0  0.3471600000000001  0.09928  0.1341  1.0000
  C   C1        1.0  0.68892  0.43432999999999994  0.32258000000000003  1.0000
  C   C2        1.0  0.59126  0.46699  0.41368  1.0000
  C   C3        1.0  0.46596000000000004  0.50056  0.38821000000000006  1.0000
  C   C4        1.0  0.62334  0.4660299999999999  0.52662  1.0000
  C   C5        1.0  0.2359  0.43113  0.00592  1.0000
  C   C6        1.0  0.37264000000000014  0.46508  0.0015500000000000002  1.0000
  C   C7        1.0  0.40863  0.57816  0.95529  1.0000
  C   C8        1.0  0.46547000000000005  0.38682  0.04585  1.0000
  C   C9        1.0  0.7697099999999999  0.036499999999999984  0.9891900000000001  1.0000
  C   C10       1.0  0.63015  0.01633999999999997  0.9949700000000001  1.0000
  C   C11       1.0  0.54376  0.07345  0.07051  1.0000
  C   C12       1.0  0.58463  0.94127  0.9244400000000002  1.0000
  C   C13       1.0  0.31045  0.56536  0.6771600000000001  1.0000
  C   C14       1.0  0.4081  0.53335  0.58604  1.0000
  C   C15       1.0  0.53346  0.49987  0.6115  1.0000
  C   C16       1.0  0.3760700000000001  0.53453  0.47304000000000007  1.0000
  C   C17       1.0  0.7638599999999999  0.5666799999999997  0.9914700000000002  1.0000
  C   C18       1.0  0.62712  0.53267  0.99652  1.0000
  C   C19       1.0  0.59119  0.41965  0.04295  1.0000
  C   C20       1.0  0.53436  0.6109400000000001  0.9523900000000001  1.0000
  C   C21       1.0  0.22905  0.95916  0.01045  1.0000
  C   C22       1.0  0.36848000000000003  0.98004  0.00479  1.0000
  C   C23       1.0  0.45489  0.92313  0.92915  1.0000
  C   C24       1.0  0.41398000000000007  0.05533  0.07516  1.0000
  O   O1        1.0  0.7885300000000001  0.25063  0.21142  1.0000
  O   O2        1.0  0.56223  0.23994999999999997  0.29709  1.0000
  O   O3        1.0  0.7380299999999999  0.21176  0.43504  1.0000
  O   O4        1.0  0.81242  0.4745799999999999  0.33127  1.0000
  O   O5        1.0  0.11285  0.62727  0.07989  1.0000
  O   O6        1.0  0.01281  0.42323  0.14223  1.0000
  O   O7        1.0  0.20643999999999998  0.48540999999999995  0.23015000000000002  1.0000
  O   O8        1.0  0.21876  0.30684  0.02978  1.0000
  O   O9        1.0  0.8754000000000001  0.83442  0.08564  1.0000
  O   O10       1.0  0.96206  0.0344  0.12607  1.0000
  O   O11       1.0  0.7499400000000002  0.9580499999999998  0.22309000000000004  1.0000
  O   O12       1.0  0.7932999999999998  0.15954999999999997  0.9866  1.0000
  O   O13       1.0  0.20801  0.7486999999999998  0.7874700000000002  1.0000
  O   O14       1.0  0.43614  0.75991  0.70402  1.0000
  O   O15       1.0  0.26197999999999994  0.78854  0.56445  1.0000
  O   O16       1.0  0.18717  0.52499  0.66875  1.0000
  O   O17       1.0  0.8863700000000001  0.3685  0.92011  1.0000
  O   O18       1.0  0.98756  0.5714199999999999  0.85745  1.0000
  O   O19       1.0  0.7941300000000001  0.50968  0.76821  1.0000
  O   O20       1.0  0.7812700000000001  0.6908599999999998  0.96516  1.0000
  O   O21       1.0  0.11947999999999998  0.16031999999999993  0.91461  1.0000
  O   O22       1.0  0.037189999999999994  0.9595499999999999  0.87345  1.0000
  O   O23       1.0  0.24866000000000002  0.03961999999999999  0.77699  1.0000
  O   O24       1.0  0.20652  0.83587  0.012670000000000002  1.0000
