data_image0
_chemical_formula_structural       Zn2P4H12C12O16
_chemical_formula_sum              "Zn2 P4 H12 C12 O16"
_cell_length_a       9.27495
_cell_length_b       10.5315
_cell_length_c       10.55568
_cell_angle_alpha    84.13539
_cell_angle_beta     79.9458
_cell_angle_gamma    79.95335

_space_group_name_H-M_alt    "P 1"
_space_group_IT_number       1

loop_
  _space_group_symop_operation_xyz
  'x, y, z'

loop_
  _atom_site_type_symbol
  _atom_site_label
  _atom_site_symmetry_multiplicity
  _atom_site_fract_x
  _atom_site_fract_y
  _atom_site_fract_z
  _atom_site_occupancy
  Zn  Zn1       1.0  0.24904  0.9775500000000001  0.024600000000000004  1.0000
  Zn  Zn2       1.0  0.75096  0.02245000000000002  0.9754  1.0000
  P   P1        1.0  0.011119999999999965  0.7917600000000002  0.04811  1.0000
  P   P2        1.0  0.48992  0.95487  0.20763  1.0000
  P   P3        1.0  0.98889  0.20824000000000004  0.95188  1.0000
  P   P4        1.0  0.51008  0.04513  0.7923600000000001  1.0000
  H   H1        1.0  0.9910899999999998  0.7699300000000002  0.25848  1.0000
  H   H2        1.0  0.27159  0.66594  0.9659  1.0000
  H   H3        1.0  0.7724500000000001  0.64959  0.08208  1.0000
  H   H4        1.0  0.50545  0.7444400000000001  0.23132  1.0000
  H   H5        1.0  0.22872999999999996  0.03646  0.33384  1.0000
  H   H6        1.0  0.7275699999999998  0.91891  0.35027  1.0000
  H   H7        1.0  0.008909999999999996  0.23008000000000003  0.7415200000000001  1.0000
  H   H8        1.0  0.72841  0.33406  0.03409000000000001  1.0000
  H   H9        1.0  0.22755999999999996  0.35041  0.91792  1.0000
  H   H10       1.0  0.4945499999999998  0.25556000000000006  0.76868  1.0000
  H   H11       1.0  0.77128  0.96355  0.66615  1.0000
  H   H12       1.0  0.27242999999999995  0.08109  0.6497200000000001  1.0000
  C   C1        1.0  0.14061000000000007  0.54231  0.97345  1.0000
  C   C2        1.0  0.01046999999999999  0.6269200000000001  0.02135  1.0000
  C   C3        1.0  0.87251  0.5841300000000001  0.04653  1.0000
  C   C4        1.0  0.35946  0.027020000000000006  0.45761  1.0000
  C   C5        1.0  0.4898699999999999  0.9801400000000001  0.3727500000000001  1.0000
  C   C6        1.0  0.6275900000000001  0.95423  0.41582  1.0000
  C   C7        1.0  0.8593899999999999  0.4576900000000001  0.026550000000000004  1.0000
  C   C8        1.0  0.98954  0.3730800000000001  0.97865  1.0000
  C   C9        1.0  0.12749000000000002  0.41587  0.95347  1.0000
  C   C10       1.0  0.6405499999999995  0.9729800000000002  0.54239  1.0000
  C   C11       1.0  0.51013  0.019860000000000003  0.62725  1.0000
  C   C12       1.0  0.3724100000000001  0.045770000000000005  0.58417  1.0000
  O   O1        1.0  0.9306599999999999  0.81392  0.19529  1.0000
  O   O2        1.0  0.17422999999999997  0.81052  0.03175  1.0000
  O   O3        1.0  0.9155899999999999  0.8814400000000001  0.9631700000000001  1.0000
  O   O4        1.0  0.27871999999999997  0.57553  0.94415  1.0000
  O   O5        1.0  0.56596  0.80635  0.18434  1.0000
  O   O6        1.0  0.32652  0.97522  0.18871  1.0000
  O   O7        1.0  0.58956  0.03715000000000001  0.11887  1.0000
  O   O8        1.0  0.22123  0.05609  0.42479  1.0000
  O   O9        1.0  0.06935  0.18608  0.80471  1.0000
  O   O10       1.0  0.82578  0.18948000000000007  0.96825  1.0000
  O   O11       1.0  0.08442000000000001  0.11856  0.03683  1.0000
  O   O12       1.0  0.72129  0.42447000000000007  0.05584  1.0000
  O   O13       1.0  0.43405  0.19365000000000002  0.81566  1.0000
  O   O14       1.0  0.67349  0.02477999999999999  0.8112900000000001  1.0000
  O   O15       1.0  0.41043999999999997  0.9628500000000002  0.8811300000000001  1.0000
  O   O16       1.0  0.7787800000000001  0.94391  0.57521  1.0000
