data_image0
_chemical_formula_structural       Eu2CuH12C32N4O24
_chemical_formula_sum              "Eu2 Cu1 H12 C32 N4 O24"
_cell_length_a       10.41802
_cell_length_b       10.68393
_cell_length_c       11.43012
_cell_angle_alpha    82.57039999999999
_cell_angle_beta     72.5094
_cell_angle_gamma    69.74177

_symmetry_space_group_name_H-M    'P 1'
_symmetry_Int_Tables_number       1

loop_
  _symmetry_equiv_pos_as_xyz
  'x,y,z'

loop_
  _atom_site_type_symbol
  _atom_site_label
  _atom_site_symmetry_multiplicity
  _atom_site_fract_x
  _atom_site_fract_y
  _atom_site_fract_z
  _atom_site_occupancy
  Eu  Eu1       1.0  0.58936  0.59034  0.6264600000000001  1.0000
  Eu  Eu2       1.0  0.41063  0.40966  0.37355  1.0000
  Cu  Cu1       1.0  0.0  0.5  0.5  1.0000
  H   H1        1.0  0.35425  0.9947400000000001  0.47335000000000005  1.0000
  H   H2        1.0  0.97554  0.18108000000000002  0.35157000000000005  1.0000
  H   H3        1.0  0.17224  0.75409  0.34093  1.0000
  H   H4        1.0  0.6852  0.4662  0.9339900000000002  1.0000
  H   H5        1.0  0.9201700000000002  0.32034000000000007  0.2032  1.0000
  H   H6        1.0  0.14601999999999987  0.33969  0.8208100000000003  1.0000
  H   H7        1.0  0.64574  0.005270000000000002  0.52666  1.0000
  H   H8        1.0  0.024449999999999972  0.81892  0.64844  1.0000
  H   H9        1.0  0.8277599999999998  0.24592000000000003  0.65908  1.0000
  H   H10       1.0  0.31478999999999996  0.5338  0.06601  1.0000
  H   H11       1.0  0.07981999999999997  0.67966  0.7968000000000001  1.0000
  H   H12       1.0  0.8539699999999999  0.66031  0.17919000000000002  1.0000
  C   C1        1.0  0.27484000000000003  0.86125  0.41017000000000003  1.0000
  C   C2        1.0  0.27355000000000007  0.9871  0.43497  1.0000
  C   C3        1.0  0.16561  0.10209  0.41372000000000003  1.0000
  C   C4        1.0  0.06111  0.09259  0.36515  1.0000
  C   C5        1.0  0.06825999999999997  0.96748  0.33637000000000006  1.0000
  C   C6        1.0  0.17216000000000004  0.85127  0.35941  1.0000
  C   C7        1.0  0.38204  0.73524  0.44182000000000005  1.0000
  C   C8        1.0  0.15782999999999997  0.23696  0.44417  1.0000
  C   C9        1.0  0.9153299999999999  0.41014000000000006  0.8641100000000002  1.0000
  C   C10       1.0  0.7868500000000002  0.42627  0.95626  1.0000
  C   C11       1.0  0.7897800000000001  0.39174  0.07814  1.0000
  C   C12       1.0  0.9194499999999999  0.3434  0.10808000000000001  1.0000
  C   C13       1.0  0.045409999999999985  0.32425  0.014370000000000004  1.0000
  C   C14       1.0  0.04619000000000003  0.35628  0.89231  1.0000
  C   C15       1.0  0.91259  0.44962  0.73486  1.0000
  C   C16       1.0  0.6566300000000002  0.40139  0.179  1.0000
  C   C17       1.0  0.7251499999999997  0.13875  0.5898300000000001  1.0000
  C   C18       1.0  0.7264399999999999  0.012899999999999998  0.5650300000000001  1.0000
  C   C19       1.0  0.8343900000000002  0.89791  0.58629  1.0000
  C   C20       1.0  0.93888  0.9074200000000001  0.6348500000000001  1.0000
  C   C21       1.0  0.93174  0.032529999999999996  0.6636400000000001  1.0000
  C   C22       1.0  0.8278299999999998  0.14873  0.6406  1.0000
  C   C23       1.0  0.6179500000000001  0.26476  0.55819  1.0000
  C   C24       1.0  0.84216  0.7630400000000002  0.55583  1.0000
  C   C25       1.0  0.08466000000000003  0.58987  0.13589  1.0000
  C   C26       1.0  0.21314000000000002  0.57373  0.04374000000000001  1.0000
  C   C27       1.0  0.21021999999999993  0.60826  0.92186  1.0000
  C   C28       1.0  0.08054000000000003  0.6566  0.89192  1.0000
  C   C29       1.0  0.95458  0.67575  0.9856300000000002  1.0000
  C   C30       1.0  0.9538100000000002  0.64372  0.10769  1.0000
  C   C31       1.0  0.08740000000000009  0.55038  0.26515  1.0000
  C   C32       1.0  0.34336000000000005  0.5986100000000001  0.82101  1.0000
  N   N1        1.0  0.95809  0.95837  0.28487  1.0000
  N   N2        1.0  0.18210000000000004  0.26957  0.045590000000000006  1.0000
  N   N3        1.0  0.04189999999999996  0.04163000000000001  0.7151300000000002  1.0000
  N   N4        1.0  0.81789  0.73044  0.95442  1.0000
  O   O1        1.0  0.36539999999999995  0.62526  0.42858  1.0000
  O   O2        1.0  0.47960000000000025  0.7444000000000001  0.48120000000000007  1.0000
  O   O3        1.0  0.26665  0.26133  0.44530000000000003  1.0000
  O   O4        1.0  0.029350000000000015  0.32156  0.46798  1.0000
  O   O5        1.0  0.87443  0.06428  0.25622  1.0000
  O   O6        1.0  0.9543200000000001  0.84533  0.27464  1.0000
  O   O7        1.0  0.03279999999999994  0.44954000000000005  0.6578900000000001  1.0000
  O   O8        1.0  0.7992  0.48072000000000004  0.7034800000000001  1.0000
  O   O9        1.0  0.53951  0.41846  0.1544  1.0000
  O   O10       1.0  0.6634399999999999  0.38913  0.29001  1.0000
  O   O11       1.0  0.17744  0.26381  0.15629  1.0000
  O   O12       1.0  0.29249  0.23368  0.96054  1.0000
  O   O13       1.0  0.6345900000000002  0.37475  0.57143  1.0000
  O   O14       1.0  0.5203899999999999  0.2556  0.5188  1.0000
  O   O15       1.0  0.73334  0.7386800000000001  0.5547000000000001  1.0000
  O   O16       1.0  0.9706499999999999  0.67845  0.5320200000000002  1.0000
  O   O17       1.0  0.12555999999999998  0.93572  0.74378  1.0000
  O   O18       1.0  0.045669999999999954  0.15467  0.7253600000000001  1.0000
  O   O19       1.0  0.96719  0.55047  0.34211  1.0000
  O   O20       1.0  0.20079000000000002  0.51929  0.29653  1.0000
  O   O21       1.0  0.4604800000000001  0.58154  0.84561  1.0000
  O   O22       1.0  0.33655000000000007  0.61087  0.70999  1.0000
  O   O23       1.0  0.8225499999999999  0.73619  0.8437100000000002  1.0000
  O   O24       1.0  0.7075  0.76632  0.03946  1.0000
