data_image0
_chemical_formula_structural       Cd3H26C28N2O12
_chemical_formula_sum              "Cd3 H26 C28 N2 O12"
_cell_length_a       9.18362
_cell_length_b       9.67614
_cell_length_c       17.41219
_cell_angle_alpha    99.87817
_cell_angle_beta     93.34576
_cell_angle_gamma    119.69334

_space_group_name_H-M_alt    "P 1"
_space_group_IT_number       1

loop_
  _space_group_symop_operation_xyz
  'x, y, z'

loop_
  _atom_site_type_symbol
  _atom_site_label
  _atom_site_symmetry_multiplicity
  _atom_site_fract_x
  _atom_site_fract_y
  _atom_site_fract_z
  _atom_site_occupancy
  Cd  Cd1       1.0  0.4464099999999998  0.8637499999999997  0.80545  1.0000
  Cd  Cd2       1.0  0.55358  0.13624  0.19455  1.0000
  Cd  Cd3       1.0  0.5  0.0  0.0  1.0000
  H   H1        1.0  0.25957999999999987  0.44989999999999986  0.9927099999999999  1.0000
  H   H2        1.0  0.46512  0.42613  0.91135  1.0000
  H   H3        1.0  0.31415000000000004  0.3506899999999999  0.82441  1.0000
  H   H4        1.0  0.27956999999999993  0.18196999999999997  0.9623199999999998  1.0000
  H   H5        1.0  0.007409999999999864  0.9568599999999999  0.8841  1.0000
  H   H6        1.0  0.03263000000000001  0.06035000000000003  0.8071  1.0000
  H   H7        1.0  0.98122  0.16712999999999997  0.97422  1.0000
  H   H8        1.0  0.9822  0.3964199999999999  0.92912  1.0000
  H   H9        1.0  0.020410000000000008  0.33168  0.83501  1.0000
  H   H10       1.0  0.23846000000000003  0.49948  0.70285  1.0000
  H   H11       1.0  0.040799999999999954  0.3349899999999999  0.57629  1.0000
  H   H12       1.0  0.11400999999999992  0.7873599999999997  0.52697  1.0000
  H   H13       1.0  0.3067599999999999  0.9311799999999998  0.65685  1.0000
  H   H14       1.0  0.74041  0.5501  0.00729  1.0000
  H   H15       1.0  0.53487  0.57387  0.08866  1.0000
  H   H16       1.0  0.68583  0.64931  0.1756  1.0000
  H   H17       1.0  0.72042  0.81803  0.03768  1.0000
  H   H18       1.0  0.9925799999999999  0.04314  0.1159  1.0000
  H   H19       1.0  0.96736  0.93965  0.1929  1.0000
  H   H20       1.0  0.018759999999999867  0.8328599999999998  0.025789999999999997  1.0000
  H   H21       1.0  0.01778999999999989  0.6035799999999998  0.07088  1.0000
  H   H22       1.0  0.97958  0.66832  0.165  1.0000
  H   H23       1.0  0.76153  0.50052  0.29716  1.0000
  H   H24       1.0  0.95919  0.6650099999999998  0.42371  1.0000
  H   H25       1.0  0.8859800000000001  0.21263999999999994  0.47303  1.0000
  H   H26       1.0  0.69323  0.06882  0.34315  1.0000
  C   C1        1.0  0.31207  0.61076  0.91601  1.0000
  C   C2        1.0  0.23876  0.43816  0.92854  1.0000
  C   C3        1.0  0.32818  0.3540799999999998  0.8878199999999998  1.0000
  C   C4        1.0  0.25371  0.17968999999999996  0.89947  1.0000
  C   C5        1.0  0.32536000000000004  0.0861699999999999  0.8527299999999998  1.0000
  C   C6        1.0  0.05935  0.07842999999999999  0.87148  1.0000
  C   C7        1.0  0.96884  0.16327  0.91062  1.0000
  C   C8        1.0  0.78099  0.05614000000000001  0.87658  1.0000
  C   C9        1.0  0.045290000000000004  0.33753  0.89823  1.0000
  C   C10       1.0  0.20897000000000002  0.55736  0.66085  1.0000
  C   C11       1.0  0.09730999999999995  0.46689  0.5899  1.0000
  C   C12       1.0  0.05909999999999998  0.54598  0.5382  1.0000
  C   C13       1.0  0.13779999999999998  0.7168799999999997  0.5628599999999999  1.0000
  C   C14       1.0  0.24768000000000007  0.7995700000000001  0.63471  1.0000
  C   C15       1.0  0.68792  0.38924  0.084  1.0000
  C   C16       1.0  0.7612300000000001  0.56184  0.07146  1.0000
  C   C17       1.0  0.67181  0.6459199999999998  0.11218  1.0000
  C   C18       1.0  0.7462800000000002  0.8203  0.10053  1.0000
  C   C19       1.0  0.6746199999999998  0.9138299999999998  0.14728  1.0000
  C   C20       1.0  0.94064  0.9215599999999998  0.12852  1.0000
  C   C21       1.0  0.031149999999999855  0.83673  0.08939  1.0000
  C   C22       1.0  0.21898999999999988  0.9438599999999998  0.12343  1.0000
  C   C23       1.0  0.9546900000000001  0.66247  0.10177  1.0000
  C   C24       1.0  0.79102  0.44264  0.33915  1.0000
  C   C25       1.0  0.90267  0.53311  0.41011  1.0000
  C   C26       1.0  0.9408800000000002  0.4540199999999999  0.4618  1.0000
  C   C27       1.0  0.8621799999999998  0.28310999999999986  0.43715  1.0000
  C   C28       1.0  0.75231  0.20043  0.36529  1.0000
  N   N1        1.0  0.28426  0.72151  0.68279  1.0000
  N   N2        1.0  0.71573  0.27849  0.31721  1.0000
  O   O1        1.0  0.3271499999999999  0.6262499999999998  0.84468  1.0000
  O   O2        1.0  0.34909  0.72347  0.97695  1.0000
  O   O3        1.0  0.7273300000000001  0.04958999999999997  0.80594  1.0000
  O   O4        1.0  0.68076  0.96529  0.91853  1.0000
  O   O5        1.0  0.35517  0.09735000000000003  0.78428  1.0000
  O   O6        1.0  0.34041999999999994  0.9816499999999999  0.88669  1.0000
  O   O7        1.0  0.67284  0.37375  0.15533  1.0000
  O   O8        1.0  0.6508899999999999  0.2765199999999999  0.02305  1.0000
  O   O9        1.0  0.27265  0.95041  0.19406  1.0000
  O   O10       1.0  0.31923  0.03470999999999999  0.08147  1.0000
  O   O11       1.0  0.6448199999999998  0.9026499999999998  0.21572  1.0000
  O   O12       1.0  0.6595700000000001  0.018349999999999998  0.11331  1.0000
