data_image0
_chemical_formula_structural       U4H20C32O18
_chemical_formula_sum              "U4 H20 C32 O18"
_cell_length_a       9.01588
_cell_length_b       10.87873
_cell_length_c       14.105440000000002
_cell_angle_alpha    105.21121
_cell_angle_beta     102.04138
_cell_angle_gamma    107.09214

_space_group_name_H-M_alt    "P 1"
_space_group_IT_number       1

loop_
  _space_group_symop_operation_xyz
  'x, y, z'

loop_
  _atom_site_type_symbol
  _atom_site_label
  _atom_site_symmetry_multiplicity
  _atom_site_fract_x
  _atom_site_fract_y
  _atom_site_fract_z
  _atom_site_occupancy
  U   U1        1.0  0.8601000000000002  0.1797  0.09  1.0000
  U   U2        1.0  0.1102  0.68717  0.49240000000000006  1.0000
  U   U3        1.0  0.14122  0.8204400000000002  0.91076  1.0000
  U   U4        1.0  0.8898900000000001  0.31307  0.50786  1.0000
  H   H1        1.0  0.9542900000000001  0.6354600000000001  0.0794  1.0000
  H   H2        1.0  0.8743700000000003  0.9712300000000003  0.27695  1.0000
  H   H3        1.0  0.83235  0.84442  0.39853  1.0000
  H   H4        1.0  0.8200900000000003  0.6071000000000001  0.35148  1.0000
  H   H5        1.0  0.8965000000000001  0.42505000000000015  0.3171100000000001  1.0000
  H   H6        1.0  0.7402900000000002  0.43773000000000006  0.3843500000000001  1.0000
  H   H7        1.0  0.5263500000000002  0.99741  0.3967000000000001  1.0000
  H   H8        1.0  0.23981000000000002  0.58364  0.18471  1.0000
  H   H9        1.0  0.32804000000000005  0.6461500000000001  0.04069000000000001  1.0000
  H   H10       1.0  0.52272  0.88245  0.07511  1.0000
  H   H11       1.0  0.04568000000000002  0.3644500000000001  0.9206  1.0000
  H   H12       1.0  0.12590000000000007  0.028899999999999985  0.72299  1.0000
  H   H13       1.0  0.16768000000000002  0.15562000000000006  0.60136  1.0000
  H   H14       1.0  0.17991000000000004  0.39294  0.6484900000000001  1.0000
  H   H15       1.0  0.10363000000000001  0.57492  0.68289  1.0000
  H   H16       1.0  0.25998  0.5625  0.6157  1.0000
  H   H17       1.0  0.47383000000000003  0.002849999999999986  0.60356  1.0000
  H   H18       1.0  0.7602800000000002  0.41637  0.8154400000000002  1.0000
  H   H19       1.0  0.6718300000000001  0.3536000000000002  0.9592400000000001  1.0000
  H   H20       1.0  0.4773800000000001  0.11755999999999994  0.92496  1.0000
  C   C1        1.0  0.92639  0.4800200000000001  0.19073  1.0000
  C   C2        1.0  0.9088100000000001  0.60823  0.21837000000000006  1.0000
  C   C3        1.0  0.92816  0.68084  0.14917  1.0000
  C   C4        1.0  0.9190700000000002  0.81049  0.17067000000000004  1.0000
  C   C5        1.0  0.8862400000000001  0.87163  0.26308  1.0000
  C   C6        1.0  0.8642400000000002  0.80099  0.33022  1.0000
  C   C7        1.0  0.87543  0.6705999999999999  0.31115  1.0000
  C   C8        1.0  0.9423300000000002  0.8805900000000002  0.09696  1.0000
  C   C9        1.0  0.66074  0.08573  0.25595  1.0000
  C   C10       1.0  0.5396400000000002  0.95784  0.23778  1.0000
  C   C11       1.0  0.48478000000000004  0.9231  0.3183  1.0000
  C   C12       1.0  0.3748700000000001  0.79119  0.29691  1.0000
  C   C13       1.0  0.3186400000000001  0.68784  0.19718  1.0000
  C   C14       1.0  0.36994000000000016  0.7237  0.11736000000000002  1.0000
  C   C15       1.0  0.47401000000000004  0.8570200000000001  0.13519  1.0000
  C   C16       1.0  0.30750000000000005  0.7623  0.37833  1.0000
  C   C17       1.0  0.07353000000000008  0.51993  0.80926  1.0000
  C   C18       1.0  0.09114000000000001  0.3916  0.78159  1.0000
  C   C19       1.0  0.07192000000000003  0.31909000000000004  0.85083  1.0000
  C   C20       1.0  0.08139999999999999  0.18966  0.82936  1.0000
  C   C21       1.0  0.11399000000000012  0.12839000000000012  0.7369000000000002  1.0000
  C   C22       1.0  0.13585000000000005  0.19905  0.66973  1.0000
  C   C23       1.0  0.12464000000000001  0.32939  0.68882  1.0000
  C   C24       1.0  0.05826000000000001  0.11965000000000002  0.90335  1.0000
  C   C25       1.0  0.3395400000000002  0.9143900000000003  0.74419  1.0000
  C   C26       1.0  0.46047000000000005  0.04235  0.76232  1.0000
  C   C27       1.0  0.51536  0.07720000000000003  0.68191  1.0000
  C   C28       1.0  0.6252100000000002  0.20884000000000005  0.7030100000000001  1.0000
  C   C29       1.0  0.68126  0.31224  0.80282  1.0000
  C   C30       1.0  0.6300000000000001  0.27619000000000005  0.8825500000000001  1.0000
  C   C31       1.0  0.52614  0.14299  0.86489  1.0000
  C   C32       1.0  0.69252  0.23762  0.62162  1.0000
  O   O1        1.0  0.9391600000000001  0.40469  0.25661  1.0000
  O   O2        1.0  0.9288300000000002  0.41421  0.10080000000000001  1.0000
  O   O3        1.0  0.9161200000000002  0.99359  0.11152000000000001  1.0000
  O   O4        1.0  0.9869700000000001  0.8291  0.01929  1.0000
  O   O5        1.0  0.8512200000000002  0.47344  0.42988  1.0000
  O   O6        1.0  0.26657000000000014  0.6405100000000002  0.38568000000000013  1.0000
  O   O7        1.0  0.27774  0.85575  0.44159  1.0000
  O   O8        1.0  0.69  0.12054000000000001  0.17663  1.0000
  O   O9        1.0  0.75433  0.16969000000000006  0.3503700000000001  1.0000
  O   O10       1.0  0.06114000000000001  0.59548  0.74359  1.0000
  O   O11       1.0  0.07088000000000004  0.5855100000000001  0.89915  1.0000
  O   O12       1.0  0.08421000000000003  0.006390000000000024  0.8891700000000001  1.0000
  O   O13       1.0  0.012880000000000006  0.17078000000000004  0.98059  1.0000
  O   O14       1.0  0.14868  0.5263  0.5701  1.0000
  O   O15       1.0  0.7332900000000002  0.35944  0.61429  1.0000
  O   O16       1.0  0.7226100000000002  0.14428000000000002  0.5583  1.0000
  O   O17       1.0  0.31074999999999997  0.8793100000000001  0.82353  1.0000
  O   O18       1.0  0.24586000000000002  0.83042  0.6497900000000001  1.0000
