data_image0
_chemical_formula_structural       Pr2H24C18O12
_chemical_formula_sum              "Pr2 H24 C18 O12"
_cell_length_a       8.14328
_cell_length_b       10.60956
_cell_length_c       11.5409
_cell_angle_alpha    74.40994
_cell_angle_beta     72.76363
_cell_angle_gamma    86.57138

_symmetry_space_group_name_H-M    'P 1'
_symmetry_Int_Tables_number       1

loop_
  _symmetry_equiv_pos_as_xyz
  'x,y,z'

loop_
  _atom_site_type_symbol
  _atom_site_label
  _atom_site_symmetry_multiplicity
  _atom_site_fract_x
  _atom_site_fract_y
  _atom_site_fract_z
  _atom_site_occupancy
  Pr  Pr1       1.0  0.7494699999999997  0.9365199999999999  0.018  1.0000
  Pr  Pr2       1.0  0.25097  0.06342999999999994  0.9821100000000001  1.0000
  H   H1        1.0  0.2953500000000001  0.9778899999999999  0.67733  1.0000
  H   H2        1.0  0.2770499999999998  0.8070499999999998  0.73633  1.0000
  H   H3        1.0  0.08335999999999999  0.7938799999999999  0.6064100000000001  1.0000
  H   H4        1.0  0.07874999999999999  0.9649499999999999  0.5578200000000001  1.0000
  H   H5        1.0  0.39704999999999996  0.9764199999999998  0.45145  1.0000
  H   H6        1.0  0.4053299999999998  0.80534  0.49225  1.0000
  H   H7        1.0  0.18038  0.9651999999999998  0.33332  1.0000
  H   H8        1.0  0.20531  0.7949399999999999  0.36398  1.0000
  H   H9        1.0  0.74442  0.4799999999999999  0.22989  1.0000
  H   H10       1.0  0.6944  0.4775  0.09131000000000002  1.0000
  H   H11       1.0  0.05619999999999999  0.52433  0.10826000000000001  1.0000
  H   H12       1.0  0.9809799999999997  0.3729  0.10595  1.0000
  H   H13       1.0  0.7047499999999998  0.022089999999999974  0.32258000000000003  1.0000
  H   H14       1.0  0.72311  0.19291999999999995  0.26355  1.0000
  H   H15       1.0  0.9166899999999999  0.20611  0.39354000000000006  1.0000
  H   H16       1.0  0.9212900000000002  0.035039999999999995  0.44214  1.0000
  H   H17       1.0  0.60299  0.023569999999999963  0.54852  1.0000
  H   H18       1.0  0.5947100000000001  0.19466999999999995  0.50772  1.0000
  H   H19       1.0  0.8197  0.034820000000000004  0.66662  1.0000
  H   H20       1.0  0.7947400000000001  0.20507999999999996  0.63598  1.0000
  H   H21       1.0  0.25559  0.51992  0.77015  1.0000
  H   H22       1.0  0.30558  0.52243  0.90871  1.0000
  H   H23       1.0  0.9437999999999995  0.47563  0.89175  1.0000
  H   H24       1.0  0.019059999999999935  0.6270399999999999  0.8940500000000001  1.0000
  C   C1        1.0  0.05439000000000003  0.9079099999999999  0.8071  1.0000
  C   C2        1.0  0.20786  0.8941599999999998  0.6998  1.0000
  C   C3        1.0  0.16142  0.8829799999999999  0.58369  1.0000
  C   C4        1.0  0.32033999999999996  0.8871999999999998  0.47104  1.0000
  C   C5        1.0  0.2712399999999998  0.8871399999999999  0.35285  1.0000
  C   C6        1.0  0.578  0.09236999999999998  0.76402  1.0000
  C   C7        1.0  0.7639099999999999  0.66535  0.09855000000000001  1.0000
  C   C8        1.0  0.78461  0.51838  0.12673  1.0000
  C   C9        1.0  0.9704699999999999  0.4793899999999999  0.07213  1.0000
  C   C10       1.0  0.9458499999999999  0.09197999999999998  0.19283  1.0000
  C   C11       1.0  0.79229  0.10579999999999999  0.30007  1.0000
  C   C12       1.0  0.83864  0.11699999999999994  0.41624  1.0000
  C   C13       1.0  0.6796999999999997  0.11280000000000001  0.5289  1.0000
  C   C14       1.0  0.7288299999999996  0.11286999999999991  0.64709  1.0000
  C   C15       1.0  0.4220899999999999  0.90755  0.23596  1.0000
  C   C16       1.0  0.23612000000000002  0.3344999999999999  0.9014700000000001  1.0000
  C   C17       1.0  0.21539  0.4814899999999999  0.8733  1.0000
  C   C18       1.0  0.02954000000000001  0.5205400000000001  0.92788  1.0000
  O   O1        1.0  0.6063399999999998  0.06362  0.87345  1.0000
  O   O2        1.0  0.5742099999999998  0.8984599999999999  0.2431  1.0000
  O   O3        1.0  0.8800699999999998  0.73717  0.10591  1.0000
  O   O4        1.0  0.6326299999999998  0.71791  0.06606  1.0000
  O   O5        1.0  0.90513  0.87368  0.81435  1.0000
  O   O6        1.0  0.07602999999999994  0.95647  0.89426  1.0000
  O   O7        1.0  0.39372999999999986  0.9362299999999999  0.12656  1.0000
  O   O8        1.0  0.4258599999999999  0.10141999999999991  0.75687  1.0000
  O   O9        1.0  0.11995000000000003  0.26268  0.8941  1.0000
  O   O10       1.0  0.3673899999999998  0.2819599999999999  0.9339400000000001  1.0000
  O   O11       1.0  0.09508  0.12625  0.18553  1.0000
  O   O12       1.0  0.92423  0.04329999999999999  0.10574000000000003  1.0000
