data_image0
_chemical_formula_structural       Fe2H24C24N36
_chemical_formula_sum              "Fe2 H24 C24 N36"
_cell_length_a       9.28046
_cell_length_b       8.814149999999998
_cell_length_c       13.867010000000002
_cell_angle_alpha    82.47514
_cell_angle_beta     84.73941
_cell_angle_gamma    72.92768

_space_group_name_H-M_alt    "P 1"
_space_group_IT_number       1

loop_
  _space_group_symop_operation_xyz
  'x, y, z'

loop_
  _atom_site_type_symbol
  _atom_site_label
  _atom_site_symmetry_multiplicity
  _atom_site_fract_x
  _atom_site_fract_y
  _atom_site_fract_z
  _atom_site_occupancy
  Fe  Fe1       1.0  0.0  0.9998600000000001  3e-05  1.0000
  Fe  Fe2       1.0  0.50083  0.49984  0.4995199999999999  1.0000
  H   H1        1.0  0.017079999999999988  0.64984  0.95301  1.0000
  H   H2        1.0  0.78624  0.8976100000000001  0.70876  1.0000
  H   H3        1.0  0.96255  0.6889  0.61699  1.0000
  H   H4        1.0  0.33874  0.86128  0.56128  1.0000
  H   H5        1.0  0.7318100000000001  0.2563500000000001  0.8831399999999998  1.0000
  H   H6        1.0  0.08998000000000003  0.41792000000000007  0.7336899999999997  1.0000
  H   H7        1.0  0.6596800000000002  0.67024  0.7975599999999998  1.0000
  H   H8        1.0  0.8038200000000002  0.29959  0.6115099999999998  1.0000
  H   H9        1.0  0.35833000000000004  0.9733400000000001  0.01769  1.0000
  H   H10       1.0  0.38847000000000004  0.8103400000000001  0.74366  1.0000
  H   H11       1.0  0.53323  0.016080000000000014  0.7354  1.0000
  H   H12       1.0  0.2837000000000001  0.27133000000000007  0.5005899999999999  1.0000
  H   H13       1.0  0.98276  0.3499  0.047099999999999996  1.0000
  H   H14       1.0  0.21363  0.10224000000000001  0.29134999999999994  1.0000
  H   H15       1.0  0.03930000000000003  0.3104  0.3833499999999999  1.0000
  H   H16       1.0  0.66268  0.13849000000000003  0.43780999999999987  1.0000
  H   H17       1.0  0.26816000000000023  0.7436300000000001  0.11676  1.0000
  H   H18       1.0  0.91013  0.5822  0.26670999999999995  1.0000
  H   H19       1.0  0.34001  0.32976  0.20208999999999994  1.0000
  H   H20       1.0  0.19747000000000003  0.70038  0.3882499999999999  1.0000
  H   H21       1.0  0.6415900000000001  0.02692999999999999  0.98216  1.0000
  H   H22       1.0  0.61151  0.18969  0.25627  1.0000
  H   H23       1.0  0.46665999999999996  0.98506  0.26483  1.0000
  H   H24       1.0  0.7174  0.72861  0.49888  1.0000
  C   C1        1.0  0.9551600000000002  0.74165  0.9001699999999999  1.0000
  C   C2        1.0  0.8383400000000002  0.86912  0.7781799999999999  1.0000
  C   C3        1.0  0.07676999999999999  0.69562  0.59877  1.0000
  C   C4        1.0  0.2646600000000001  0.78499  0.5705099999999999  1.0000
  C   C5        1.0  0.8432400000000001  0.26909  0.86383  1.0000
  C   C6        1.0  0.030060000000000017  0.35342  0.78702  1.0000
  C   C7        1.0  0.6645700000000002  0.6027000000000002  0.73669  1.0000
  C   C8        1.0  0.7403900000000002  0.41001000000000004  0.6397199999999998  1.0000
  C   C9        1.0  0.33579000000000003  0.93002  0.9526699999999998  1.0000
  C   C10       1.0  0.3476199999999999  0.8493300000000004  0.81466  1.0000
  C   C11       1.0  0.49397  0.10255000000000004  0.6732999999999998  1.0000
  C   C12       1.0  0.36531  0.22949999999999998  0.55588  1.0000
  C   C13       1.0  0.04467999999999999  0.25813  0.09995  1.0000
  C   C14       1.0  0.16157  0.13071000000000002  0.22191999999999995  1.0000
  C   C15       1.0  0.9249599999999999  0.30382000000000003  0.4011899999999999  1.0000
  C   C16       1.0  0.73687  0.21465999999999996  0.42886  1.0000
  C   C17       1.0  0.15672000000000005  0.73084  0.13617  1.0000
  C   C18       1.0  0.9699400000000002  0.64663  0.21323999999999999  1.0000
  C   C19       1.0  0.33563000000000015  0.39716  0.26293999999999995  1.0000
  C   C20       1.0  0.26059999999999994  0.58991  0.35995  1.0000
  C   C21       1.0  0.6641700000000003  0.07012000000000002  0.04722999999999999  1.0000
  C   C22       1.0  0.6523900000000004  0.15063  0.18528999999999995  1.0000
  C   C23       1.0  0.5063100000000001  0.8981899999999999  0.32667  1.0000
  C   C24       1.0  0.6356500000000003  0.7706400000000001  0.44368999999999986  1.0000
  N   N1        1.0  0.92017  0.9017900000000001  0.9103599999999997  1.0000
  N   N2        1.0  0.84311  0.9825800000000001  0.8312299999999998  1.0000
  N   N3        1.0  0.9052600000000002  0.7161100000000002  0.8187799999999998  1.0000
  N   N4        1.0  0.11762000000000007  0.83347  0.59521  1.0000
  N   N5        1.0  0.18931999999999996  0.5673300000000001  0.57759  1.0000
  N   N6        1.0  0.31271999999999994  0.62464  0.5588499999999998  1.0000
  N   N7        1.0  0.9696  0.1950500000000001  0.9069699999999998  1.0000
  N   N8        1.0  0.08721000000000008  0.24775  0.8593899999999998  1.0000
  N   N9        1.0  0.8767700000000004  0.36957000000000007  0.7872599999999997  1.0000
  N   N10       1.0  0.7732300000000001  0.4603  0.7224  1.0000
  N   N11       1.0  0.57302  0.63975  0.66527  1.0000
  N   N12       1.0  0.62027  0.51914  0.60514  1.0000
  N   N13       1.0  0.19515  0.91952  0.9359299999999999  1.0000
  N   N14       1.0  0.20487999999999998  0.8673  0.8466  1.0000
  N   N15       1.0  0.4351200000000002  0.88515  0.8787599999999998  1.0000
  N   N16       1.0  0.3799100000000001  0.09862000000000001  0.6177899999999998  1.0000
  N   N17       1.0  0.5493600000000001  0.22672000000000003  0.6470099999999999  1.0000
  N   N18       1.0  0.46703000000000006  0.31054  0.57066  1.0000
  N   N19       1.0  0.07985000000000002  0.09798  0.08970999999999997  1.0000
  N   N20       1.0  0.15684  0.017230000000000002  0.16888  1.0000
  N   N21       1.0  0.09460000000000003  0.28371  0.18132999999999996  1.0000
  N   N22       1.0  0.88403  0.16605  0.40455999999999986  1.0000
  N   N23       1.0  0.8123400000000003  0.43224  0.4220299999999999  1.0000
  N   N24       1.0  0.68879  0.37509  0.44033999999999995  1.0000
  N   N25       1.0  0.03028000000000002  0.80485  0.09313  1.0000
  N   N26       1.0  0.91267  0.7523000000000002  0.14084999999999998  1.0000
  N   N27       1.0  0.12328000000000003  0.63046  0.2128  1.0000
  N   N28       1.0  0.22710999999999995  0.53957  0.2775  1.0000
  N   N29       1.0  0.42772000000000016  0.36011  0.33409  1.0000
  N   N30       1.0  0.38098  0.48074  0.39420999999999995  1.0000
  N   N31       1.0  0.8049000000000002  0.08021  0.0641  1.0000
  N   N32       1.0  0.7952100000000002  0.13231000000000004  0.15345999999999996  1.0000
  N   N33       1.0  0.56481  0.11513000000000004  0.12109999999999999  1.0000
  N   N34       1.0  0.6203800000000002  0.9020800000000001  0.3822  1.0000
  N   N35       1.0  0.45158  0.7735  0.35253  1.0000
  N   N36       1.0  0.53427  0.68937  0.4286599999999999  1.0000
