data_image0
_chemical_formula_structural       Er2H12C24O12
_chemical_formula_sum              "Er2 H12 C24 O12"
_cell_length_a       8.68912
_cell_length_b       10.32401
_cell_length_c       10.92544
_cell_angle_alpha    65.06763
_cell_angle_beta     69.54087
_cell_angle_gamma    78.09732999999999

_symmetry_space_group_name_H-M    'P 1'
_symmetry_Int_Tables_number       1

loop_
  _symmetry_equiv_pos_as_xyz
  'x,y,z'

loop_
  _atom_site_type_symbol
  _atom_site_label
  _atom_site_symmetry_multiplicity
  _atom_site_fract_x
  _atom_site_fract_y
  _atom_site_fract_z
  _atom_site_occupancy
  Er  Er1       1.0  0.37064999999999987  0.58795  0.82419  1.0000
  Er  Er2       1.0  0.6293600000000004  0.41212  0.17585  1.0000
  H   H1        1.0  0.77406  0.37086  0.51873  1.0000
  H   H2        1.0  0.9339900000000001  0.6644600000000002  0.62702  1.0000
  H   H3        1.0  0.25201000000000007  0.17039  0.9883600000000001  1.0000
  H   H4        1.0  0.74221  0.06785  0.02587  1.0000
  H   H5        1.0  0.86135  0.8452900000000001  0.74792  1.0000
  H   H6        1.0  0.30374999999999996  0.96346  0.4001  1.0000
  H   H7        1.0  0.22592999999999994  0.6292200000000001  0.48123  1.0000
  H   H8        1.0  0.06596999999999996  0.33556  0.37301  1.0000
  H   H9        1.0  0.74814  0.82961  0.01167  1.0000
  H   H10       1.0  0.25774  0.93222  0.9741100000000001  1.0000
  H   H11       1.0  0.13864  0.15470999999999996  0.25211  1.0000
  H   H12       1.0  0.6961999999999999  0.03651000000000001  0.60001  1.0000
  C   C1        1.0  0.66946  0.5450500000000001  0.66451  1.0000
  C   C2        1.0  0.83962  0.52026  0.57998  1.0000
  C   C3        1.0  0.8737200000000002  0.42646  0.50957  1.0000
  C   C4        1.0  0.9655800000000002  0.59324  0.57054  1.0000
  C   C5        1.0  0.49274000000000007  0.27389  0.01612  1.0000
  C   C6        1.0  0.49675  0.13239  0.00814  1.0000
  C   C7        1.0  0.3598100000000002  0.09515  0.9928  1.0000
  C   C8        1.0  0.6370200000000003  0.0366  0.01516  1.0000
  C   C9        1.0  0.19007000000000004  0.78006  0.66668  1.0000
  C   C10       1.0  0.09152000000000007  0.8944999999999997  0.5819700000000001  1.0000
  C   C11       1.0  0.9205700000000001  0.91411  0.63983  1.0000
  C   C12       1.0  0.17108999999999994  0.98062  0.44202  1.0000
  C   C13       1.0  0.33050000000000007  0.4549799999999999  0.33551000000000003  1.0000
  C   C14       1.0  0.16037  0.47973  0.42006  1.0000
  C   C15       1.0  0.12625999999999998  0.57358  0.49043  1.0000
  C   C16       1.0  0.03439  0.40678  0.42949  1.0000
  C   C17       1.0  0.5076100000000001  0.72603  0.98386  1.0000
  C   C18       1.0  0.50336  0.8675999999999999  0.9918100000000001  1.0000
  C   C19       1.0  0.6403000000000002  0.9048400000000001  0.0072  1.0000
  C   C20       1.0  0.36304000000000025  0.9634  0.9848  1.0000
  C   C21       1.0  0.80992  0.21993  0.33332  1.0000
  C   C22       1.0  0.9084700000000002  0.10544  0.41807  1.0000
  C   C23       1.0  0.07943000000000001  0.08585  0.3602  1.0000
  C   C24       1.0  0.82888  0.01934  0.55804  1.0000
  O   O1        1.0  0.63904  0.6387  0.7206600000000001  1.0000
  O   O2        1.0  0.5526900000000001  0.47348000000000007  0.6833  1.0000
  O   O3        1.0  0.37422  0.36675000000000013  0.9882400000000001  1.0000
  O   O4        1.0  0.60869  0.29725  0.04969  1.0000
  O   O5        1.0  0.3456699999999999  0.7629200000000003  0.61228  1.0000
  O   O6        1.0  0.1194899999999999  0.69649  0.7950900000000001  1.0000
  O   O7        1.0  0.36106000000000005  0.3613  0.27938  1.0000
  O   O8        1.0  0.4471700000000001  0.52675  0.31663  1.0000
  O   O9        1.0  0.62639  0.63342  0.01165  1.0000
  O   O10       1.0  0.39164999999999983  0.7023300000000002  0.95053  1.0000
  O   O11       1.0  0.65437  0.23707  0.38782  1.0000
  O   O12       1.0  0.8805000000000001  0.30347  0.2049  1.0000
