data_image0
_chemical_formula_structural       V4P4H16C12O20
_chemical_formula_sum              "V4 P4 H16 C12 O20"
_cell_length_a       5.53897
_cell_length_b       7.73811
_cell_length_c       18.21934
_cell_angle_alpha    90.04848
_cell_angle_beta     89.68817
_cell_angle_gamma    102.47169

_space_group_name_H-M_alt    "P 1"
_space_group_IT_number       1

loop_
  _space_group_symop_operation_xyz
  'x, y, z'

loop_
  _atom_site_type_symbol
  _atom_site_label
  _atom_site_symmetry_multiplicity
  _atom_site_fract_x
  _atom_site_fract_y
  _atom_site_fract_z
  _atom_site_occupancy
  V   V1        1.0  0.64804  0.8811900000000001  0.4142199999999999  1.0000
  V   V2        1.0  0.35196  0.11881000000000003  0.58579  1.0000
  V   V3        1.0  0.14075  0.38092  0.08542  1.0000
  V   V4        1.0  0.8592499999999998  0.6190700000000002  0.9145799999999998  1.0000
  P   P1        1.0  0.7625899999999998  0.9119300000000002  0.58694  1.0000
  P   P2        1.0  0.23740999999999998  0.08807000000000002  0.41306  1.0000
  P   P3        1.0  0.7297699999999999  0.5862400000000002  0.08631999999999998  1.0000
  P   P4        1.0  0.27023  0.41376  0.9136799999999999  1.0000
  H   H1        1.0  0.9433100000000001  0.9637900000000003  0.7274  1.0000
  H   H2        1.0  0.54175  0.53745  0.22719000000000003  1.0000
  H   H3        1.0  0.45826  0.4625500000000001  0.77281  1.0000
  H   H4        1.0  0.3656199999999999  0.03899  0.24842  1.0000
  H   H5        1.0  0.25363  0.15801000000000007  0.83933  1.0000
  H   H6        1.0  0.84737  0.5263500000000002  0.25001999999999996  1.0000
  H   H7        1.0  0.9757399999999998  0.23465000000000005  0.8351599999999999  1.0000
  H   H8        1.0  0.52536  0.2783000000000001  0.33514  1.0000
  H   H9        1.0  0.056690000000000004  0.03621000000000001  0.27261  1.0000
  H   H10       1.0  0.74637  0.8419900000000002  0.16067  1.0000
  H   H11       1.0  0.6343899999999999  0.9610100000000003  0.7515799999999999  1.0000
  H   H12       1.0  0.15264  0.4736500000000001  0.74999  1.0000
  H   H13       1.0  0.47464  0.7217000000000002  0.66486  1.0000
  H   H14       1.0  0.7609299999999999  0.65634  0.6598099999999999  1.0000
  H   H15       1.0  0.23906999999999998  0.3436600000000001  0.3402  1.0000
  H   H16       1.0  0.02427000000000008  0.7653500000000002  0.16485  1.0000
  C   C1        1.0  0.7986799999999998  0.76553  0.80072  1.0000
  C   C2        1.0  0.8219700000000001  0.7226700000000003  0.1659  1.0000
  C   C3        1.0  0.17803999999999998  0.27733000000000013  0.83411  1.0000
  C   C4        1.0  0.29772  0.26996  0.69907  1.0000
  C   C5        1.0  0.7293899999999999  0.61845  0.23578  1.0000
  C   C6        1.0  0.32429  0.22884000000000004  0.33416  1.0000
  C   C7        1.0  0.7605799999999999  0.8753000000000002  0.73616  1.0000
  C   C8        1.0  0.7022799999999999  0.73004  0.30093  1.0000
  C   C9        1.0  0.23942  0.12470000000000003  0.26384  1.0000
  C   C10       1.0  0.6757099999999999  0.7711600000000002  0.66584  1.0000
  C   C11       1.0  0.27062  0.3815500000000001  0.7642199999999999  1.0000
  C   C12       1.0  0.2013  0.23445  0.19928  1.0000
  O   O1        1.0  0.31882  0.9102300000000002  0.39709  1.0000
  O   O2        1.0  0.8638499999999999  0.6836300000000002  0.01893  1.0000
  O   O3        1.0  0.68003  0.65955  0.36644  1.0000
  O   O4        1.0  0.5551799999999999  0.4486600000000001  0.91866  1.0000
  O   O5        1.0  0.8268399999999998  0.6070800000000002  0.79627  1.0000
  O   O6        1.0  0.36902  0.18298  0.48098  1.0000
  O   O7        1.0  0.44483  0.5513300000000001  0.08134  1.0000
  O   O8        1.0  0.13615  0.3163800000000001  0.98107  1.0000
  O   O9        1.0  0.9521199999999997  0.05016000000000002  0.41887  1.0000
  O   O10       1.0  0.17313999999999996  0.3929200000000001  0.20373  1.0000
  O   O11       1.0  0.31997  0.3404500000000001  0.6335599999999999  1.0000
  O   O12       1.0  0.30935  0.10796000000000003  0.70342  1.0000
  O   O13       1.0  0.81352  0.8352200000000002  0.86636  1.0000
  O   O14       1.0  0.18645999999999996  0.16477000000000006  0.13364  1.0000
  O   O15       1.0  0.63098  0.8170200000000002  0.51902  1.0000
  O   O16       1.0  0.19275  0.59357  0.90009  1.0000
  O   O17       1.0  0.80726  0.40644000000000013  0.09992  1.0000
  O   O18       1.0  0.04788999999999999  0.9498400000000001  0.58113  1.0000
  O   O19       1.0  0.68118  0.08977000000000002  0.60291  1.0000
  O   O20       1.0  0.69065  0.8920400000000003  0.29658  1.0000
