data_image0
_chemical_formula_structural       Mn4H12C32O16
_chemical_formula_sum              "Mn4 H12 C32 O16"
_cell_length_a       9.17547
_cell_length_b       10.37077
_cell_length_c       12.84525
_cell_angle_alpha    92.20186999999999
_cell_angle_beta     90.40507
_cell_angle_gamma    103.873

_space_group_name_H-M_alt    "P 1"
_space_group_IT_number       1

loop_
  _space_group_symop_operation_xyz
  'x, y, z'

loop_
  _atom_site_type_symbol
  _atom_site_label
  _atom_site_symmetry_multiplicity
  _atom_site_fract_x
  _atom_site_fract_y
  _atom_site_fract_z
  _atom_site_occupancy
  Mn  Mn1       1.0  0.7236699999999998  0.54948  0.5787399999999999  1.0000
  Mn  Mn2       1.0  0.72443  0.4354  0.35776  1.0000
  Mn  Mn3       1.0  0.22771999999999998  0.47048000000000006  0.10946999999999998  1.0000
  Mn  Mn4       1.0  0.2478  0.6055  0.87563  1.0000
  H   H1        1.0  0.59238  0.78569  0.50089  1.0000
  H   H2        1.0  0.13695999999999994  0.80693  0.55222  1.0000
  H   H3        1.0  0.22358000000000003  0.47204999999999997  0.3760899999999999  1.0000
  H   H4        1.0  0.52494  0.06281  0.48053  1.0000
  H   H5        1.0  0.49983999999999995  0.25402  0.7806499999999997  1.0000
  H   H6        1.0  0.36986  0.03533  0.8510799999999997  1.0000
  H   H7        1.0  0.39558  0.17957  0.04099  1.0000
  H   H8        1.0  0.87188  0.21797  0.05838  1.0000
  H   H9        1.0  0.69552  0.50433  0.8950599999999999  1.0000
  H   H10       1.0  0.45165999999999995  0.9274200000000001  0.0153  1.0000
  H   H11       1.0  0.6014899999999999  0.74939  0.27993999999999997  1.0000
  H   H12       1.0  0.7708200000000001  0.9686400000000001  0.33592  1.0000
  C   C1        1.0  0.52898  0.54974  0.39903  1.0000
  C   C2        1.0  0.42044999999999993  0.6211899999999999  0.43303999999999987  1.0000
  C   C3        1.0  0.47253  0.74515  0.48865999999999987  1.0000
  C   C4        1.0  0.37105  0.81208  0.53127  1.0000
  C   C5        1.0  0.21712999999999996  0.75787  0.51637  1.0000
  C   C6        1.0  0.16435  0.63659  0.45934999999999987  1.0000
  C   C7        1.0  0.26494999999999996  0.56837  0.41631  1.0000
  C   C8        1.0  0.0013800000000000036  0.57607  0.4603299999999999  1.0000
  C   C9        1.0  0.41830000000000006  0.93346  0.6005499999999999  1.0000
  C   C10       1.0  0.49343999999999993  0.05603  0.5621  1.0000
  C   C11       1.0  0.52407  0.17137  0.62787  1.0000
  C   C12       1.0  0.477  0.16378  0.7316699999999999  1.0000
  C   C13       1.0  0.40488  0.04279999999999999  0.7704599999999999  1.0000
  C   C14       1.0  0.3768  0.9262800000000001  0.70673  1.0000
  C   C15       1.0  0.6036799999999999  0.30367  0.59354  1.0000
  C   C16       1.0  0.31289  0.79906  0.75953  1.0000
  C   C17       1.0  0.40295  0.40191  0.94226  1.0000
  C   C18       1.0  0.53328  0.34439  0.96352  1.0000
  C   C19       1.0  0.50949  0.22774  0.01956  1.0000
  C   C20       1.0  0.6309499999999998  0.17879  0.052039999999999996  1.0000
  C   C21       1.0  0.77576  0.25093  0.02952  1.0000
  C   C22       1.0  0.80086  0.36772  0.97401  1.0000
  C   C23       1.0  0.67912  0.4133200000000001  0.93753  1.0000
  C   C24       1.0  0.9596299999999999  0.44780000000000003  0.97411  1.0000
  C   C25       1.0  0.61456  0.06119  0.11697999999999997  1.0000
  C   C26       1.0  0.52006  0.93805  0.08628999999999998  1.0000
  C   C27       1.0  0.51323  0.82642  0.14637  1.0000
  C   C28       1.0  0.60578  0.83688  0.23544  1.0000
  C   C29       1.0  0.69981  0.9584500000000001  0.26638  1.0000
  C   C30       1.0  0.70184  0.07165999999999999  0.20981999999999995  1.0000
  C   C31       1.0  0.40755  0.6976100000000001  0.11984  1.0000
  C   C32       1.0  0.7923199999999998  0.20162  0.25761  1.0000
  O   O1        1.0  0.6747000000000001  0.59692  0.42811  1.0000
  O   O2        1.0  0.5100600000000001  0.44151000000000007  0.34293  1.0000
  O   O3        1.0  0.61425  0.40370000000000006  0.6606699999999999  1.0000
  O   O4        1.0  0.66379  0.32295  0.50411  1.0000
  O   O5        1.0  0.33405  0.68772  0.72528  1.0000
  O   O6        1.0  0.24473  0.80577  0.8462099999999998  1.0000
  O   O7        1.0  0.9329800000000001  0.61058  0.54028  1.0000
  O   O8        1.0  0.93815  0.49398  0.38618  1.0000
  O   O9        1.0  0.28213999999999995  0.35723999999999995  0.99498  1.0000
  O   O10       1.0  0.41426  0.49394000000000005  0.8783899999999999  1.0000
  O   O11       1.0  0.39323  0.60347  0.18503999999999995  1.0000
  O   O12       1.0  0.32553  0.67683  0.036419999999999994  1.0000
  O   O13       1.0  0.71141  0.29229  0.26444  1.0000
  O   O14       1.0  0.9214899999999999  0.21454  0.29006999999999994  1.0000
  O   O15       1.0  0.02203000000000002  0.4550100000000001  0.06523  1.0000
  O   O16       1.0  0.022149999999999996  0.50234  0.89388  1.0000
