data_image0
_chemical_formula_structural       Ga8P10H4C4O48
_chemical_formula_sum              "Ga8 P10 H4 C4 O48"
_cell_length_a       9.19826
_cell_length_b       12.49931
_cell_length_c       12.424250000000002
_cell_angle_alpha    80.00705999999998
_cell_angle_beta     84.16693
_cell_angle_gamma    84.63232000000002

_space_group_name_H-M_alt    "P 1"
_space_group_IT_number       1

loop_
  _space_group_symop_operation_xyz
  'x, y, z'

loop_
  _atom_site_type_symbol
  _atom_site_label
  _atom_site_symmetry_multiplicity
  _atom_site_fract_x
  _atom_site_fract_y
  _atom_site_fract_z
  _atom_site_occupancy
  Ga  Ga1       1.0  0.13079  0.009570000000000004  0.30875  1.0000
  Ga  Ga2       1.0  0.43227  0.85464  0.62255  1.0000
  Ga  Ga3       1.0  0.3588899999999998  0.69029  0.9971499999999998  1.0000
  Ga  Ga4       1.0  0.06469999999999998  0.3839400000000001  0.14091  1.0000
  Ga  Ga5       1.0  0.8631600000000001  0.98698  0.69533  1.0000
  Ga  Ga6       1.0  0.56672  0.14629000000000003  0.3779099999999999  1.0000
  Ga  Ga7       1.0  0.63421  0.30982  0.00765  1.0000
  Ga  Ga8       1.0  0.93164  0.6159999999999999  0.85918  1.0000
  P   P1        1.0  0.36415  0.24273  0.18679  1.0000
  P   P2        1.0  0.4615000000000001  0.9196499999999999  0.37716  1.0000
  P   P3        1.0  0.13214  0.81328  0.76221  1.0000
  P   P4        1.0  0.024640000000000037  0.6291399999999998  0.08977  1.0000
  P   P5        1.0  0.63393  0.7567799999999999  0.8146799999999997  1.0000
  P   P6        1.0  0.53623  0.08200999999999999  0.62316  1.0000
  P   P7        1.0  0.8680699999999999  0.18520999999999999  0.23874999999999996  1.0000
  P   P8        1.0  0.96618  0.37151  0.91217  1.0000
  P   P9        1.0  0.25682999999999995  0.80983  0.19559999999999997  1.0000
  P   P10       1.0  0.74176  0.19084000000000004  0.80568  1.0000
  H   H1        1.0  0.2906699999999999  0.10091  0.13204  1.0000
  H   H2        1.0  0.20456  0.86859  0.9043199999999999  1.0000
  H   H3        1.0  0.7094300000000002  0.89616  0.87347  1.0000
  H   H4        1.0  0.79774  0.13333  0.09433999999999998  1.0000
  C   C1        1.0  0.015319999999999993  0.058679999999999996  0.5039  1.0000
  C   C2        1.0  0.4754  0.4978199999999999  0.94387  1.0000
  C   C3        1.0  0.97743  0.94077  0.49875999999999987  1.0000
  C   C4        1.0  0.5169  0.50185  0.061499999999999985  1.0000
  O   O1        1.0  0.266  0.13731  0.19612  1.0000
  O   O2        1.0  0.20071999999999993  0.93065  0.19526  1.0000
  O   O3        1.0  0.47343999999999997  0.2278  0.08906  1.0000
  O   O4        1.0  0.30477  0.96892  0.39163  1.0000
  O   O5        1.0  0.08131999999999998  0.11062  0.41897  1.0000
  O   O6        1.0  0.9776400000000002  0.09484  0.59241  1.0000
  O   O7        1.0  0.49671999999999994  0.8358899999999998  0.48052  1.0000
  O   O8        1.0  0.2596899999999999  0.34637  0.17507  1.0000
  O   O9        1.0  0.4297699999999999  0.23398999999999998  0.29732  1.0000
  O   O10       1.0  0.5777800000000001  0.004350000000000012  0.34957999999999995  1.0000
  O   O11       1.0  0.49585999999999997  0.8629199999999999  0.26863  1.0000
  O   O12       1.0  0.16296  0.71968  0.25339  1.0000
  O   O13       1.0  0.22994  0.80516  0.8675299999999998  1.0000
  O   O14       1.0  0.31759000000000004  0.8090499999999999  0.07459999999999999  1.0000
  O   O15       1.0  0.028900000000000037  0.91443  0.7730599999999997  1.0000
  O   O16       1.0  0.18337000000000003  0.61437  0.03664  1.0000
  O   O17       1.0  0.40735999999999994  0.58157  0.8940399999999998  1.0000
  O   O18       1.0  0.51278  0.41090000000000004  0.90531  1.0000
  O   O19       1.0  0.9941399999999999  0.51942  0.16927  1.0000
  O   O20       1.0  0.23808  0.8245199999999999  0.6569  1.0000
  O   O21       1.0  0.06509999999999998  0.70471  0.77047  1.0000
  O   O22       1.0  0.9114499999999999  0.64444  0.00013  1.0000
  O   O23       1.0  0.98616  0.73085  0.14361  1.0000
  O   O24       1.0  0.38996  0.77451  0.27958  1.0000
  O   O25       1.0  0.73272  0.86263  0.8074399999999998  1.0000
  O   O26       1.0  0.7982499999999999  0.07016000000000001  0.80675  1.0000
  O   O27       1.0  0.5274300000000001  0.7673700000000003  0.9144999999999998  1.0000
  O   O28       1.0  0.6919299999999999  0.030989999999999986  0.60931  1.0000
  O   O29       1.0  0.9114599999999999  0.88838  0.58323  1.0000
  O   O30       1.0  0.0147  0.90449  0.41023  1.0000
  O   O31       1.0  0.5031700000000001  0.16683  0.52015  1.0000
  O   O32       1.0  0.7405499999999999  0.6546599999999999  0.82032  1.0000
  O   O33       1.0  0.56904  0.76795  0.70364  1.0000
  O   O34       1.0  0.41943000000000014  0.99786  0.65022  1.0000
  O   O35       1.0  0.50377  0.13836999999999997  0.73242  1.0000
  O   O36       1.0  0.8375299999999998  0.2803800000000001  0.7465499999999998  1.0000
  O   O37       1.0  0.77047  0.19521000000000002  0.13308999999999999  1.0000
  O   O38       1.0  0.6816800000000001  0.19435000000000002  0.9256699999999998  1.0000
  O   O39       1.0  0.9699  0.08369  0.22717  1.0000
  O   O40       1.0  0.8094200000000001  0.3865700000000001  0.96804  1.0000
  O   O41       1.0  0.58531  0.41813  0.11116  1.0000
  O   O42       1.0  0.4796  0.58872  0.09994  1.0000
  O   O43       1.0  0.99751  0.47928000000000004  0.8306699999999998  1.0000
  O   O44       1.0  0.7611799999999999  0.17531999999999998  0.34340999999999994  1.0000
  O   O45       1.0  0.94028  0.29131  0.23264  1.0000
  O   O46       1.0  0.08171999999999996  0.35455  0.99973  1.0000
  O   O47       1.0  0.00041000000000000373  0.26870999999999995  0.85803  1.0000
  O   O48       1.0  0.6094099999999999  0.22672  0.72112  1.0000
