data_image0
_chemical_formula_structural       Mn4Ge8H32C24S12O16
_chemical_formula_sum              "Mn4 Ge8 H32 C24 S12 O16"
_cell_length_a       12.27888
_cell_length_b       14.11602
_cell_length_c       14.02126
_cell_angle_alpha    117.52759
_cell_angle_beta     110.30003
_cell_angle_gamma    92.9887

_space_group_name_H-M_alt    "P 1"
_space_group_IT_number       1

loop_
  _space_group_symop_operation_xyz
  'x, y, z'

loop_
  _atom_site_type_symbol
  _atom_site_label
  _atom_site_symmetry_multiplicity
  _atom_site_fract_x
  _atom_site_fract_y
  _atom_site_fract_z
  _atom_site_occupancy
  Mn  Mn1       1.0  0.8214600000000002  0.66536  0.20978000000000002  1.0000
  Mn  Mn2       1.0  0.1785400000000001  0.3346300000000001  0.7902300000000002  1.0000
  Mn  Mn3       1.0  0.5  0.5  0.0  1.0000
  Mn  Mn4       1.0  2.99999999999989e-05  0.49999  7.000000000000001e-05  1.0000
  Ge  Ge1       1.0  0.6363500000000001  0.10739999999999995  0.86802  1.0000
  Ge  Ge2       1.0  0.33663  0.9637400000000003  0.6512  1.0000
  Ge  Ge3       1.0  0.5071800000000001  0.84824  0.80437  1.0000
  Ge  Ge4       1.0  0.58215  0.8779399999999999  0.59678  1.0000
  Ge  Ge5       1.0  0.36365  0.89259  0.13198  1.0000
  Ge  Ge6       1.0  0.66337  0.03624999999999999  0.34879  1.0000
  Ge  Ge7       1.0  0.49282000000000004  0.15175000000000002  0.19563000000000003  1.0000
  Ge  Ge8       1.0  0.4178500000000001  0.12205  0.40321  1.0000
  H   H1        1.0  0.82377  0.26171  0.03885000000000001  1.0000
  H   H2        1.0  0.6877800000000002  0.29388  0.04767  1.0000
  H   H3        1.0  0.64065  0.31594  0.86631  1.0000
  H   H4        1.0  0.7893500000000002  0.3078100000000001  0.8802400000000002  1.0000
  H   H5        1.0  0.21365  0.09045000000000006  0.62334  1.0000
  H   H6        1.0  0.13396000000000005  0.99164  0.63697  1.0000
  H   H7        1.0  0.04765000000000001  0.9755600000000001  0.42971  1.0000
  H   H8        1.0  0.17300000000000004  0.93347  0.4115100000000001  1.0000
  H   H9        1.0  0.46469000000000005  0.6665  0.79519  1.0000
  H   H10       1.0  0.43779000000000007  0.7737100000000003  0.9098900000000002  1.0000
  H   H11       1.0  0.6926400000000001  0.75679  0.9257000000000001  1.0000
  H   H12       1.0  0.65759  0.85293  0.038200000000000005  1.0000
  H   H13       1.0  0.7279600000000002  0.79835  0.51048  1.0000
  H   H14       1.0  0.6540600000000002  0.87657  0.4507900000000001  1.0000
  H   H15       1.0  0.5360300000000001  0.64197  0.3808500000000001  1.0000
  H   H16       1.0  0.46434  0.7213  0.32485  1.0000
  H   H17       1.0  0.1762300000000001  0.7382800000000002  0.9611600000000002  1.0000
  H   H18       1.0  0.3122200000000001  0.70612  0.9523300000000002  1.0000
  H   H19       1.0  0.35936000000000007  0.68407  0.13370000000000004  1.0000
  H   H20       1.0  0.21067  0.6922  0.11977  1.0000
  H   H21       1.0  0.7863500000000002  0.9095400000000001  0.37666000000000005  1.0000
  H   H22       1.0  0.8660400000000003  0.008350000000000031  0.3630300000000001  1.0000
  H   H23       1.0  0.9523400000000002  0.024430000000000007  0.57028  1.0000
  H   H24       1.0  0.82699  0.06652999999999999  0.58849  1.0000
  H   H25       1.0  0.5353100000000001  0.33349  0.20480000000000004  1.0000
  H   H26       1.0  0.56221  0.22628  0.09011000000000001  1.0000
  H   H27       1.0  0.30735  0.2432  0.0743  1.0000
  H   H28       1.0  0.3424100000000001  0.14706000000000014  0.9618000000000002  1.0000
  H   H29       1.0  0.2720400000000001  0.20164000000000004  0.4895200000000001  1.0000
  H   H30       1.0  0.34594000000000014  0.12342000000000004  0.54921  1.0000
  H   H31       1.0  0.46397000000000005  0.35802  0.61915  1.0000
  H   H32       1.0  0.5356600000000001  0.27870000000000017  0.6751400000000001  1.0000
  C   C1        1.0  0.7323700000000001  0.26058000000000003  0.9878600000000001  1.0000
  C   C2        1.0  0.7323100000000003  0.32939  0.9285200000000002  1.0000
  C   C3        1.0  0.77587  0.44927000000000006  0.02316  1.0000
  C   C4        1.0  0.18631000000000006  0.0020999999999999947  0.59157  1.0000
  C   C5        1.0  0.11604000000000005  0.93539  0.4576300000000001  1.0000
  C   C6        1.0  0.05156  0.81723  0.40987  1.0000
  C   C7        1.0  0.5019200000000001  0.7518700000000003  0.8700400000000001  1.0000
  C   C8        1.0  0.62441  0.76812  0.96146  1.0000
  C   C9        1.0  0.63176  0.69396  0.01353  1.0000
  C   C10       1.0  0.6405900000000002  0.8125200000000002  0.47214  1.0000
  C   C11       1.0  0.55238  0.70713  0.36121  1.0000
  C   C12       1.0  0.5959400000000001  0.65878  0.26350000000000007  1.0000
  C   C13       1.0  0.26763  0.73941  0.012140000000000001  1.0000
  C   C14       1.0  0.2677  0.67061  0.07149000000000001  1.0000
  C   C15       1.0  0.22413000000000013  0.55072  0.9768700000000001  1.0000
  C   C16       1.0  0.81369  0.9978899999999998  0.40843  1.0000
  C   C17       1.0  0.88396  0.06460000000000005  0.54237  1.0000
  C   C18       1.0  0.9484300000000001  0.18279000000000004  0.59007  1.0000
  C   C19       1.0  0.49808  0.24812  0.12995  1.0000
  C   C20       1.0  0.3755800000000001  0.23188  0.03854  1.0000
  C   C21       1.0  0.36825000000000013  0.30604000000000003  0.9864800000000002  1.0000
  C   C22       1.0  0.35941  0.18747  0.52786  1.0000
  C   C23       1.0  0.44762000000000013  0.29287  0.63879  1.0000
  C   C24       1.0  0.4040600000000001  0.34122  0.7365  1.0000
  S   S1        1.0  0.45611000000000024  0.13411000000000012  0.7930800000000002  1.0000
  S   S2        1.0  0.7167900000000001  0.04119000000000015  0.7368300000000002  1.0000
  S   S3        1.0  0.6339600000000001  0.012469999999999985  0.95812  1.0000
  S   S4        1.0  0.3989800000000001  0.8924300000000001  0.5058600000000001  1.0000
  S   S5        1.0  0.3180400000000001  0.8561200000000001  0.7242400000000001  1.0000
  S   S6        1.0  0.58157  0.7651600000000002  0.6687100000000001  1.0000
  S   S7        1.0  0.5438800000000001  0.86588  0.20691000000000004  1.0000
  S   S8        1.0  0.2832100000000001  0.9588100000000003  0.26316000000000006  1.0000
  S   S9        1.0  0.36604  0.98753  0.04188000000000001  1.0000
  S   S10       1.0  0.60102  0.10756  0.49414  1.0000
  S   S11       1.0  0.6819500000000002  0.14387  0.27576  1.0000
  S   S12       1.0  0.41843000000000014  0.23484  0.33129  1.0000
  O   O1        1.0  0.70997  0.49665  0.07361000000000001  1.0000
  O   O2        1.0  0.88502  0.50528  0.06273  1.0000
  O   O3        1.0  0.98101  0.76421  0.29529  1.0000
  O   O4        1.0  0.06487000000000001  0.77931  0.4757100000000001  1.0000
  O   O5        1.0  0.73464  0.70886  0.08885000000000003  1.0000
  O   O6        1.0  0.5349300000000002  0.62287  0.9772300000000003  1.0000
  O   O7        1.0  0.70745  0.68039  0.29124000000000005  1.0000
  O   O8        1.0  0.51238  0.59645  0.15788  1.0000
  O   O9        1.0  0.29001  0.50334  0.92637  1.0000
  O   O10       1.0  0.11501000000000007  0.4947  0.93736  1.0000
  O   O11       1.0  0.018990000000000076  0.2357800000000001  0.7047200000000001  1.0000
  O   O12       1.0  0.93513  0.22065  0.52434  1.0000
  O   O13       1.0  0.26535000000000014  0.29113000000000006  0.9111500000000001  1.0000
  O   O14       1.0  0.4650599999999999  0.37712  0.022770000000000002  1.0000
  O   O15       1.0  0.2925400000000001  0.3196  0.70876  1.0000
  O   O16       1.0  0.4876200000000001  0.40354  0.84212  1.0000
