data_image0
_chemical_formula_structural       Zn8H16C36O28
_chemical_formula_sum              "Zn8 H16 C36 O28"
_cell_length_a       9.17883
_cell_length_b       14.21986
_cell_length_c       15.2028
_cell_angle_alpha    90.00291999999999
_cell_angle_beta     89.98258
_cell_angle_gamma    108.27664

_symmetry_space_group_name_H-M    'P 1'
_symmetry_Int_Tables_number       1

loop_
  _symmetry_equiv_pos_as_xyz
  'x,y,z'

loop_
  _atom_site_type_symbol
  _atom_site_label
  _atom_site_symmetry_multiplicity
  _atom_site_fract_x
  _atom_site_fract_y
  _atom_site_fract_z
  _atom_site_occupancy
  Zn  Zn1       1.0  0.27864  0.34874  0.34557  1.0000
  Zn  Zn2       1.0  0.17454  0.14107  0.23397  1.0000
  Zn  Zn3       1.0  0.21872  0.15040000000000006  0.8455700000000003  1.0000
  Zn  Zn4       1.0  0.32327  0.35879  0.7339800000000002  1.0000
  Zn  Zn5       1.0  0.72135  0.65125  0.65443  1.0000
  Zn  Zn6       1.0  0.8254500000000001  0.8589300000000001  0.76603  1.0000
  Zn  Zn7       1.0  0.78127  0.84959  0.15443000000000004  1.0000
  Zn  Zn8       1.0  0.67673  0.64121  0.26602  1.0000
  H   H1        1.0  0.86434  0.4097900000000001  0.2961100000000001  1.0000
  H   H2        1.0  0.71838  0.09268000000000001  0.2808900000000001  1.0000
  H   H3        1.0  0.44545000000000007  0.08906000000000003  0.2844  1.0000
  H   H4        1.0  0.26326  0.42393  0.5508100000000002  1.0000
  H   H5        1.0  0.63321  0.08969  0.79609  1.0000
  H   H6        1.0  0.78029  0.40722  0.7808900000000002  1.0000
  H   H7        1.0  0.05272000000000001  0.41003000000000006  0.78427  1.0000
  H   H8        1.0  0.23629  0.07592000000000003  0.051240000000000015  1.0000
  H   H9        1.0  0.13565  0.59021  0.70389  1.0000
  H   H10       1.0  0.2816100000000002  0.9073200000000002  0.71911  1.0000
  H   H11       1.0  0.55454  0.9109400000000001  0.7156000000000002  1.0000
  H   H12       1.0  0.73674  0.57607  0.44919  1.0000
  H   H13       1.0  0.36678000000000016  0.9103100000000002  0.20390000000000005  1.0000
  H   H14       1.0  0.21971000000000002  0.59278  0.21911000000000005  1.0000
  H   H15       1.0  0.94727  0.58997  0.21573  1.0000
  H   H16       1.0  0.7637099999999999  0.92408  0.9487600000000003  1.0000
  C   C1        1.0  0.49898999999999993  0.24752  0.29192000000000007  1.0000
  C   C2        1.0  0.61945  0.34013  0.2934100000000001  1.0000
  C   C3        1.0  0.7723000000000002  0.33972000000000013  0.2935300000000001  1.0000
  C   C4        1.0  0.80927  0.25191  0.2899200000000001  1.0000
  C   C5        1.0  0.68937  0.16113000000000002  0.28484  1.0000
  C   C6        1.0  0.53812  0.15906  0.28661  1.0000
  C   C7        1.0  0.5936700000000001  0.43775000000000003  0.29142  1.0000
  C   C8        1.0  0.9709600000000002  0.25317  0.2905500000000001  1.0000
  C   C9        1.0  0.28046  0.3507  0.54458  1.0000
  C   C10       1.0  0.99857  0.25173  0.79194  1.0000
  C   C11       1.0  0.87823  0.15913  0.7935000000000002  1.0000
  C   C12       1.0  0.7254  0.15973  0.7934900000000001  1.0000
  C   C13       1.0  0.68852  0.24761  0.78993  1.0000
  C   C14       1.0  0.8084899999999999  0.33847  0.78481  1.0000
  C   C15       1.0  0.9596799999999999  0.34024  0.78649  1.0000
  C   C16       1.0  0.9038999999999999  0.0615  0.79156  1.0000
  C   C17       1.0  0.52654  0.24612000000000006  0.7904700000000002  1.0000
  C   C18       1.0  0.21965  0.1493  0.04468  1.0000
  C   C19       1.0  0.5010100000000001  0.7524800000000003  0.70808  1.0000
  C   C20       1.0  0.38054  0.65987  0.70658  1.0000
  C   C21       1.0  0.2276900000000001  0.6602800000000001  0.7064700000000003  1.0000
  C   C22       1.0  0.19073000000000012  0.7480900000000001  0.71008  1.0000
  C   C23       1.0  0.31063  0.8388600000000002  0.71516  1.0000
  C   C24       1.0  0.46188000000000007  0.84094  0.71339  1.0000
  C   C25       1.0  0.40632  0.56224  0.70858  1.0000
  C   C26       1.0  0.02903000000000001  0.74683  0.7094500000000002  1.0000
  C   C27       1.0  0.7195300000000001  0.6493000000000002  0.4554100000000001  1.0000
  C   C28       1.0  0.0014300000000001237  0.7482700000000002  0.20806  1.0000
  C   C29       1.0  0.12176  0.84086  0.2065  1.0000
  C   C30       1.0  0.27459000000000006  0.8402700000000001  0.20651000000000005  1.0000
  C   C31       1.0  0.31147  0.75238  0.21007000000000006  1.0000
  C   C32       1.0  0.19151  0.66153  0.21519  1.0000
  C   C33       1.0  0.04031000000000012  0.6597600000000002  0.21351000000000006  1.0000
  C   C34       1.0  0.0961  0.9385  0.20844000000000004  1.0000
  C   C35       1.0  0.4734500000000001  0.7538800000000001  0.20953000000000002  1.0000
  C   C36       1.0  0.7803500000000001  0.8507000000000001  0.9553200000000002  1.0000
  O   O1        1.0  0.35051  0.24174000000000007  0.29406000000000004  1.0000
  O   O2        1.0  0.46726  0.45285  0.31236  1.0000
  O   O3        1.0  0.7087100000000002  0.51175  0.2670700000000001  1.0000
  O   O4        1.0  0.07597  0.33756  0.30014000000000013  1.0000
  O   O5        1.0  0.9946400000000001  0.16947000000000004  0.2817300000000001  1.0000
  O   O6        1.0  0.28064000000000006  0.3134300000000001  0.4688100000000001  1.0000
  O   O7        1.0  0.2988  0.30522  0.61341  1.0000
  O   O8        1.0  0.14712  0.25761  0.7941900000000002  1.0000
  O   O9        1.0  0.0302  0.04609  0.8127200000000002  1.0000
  O   O10       1.0  0.7893400000000002  0.9875100000000001  0.76704  1.0000
  O   O11       1.0  0.42156000000000005  0.16175000000000006  0.7999300000000003  1.0000
  O   O12       1.0  0.5024  0.32959  0.78166  1.0000
  O   O13       1.0  0.22239  0.18693  0.96874  1.0000
  O   O14       1.0  0.19950000000000007  0.19462000000000004  0.11312000000000003  1.0000
  O   O15       1.0  0.64948  0.75826  0.70594  1.0000
  O   O16       1.0  0.53274  0.5471500000000001  0.68764  1.0000
  O   O17       1.0  0.29129000000000005  0.48825000000000013  0.73293  1.0000
  O   O18       1.0  0.92403  0.6624400000000003  0.6998600000000003  1.0000
  O   O19       1.0  0.0053599999999999854  0.83052  0.71827  1.0000
  O   O20       1.0  0.71935  0.68656  0.53119  1.0000
  O   O21       1.0  0.70119  0.69478  0.38659  1.0000
  O   O22       1.0  0.85288  0.74239  0.20581000000000005  1.0000
  O   O23       1.0  0.9698  0.9539100000000001  0.18728  1.0000
  O   O24       1.0  0.21065  0.012480000000000002  0.23296  1.0000
  O   O25       1.0  0.57843  0.83824  0.20007  1.0000
  O   O26       1.0  0.49759  0.67041  0.21834000000000006  1.0000
  O   O27       1.0  0.7776000000000001  0.8130700000000002  0.03125  1.0000
  O   O28       1.0  0.8005  0.80538  0.88688  1.0000
