data_image0
_chemical_formula_structural       Co2H20C24N4O6F2
_chemical_formula_sum              "Co2 H20 C24 N4 O6 F2"
_cell_length_a       7.452
_cell_length_b       9.57765
_cell_length_c       11.35942
_cell_angle_alpha    97.94676999999999
_cell_angle_beta     89.98751
_cell_angle_gamma    112.92851999999999

_symmetry_space_group_name_H-M    'P 1'
_symmetry_Int_Tables_number       1

loop_
  _symmetry_equiv_pos_as_xyz
  'x,y,z'

loop_
  _atom_site_type_symbol
  _atom_site_label
  _atom_site_symmetry_multiplicity
  _atom_site_fract_x
  _atom_site_fract_y
  _atom_site_fract_z
  _atom_site_occupancy
  Co  Co1       1.0  0.59242  0.49628000000000005  0.50255  1.0000
  Co  Co2       1.0  0.09616  0.50365  0.49722  1.0000
  H   H1        1.0  0.8805000000000002  0.07001  0.39658  1.0000
  H   H2        1.0  0.38313  0.27074  0.27544  1.0000
  H   H3        1.0  0.37639999999999996  0.26344999999999996  0.05482  1.0000
  H   H4        1.0  0.8037700000000002  0.73002  0.1141  1.0000
  H   H5        1.0  0.7871300000000002  0.71933  0.33034  1.0000
  H   H6        1.0  0.55488  0.69971  0.71834  1.0000
  H   H7        1.0  0.5607800000000002  0.71236  0.9408199999999999  1.0000
  H   H8        1.0  0.6266000000000003  0.28035  0.89  1.0000
  H   H9        1.0  0.63467  0.29384  0.67087  1.0000
  H   H10       1.0  0.2000600000000001  0.9891200000000001  0.38865  1.0000
  H   H11       1.0  0.8114400000000002  0.9291400000000001  0.60442  1.0000
  H   H12       1.0  0.11212000000000005  0.72896  0.72453  1.0000
  H   H13       1.0  0.11277999999999996  0.73616  0.94509  1.0000
  H   H14       1.0  0.07341  0.26987  0.8857299999999999  1.0000
  H   H15       1.0  0.0674  0.28046  0.66954  1.0000
  H   H16       1.0  0.8549800000000002  0.29956  0.28159  1.0000
  H   H17       1.0  0.8478000000000001  0.28724  0.05917  1.0000
  H   H18       1.0  0.3464800000000002  0.7191800000000002  0.10993  1.0000
  H   H19       1.0  0.34113000000000016  0.7055300000000001  0.32900999999999997  1.0000
  H   H20       1.0  0.212  0.010519999999999996  0.61053  1.0000
  C   C1        1.0  0.47442  0.3695  0.23548  1.0000
  C   C2        1.0  0.47297000000000006  0.36592  0.11262999999999998  1.0000
  C   C3        1.0  0.59218  0.49599  0.06451  1.0000
  C   C4        1.0  0.70748  0.62496  0.14494  1.0000
  C   C5        1.0  0.7016900000000001  0.6190700000000001  0.26675  1.0000
  C   C6        1.0  0.5750300000000003  0.61197  0.7616299999999998  1.0000
  C   C7        1.0  0.5775000000000002  0.6171100000000003  0.88461  1.0000
  C   C8        1.0  0.59391  0.49650999999999995  0.9346199999999999  1.0000
  C   C9        1.0  0.6110600000000003  0.3762  0.85632  1.0000
  C   C10       1.0  0.61511  0.38207  0.73457  1.0000
  C   C11       1.0  0.19929000000000005  0.20919  0.46397  1.0000
  C   C12       1.0  0.10261000000000003  0.03261  0.43989  1.0000
  C   C13       1.0  0.10467000000000001  0.63018  0.76439  1.0000
  C   C14       1.0  0.10682  0.63375  0.88726  1.0000
  C   C15       1.0  0.09586000000000001  0.50373  0.93541  1.0000
  C   C16       1.0  0.08218000000000006  0.37487000000000004  0.85491  1.0000
  C   C17       1.0  0.08227000000000002  0.38073000000000007  0.7330999999999999  1.0000
  C   C18       1.0  0.9629900000000001  0.38735  0.23827999999999996  1.0000
  C   C19       1.0  0.9600500000000002  0.38240000000000013  0.11531  1.0000
  C   C20       1.0  0.09721000000000006  0.50308  0.06530999999999999  1.0000
  C   C21       1.0  0.23494999999999996  0.62327  0.14358  1.0000
  C   C22       1.0  0.23331000000000005  0.61728  0.26531  1.0000
  C   C23       1.0  0.9901400000000002  0.79078  0.53502  1.0000
  C   C24       1.0  0.07061000000000006  0.9673600000000001  0.55971  1.0000
  N   N1        1.0  0.59616  0.49757  0.68745  1.0000
  N   N2        1.0  0.58782  0.49318  0.31248  1.0000
  N   N3        1.0  0.09878000000000006  0.50166  0.31238  1.0000
  N   N4        1.0  0.09431000000000009  0.5065700000000001  0.68733  1.0000
  O   O1        1.0  0.38294  0.2687300000000001  0.48394  1.0000
  O   O2        1.0  0.08089000000000003  0.27512  0.4610499999999999  1.0000
  O   O3        1.0  0.9219300000000002  0.9850200000000001  0.37222  1.0000
  O   O4        1.0  0.11329999999999994  0.73083  0.51276  1.0000
  O   O5        1.0  0.8059200000000002  0.72524  0.53946  1.0000
  O   O6        1.0  0.93787  0.014680000000000025  0.62798  1.0000
  F   F1        1.0  0.80049  0.40918  0.48827999999999994  1.0000
  F   F2        1.0  0.3917000000000001  0.59066  0.51164  1.0000
