data_image0
_chemical_formula_structural       Zn3H22C38N4O12
_chemical_formula_sum              "Zn3 H22 C38 N4 O12"
_cell_length_a       9.11682
_cell_length_b       9.77687
_cell_length_c       11.37911
_cell_angle_alpha    105.30700000000002
_cell_angle_beta     98.99589
_cell_angle_gamma    83.28193

_space_group_name_H-M_alt    "P 1"
_space_group_IT_number       1

loop_
  _space_group_symop_operation_xyz
  'x, y, z'

loop_
  _atom_site_type_symbol
  _atom_site_label
  _atom_site_symmetry_multiplicity
  _atom_site_fract_x
  _atom_site_fract_y
  _atom_site_fract_z
  _atom_site_occupancy
  Zn  Zn1       1.0  0.21984  0.05289  0.48457000000000006  1.0000
  Zn  Zn2       1.0  0.78016  0.9471200000000001  0.51543  1.0000
  Zn  Zn3       1.0  0.4999900000000001  0.5  0.5  1.0000
  H   H1        1.0  0.4086  0.08212  0.16079  1.0000
  H   H2        1.0  0.59589  0.05098  0.01374  1.0000
  H   H3        1.0  0.8603399999999999  0.09672  0.09438  1.0000
  H   H4        1.0  0.03978999999999996  0.19072  0.69341  1.0000
  H   H5        1.0  0.08954999999999999  0.31121  0.91525  1.0000
  H   H6        1.0  0.55902  0.2602500000000001  0.8759000000000002  1.0000
  H   H7        1.0  0.4909399999999999  0.14896  0.65756  1.0000
  H   H8        1.0  0.16059000000000004  0.31593  0.10601000000000001  1.0000
  H   H9        1.0  0.23683999999999997  0.40535  0.32509  1.0000
  H   H10       1.0  0.654  0.48857  0.27055  1.0000
  H   H11       1.0  0.59333  0.40619  0.04515  1.0000
  H   H12       1.0  0.59139  0.91786  0.83921  1.0000
  H   H13       1.0  0.40412  0.9490000000000001  0.98627  1.0000
  H   H14       1.0  0.13966  0.9032900000000001  0.90563  1.0000
  H   H15       1.0  0.9602  0.80928  0.3066  1.0000
  H   H16       1.0  0.9104399999999999  0.6887900000000001  0.08475  1.0000
  H   H17       1.0  0.4409799999999999  0.73975  0.1241  1.0000
  H   H18       1.0  0.50905  0.85104  0.34243  1.0000
  H   H19       1.0  0.8393999999999999  0.68407  0.8939900000000001  1.0000
  H   H20       1.0  0.76315  0.59465  0.67491  1.0000
  H   H21       1.0  0.346  0.51143  0.72944  1.0000
  H   H22       1.0  0.4066600000000001  0.59381  0.95485  1.0000
  C   C1        1.0  0.8216799999999997  0.15909  0.28266  1.0000
  C   C2        1.0  0.71443  0.18473  0.36424  1.0000
  C   C3        1.0  0.56524  0.15832  0.31929  1.0000
  C   C4        1.0  0.52395  0.10524999999999998  0.19313  1.0000
  C   C5        1.0  0.62862  0.08698  0.11202  1.0000
  C   C6        1.0  0.77661  0.11392  0.1564  1.0000
  C   C7        1.0  0.98615  0.16227  0.32709  1.0000
  C   C8        1.0  0.75038  0.24549000000000004  0.49996000000000007  1.0000
  C   C9        1.0  0.45191999999999993  0.17817  0.40632  1.0000
  C   C10       1.0  0.15318999999999997  0.20907  0.73806  1.0000
  C   C11       1.0  0.18267  0.27612  0.8624300000000001  1.0000
  C   C12       1.0  0.33049  0.29573000000000005  0.9181500000000001  1.0000
  C   C13       1.0  0.4418099999999999  0.25021  0.84096  1.0000
  C   C14       1.0  0.40472999999999987  0.18627  0.71707  1.0000
  C   C15       1.0  0.36858  0.35624  0.05185  1.0000
  C   C16       1.0  0.26907  0.35855  0.13503  1.0000
  C   C17       1.0  0.31178999999999996  0.40752  0.26049  1.0000
  C   C18       1.0  0.54462  0.4527  0.2296  1.0000
  C   C19       1.0  0.50934  0.40527  0.10281  1.0000
  C   C20       1.0  0.17831  0.84092  0.71734  1.0000
  C   C21       1.0  0.28557000000000005  0.81529  0.63576  1.0000
  C   C22       1.0  0.43474999999999997  0.8416800000000001  0.68071  1.0000
  C   C23       1.0  0.4760499999999999  0.89475  0.8068700000000001  1.0000
  C   C24       1.0  0.37138  0.9130200000000002  0.88798  1.0000
  C   C25       1.0  0.22337999999999997  0.88609  0.8436  1.0000
  C   C26       1.0  0.013829999999999993  0.83772  0.67292  1.0000
  C   C27       1.0  0.24961999999999998  0.75452  0.50004  1.0000
  C   C28       1.0  0.54808  0.8218400000000001  0.59368  1.0000
  C   C29       1.0  0.84679  0.79093  0.26194  1.0000
  C   C30       1.0  0.81732  0.72388  0.13757  1.0000
  C   C31       1.0  0.6694999999999998  0.7042700000000001  0.08185  1.0000
  C   C32       1.0  0.5581800000000001  0.74979  0.15903  1.0000
  C   C33       1.0  0.5952599999999999  0.81373  0.28292  1.0000
  C   C34       1.0  0.63142  0.64375  0.9481500000000002  1.0000
  C   C35       1.0  0.7309199999999997  0.64145  0.86497  1.0000
  C   C36       1.0  0.68821  0.59248  0.73951  1.0000
  C   C37       1.0  0.45536999999999994  0.5473000000000001  0.7704000000000002  1.0000
  C   C38       1.0  0.49066  0.59472  0.8971800000000001  1.0000
  N   N1        1.0  0.26306  0.16271  0.6661  1.0000
  N   N2        1.0  0.44780000000000003  0.45417  0.30795  1.0000
  N   N3        1.0  0.7369199999999998  0.8372899999999999  0.3339  1.0000
  N   N4        1.0  0.5522  0.54583  0.6920500000000002  1.0000
  O   O1        1.0  0.020540000000000017  0.12013000000000001  0.42861000000000005  1.0000
  O   O2        1.0  0.07365  0.19371  0.26673  1.0000
  O   O3        1.0  0.7481699999999999  0.3789  0.53498  1.0000
  O   O4        1.0  0.77024  0.16068  0.57167  1.0000
  O   O5        1.0  0.42986  0.29407  0.48658  1.0000
  O   O6        1.0  0.38366000000000006  0.06677  0.39317  1.0000
  O   O7        1.0  0.97945  0.8798400000000001  0.57136  1.0000
  O   O8        1.0  0.92635  0.8063099999999999  0.73326  1.0000
  O   O9        1.0  0.25182  0.6211  0.46503  1.0000
  O   O10       1.0  0.22975999999999996  0.83932  0.42833000000000004  1.0000
  O   O11       1.0  0.5701299999999999  0.70593  0.51342  1.0000
  O   O12       1.0  0.6163299999999999  0.9332300000000001  0.60683  1.0000
