data_image0
_chemical_formula_structural       Cd2H32C56O8
_chemical_formula_sum              "Cd2 H32 C56 O8"
_cell_length_a       7.94572
_cell_length_b       9.63892
_cell_length_c       17.20937
_cell_angle_alpha    106.8069
_cell_angle_beta     94.67644
_cell_angle_gamma    88.66228999999998

_space_group_name_H-M_alt    "P 1"
_space_group_IT_number       1

loop_
  _space_group_symop_operation_xyz
  'x, y, z'

loop_
  _atom_site_type_symbol
  _atom_site_label
  _atom_site_symmetry_multiplicity
  _atom_site_fract_x
  _atom_site_fract_y
  _atom_site_fract_z
  _atom_site_occupancy
  Cd  Cd1       1.0  0.75076  0.57551  0.0017000000000000003  1.0000
  Cd  Cd2       1.0  0.24923000000000006  0.4244899999999999  0.9983000000000001  1.0000
  H   H1        1.0  0.2908999999999999  0.30167  0.78438  1.0000
  H   H2        1.0  0.12468999999999998  0.28608  0.65322  1.0000
  H   H3        1.0  0.26974  0.7222699999999997  0.67191  1.0000
  H   H4        1.0  0.4376299999999999  0.73663  0.8035  1.0000
  H   H5        1.0  0.4000599999999998  0.38108000000000003  0.55711  1.0000
  H   H6        1.0  0.53123  0.27948  0.42823  1.0000
  H   H7        1.0  0.3684399999999999  0.26806  0.29558  1.0000
  H   H8        1.0  0.9186399999999999  0.63017  0.7064000000000002  1.0000
  H   H9        1.0  0.20674999999999993  0.5187599999999999  0.21618  1.0000
  H   H10       1.0  0.37587999999999994  0.63119  0.3465000000000001  1.0000
  H   H11       1.0  0.23365999999999995  0.05445000000000001  0.3274  1.0000
  H   H12       1.0  0.06162000000000001  0.94009  0.19723000000000004  1.0000
  H   H13       1.0  0.10672  0.8247899999999999  0.44225  1.0000
  H   H14       1.0  0.9792499999999997  0.8508999999999999  0.5711  1.0000
  H   H15       1.0  0.13996999999999996  0.9726499999999998  0.70397  1.0000
  H   H16       1.0  0.5786199999999998  0.9240199999999998  0.29372000000000004  1.0000
  H   H17       1.0  0.7090999999999997  0.69834  0.21562  1.0000
  H   H18       1.0  0.87531  0.7139300000000001  0.34679  1.0000
  H   H19       1.0  0.73026  0.2777399999999999  0.32809  1.0000
  H   H20       1.0  0.56237  0.26336999999999994  0.1965  1.0000
  H   H21       1.0  0.5999400000000001  0.61892  0.4429  1.0000
  H   H22       1.0  0.46877  0.7205200000000002  0.5717700000000002  1.0000
  H   H23       1.0  0.63156  0.7319399999999998  0.70443  1.0000
  H   H24       1.0  0.08137000000000001  0.36983999999999995  0.2936100000000001  1.0000
  H   H25       1.0  0.79326  0.48124999999999996  0.78382  1.0000
  H   H26       1.0  0.62412  0.36882  0.65351  1.0000
  H   H27       1.0  0.7663399999999998  0.9455599999999997  0.67261  1.0000
  H   H28       1.0  0.93838  0.05990999999999997  0.80277  1.0000
  H   H29       1.0  0.8932799999999999  0.17520999999999992  0.55775  1.0000
  H   H30       1.0  0.020760000000000004  0.14909999999999995  0.4289  1.0000
  H   H31       1.0  0.8600299999999997  0.027350000000000006  0.29604  1.0000
  H   H32       1.0  0.42137999999999987  0.07599000000000003  0.70628  1.0000
  C   C1        1.0  0.48699  0.5252700000000001  0.8761500000000002  1.0000
  C   C2        1.0  0.37428  0.5202800000000001  0.8019100000000002  1.0000
  C   C3        1.0  0.2842699999999999  0.3938599999999999  0.75984  1.0000
  C   C4        1.0  0.19108999999999995  0.3856499999999999  0.68631  1.0000
  C   C5        1.0  0.18511  0.50388  0.65406  1.0000
  C   C6        1.0  0.2734099999999999  0.6309799999999999  0.69715  1.0000
  C   C7        1.0  0.3670199999999999  0.6393499999999998  0.77025  1.0000
  C   C8        1.0  0.08906  0.49862999999999996  0.57519  1.0000
  C   C9        1.0  0.9269399999999998  0.5614399999999999  0.57505  1.0000
  C   C10       1.0  0.16377999999999995  0.4378899999999999  0.50129  1.0000
  C   C11       1.0  0.33031999999999984  0.37878000000000006  0.4997400000000001  1.0000
  C   C12       1.0  0.4030199999999999  0.32129  0.42758  1.0000
  C   C13       1.0  0.3110799999999999  0.31598  0.35246  1.0000
  C   C14       1.0  0.8491000000000001  0.62692  0.6488  1.0000
  C   C15       1.0  0.009820000000000014  0.6557399999999999  0.12546000000000004  1.0000
  C   C16       1.0  0.12402999999999999  0.72253  0.19895  1.0000
  C   C17       1.0  0.21438999999999994  0.63593  0.24074  1.0000
  C   C18       1.0  0.3092099999999999  0.6996899999999998  0.31379  1.0000
  C   C19       1.0  0.31660000000000005  0.8510499999999999  0.3456700000000001  1.0000
  C   C20       1.0  0.22849999999999993  0.9372  0.30253000000000013  1.0000
  C   C21       1.0  0.13271  0.8740299999999999  0.2301  1.0000
  C   C22       1.0  0.4123599999999999  0.9236899999999999  0.42456  1.0000
  C   C23       1.0  0.5712299999999998  0.9864999999999999  0.42505  1.0000
  C   C24       1.0  0.3394199999999999  0.93673  0.49840000000000007  1.0000
  C   C25       1.0  0.17590999999999996  0.8792799999999998  0.49972  1.0000
  C   C26       1.0  0.10514999999999998  0.89342  0.57186  1.0000
  C   C27       1.0  0.19589999999999996  0.96329  0.64711  1.0000
  C   C28       1.0  0.6470999999999999  0.9783199999999997  0.35146000000000005  1.0000
  C   C29       1.0  0.5130099999999997  0.47474  0.12385000000000002  1.0000
  C   C30       1.0  0.6257199999999998  0.47972  0.19809  1.0000
  C   C31       1.0  0.7157299999999998  0.6061499999999999  0.24017000000000005  1.0000
  C   C32       1.0  0.80891  0.61436  0.31369  1.0000
  C   C33       1.0  0.8148899999999998  0.4961299999999999  0.34595  1.0000
  C   C34       1.0  0.72659  0.3690199999999999  0.30285  1.0000
  C   C35       1.0  0.6329799999999998  0.36065  0.22975000000000007  1.0000
  C   C36       1.0  0.9109399999999997  0.50138  0.4248100000000001  1.0000
  C   C37       1.0  0.07305999999999997  0.43857  0.42495  1.0000
  C   C38       1.0  0.8362199999999997  0.5621100000000001  0.49871000000000004  1.0000
  C   C39       1.0  0.6696899999999998  0.62122  0.5002600000000003  1.0000
  C   C40       1.0  0.59699  0.67872  0.57242  1.0000
  C   C41       1.0  0.6889199999999998  0.68402  0.64755  1.0000
  C   C42       1.0  0.1509  0.37308  0.35121  1.0000
  C   C43       1.0  0.9901899999999998  0.34426  0.87455  1.0000
  C   C44       1.0  0.87598  0.27747  0.80106  1.0000
  C   C45       1.0  0.7856199999999997  0.36407999999999996  0.75927  1.0000
  C   C46       1.0  0.6907899999999998  0.3003100000000001  0.6862200000000002  1.0000
  C   C47       1.0  0.6833999999999998  0.14895000000000005  0.6543400000000003  1.0000
  C   C48       1.0  0.7714999999999997  0.06280000000000006  0.6974700000000003  1.0000
  C   C49       1.0  0.8672899999999998  0.12597  0.7699  1.0000
  C   C50       1.0  0.5876499999999998  0.07632  0.57544  1.0000
  C   C51       1.0  0.4287699999999999  0.01350000000000008  0.5749600000000002  1.0000
  C   C52       1.0  0.66059  0.06327999999999995  0.50161  1.0000
  C   C53       1.0  0.8240999999999998  0.12073000000000003  0.50028  1.0000
  C   C54       1.0  0.89485  0.10657999999999995  0.42815  1.0000
  C   C55       1.0  0.8041  0.03672000000000004  0.3528900000000001  1.0000
  C   C56       1.0  0.35291  0.021679999999999994  0.64855  1.0000
  O   O1        1.0  0.6005699999999998  0.62474  0.89825  1.0000
  O   O2        1.0  0.4745099999999999  0.4301300000000001  0.9142300000000002  1.0000
  O   O3        1.0  0.8928599999999998  0.7358  0.10526  1.0000
  O   O4        1.0  0.024000000000000004  0.5212799999999999  0.08590000000000003  1.0000
  O   O5        1.0  0.3994299999999999  0.37526  0.10175  1.0000
  O   O6        1.0  0.5255  0.5698699999999999  0.08578  1.0000
  O   O7        1.0  0.10714  0.26421  0.89474  1.0000
  O   O8        1.0  0.9759999999999998  0.4787300000000001  0.9141000000000002  1.0000
