data_image0
_chemical_formula_structural       Cu8H12C40O36
_chemical_formula_sum              "Cu8 H12 C40 O36"
_cell_length_a       10.58058
_cell_length_b       11.42693
_cell_length_c       15.920969999999999
_cell_angle_alpha    106.32430999999998
_cell_angle_beta     90.35650000000001
_cell_angle_gamma    94.05518000000001

_space_group_name_H-M_alt    "P 1"
_space_group_IT_number       1

loop_
  _space_group_symop_operation_xyz
  'x, y, z'

loop_
  _atom_site_type_symbol
  _atom_site_label
  _atom_site_symmetry_multiplicity
  _atom_site_fract_x
  _atom_site_fract_y
  _atom_site_fract_z
  _atom_site_occupancy
  Cu  Cu1       1.0  0.14338  0.49183000000000004  0.4992900000000001  1.0000
  Cu  Cu2       1.0  0.8562199999999999  0.4707800000000001  0.9969700000000002  1.0000
  Cu  Cu3       1.0  0.9850799999999998  0.35384000000000004  0.31553  1.0000
  Cu  Cu4       1.0  0.006420000000000003  0.64463  0.18368  1.0000
  Cu  Cu5       1.0  0.85661  0.50817  0.50071  1.0000
  Cu  Cu6       1.0  0.14378999999999997  0.52923  0.00302  1.0000
  Cu  Cu7       1.0  0.014910000000000014  0.6461500000000002  0.68447  1.0000
  Cu  Cu8       1.0  0.99357  0.35537  0.81632  1.0000
  H   H1        1.0  0.48929  0.42902  0.38506  1.0000
  H   H2        1.0  0.50093  0.56011  0.11351  1.0000
  H   H3        1.0  0.014110000000000008  0.9989900000000002  0.15508  1.0000
  H   H4        1.0  0.028380000000000002  0.006640000000000019  0.34704000000000007  1.0000
  H   H5        1.0  0.009100000000000007  0.43378000000000005  0.10126  1.0000
  H   H6        1.0  0.006359999999999999  0.56594  0.39749  1.0000
  H   H7        1.0  0.51071  0.57098  0.61494  1.0000
  H   H8        1.0  0.4990699999999999  0.43989000000000006  0.8864900000000002  1.0000
  H   H9        1.0  0.98588  0.0010199999999999955  0.8449  1.0000
  H   H10       1.0  0.9716099999999999  0.9933600000000001  0.6529600000000002  1.0000
  H   H11       1.0  0.99086  0.56625  0.89872  1.0000
  H   H12       1.0  0.99364  0.43406  0.60251  1.0000
  C   C1        1.0  0.38172  0.5173  0.21161  1.0000
  C   C2        1.0  0.37838  0.48086000000000007  0.28901  1.0000
  C   C3        1.0  0.49145  0.4580100000000001  0.32551  1.0000
  C   C4        1.0  0.6075799999999999  0.46973  0.286  1.0000
  C   C5        1.0  0.61129  0.50803  0.20948  1.0000
  C   C6        1.0  0.4982899999999999  0.53038  0.17273000000000005  1.0000
  C   C7        1.0  0.26529  0.54412  0.16775  1.0000
  C   C8        1.0  0.25811  0.46140000000000003  0.33462  1.0000
  C   C9        1.0  0.72563  0.44404  0.32895  1.0000
  C   C10       1.0  0.7338099999999999  0.52916  0.16600000000000004  1.0000
  C   C11       1.0  0.99419  0.11004000000000003  0.06781  1.0000
  C   C12       1.0  0.98501  0.11089999999999994  0.9792  1.0000
  C   C13       1.0  0.007850000000000006  0.9994900000000001  0.08695000000000003  1.0000
  C   C14       1.0  0.9973199999999999  0.22523000000000004  0.14217  1.0000
  C   C15       1.0  0.9616699999999999  0.22067999999999993  0.94849  1.0000
  C   C16       1.0  0.012499999999999999  0.11360000000000002  0.48100000000000004  1.0000
  C   C17       1.0  0.00521  0.89017  0.43174  1.0000
  C   C18       1.0  0.0162  0.0033799999999999985  0.41417  1.0000
  C   C19       1.0  0.0325  0.22808000000000006  0.45263  1.0000
  C   C20       1.0  0.01818  0.77592  0.3583900000000001  1.0000
  C   C21       1.0  0.61828  0.4827  0.78839  1.0000
  C   C22       1.0  0.6216099999999999  0.51914  0.71099  1.0000
  C   C23       1.0  0.50855  0.54199  0.67449  1.0000
  C   C24       1.0  0.39242  0.53027  0.714  1.0000
  C   C25       1.0  0.38871  0.49197  0.7905200000000002  1.0000
  C   C26       1.0  0.50171  0.46962000000000004  0.8272700000000002  1.0000
  C   C27       1.0  0.7347099999999999  0.45588  0.83225  1.0000
  C   C28       1.0  0.74188  0.53859  0.66537  1.0000
  C   C29       1.0  0.27436  0.55595  0.6710500000000003  1.0000
  C   C30       1.0  0.2662  0.47083  0.8340000000000002  1.0000
  C   C31       1.0  0.005780000000000014  0.8899700000000003  0.93218  1.0000
  C   C32       1.0  0.014970000000000013  0.8891100000000001  0.02079  1.0000
  C   C33       1.0  0.9921399999999999  0.0005200000000001047  0.9130300000000002  1.0000
  C   C34       1.0  0.0025600000000000076  0.7747500000000002  0.8578300000000002  1.0000
  C   C35       1.0  0.03831999999999999  0.77931  0.05146  1.0000
  C   C36       1.0  0.9874999999999999  0.8864000000000001  0.519  1.0000
  C   C37       1.0  0.99479  0.10983  0.56826  1.0000
  C   C38       1.0  0.9837899999999998  0.99662  0.58583  1.0000
  C   C39       1.0  0.9675  0.77192  0.54737  1.0000
  C   C40       1.0  0.9818199999999998  0.22408000000000008  0.6416100000000002  1.0000
  O   O1        1.0  0.26834  0.50754  0.08408000000000003  1.0000
  O   O2        1.0  0.1805  0.60038  0.21559  1.0000
  O   O3        1.0  0.2629  0.51919  0.4163000000000001  1.0000
  O   O4        1.0  0.16991  0.38885  0.29089  1.0000
  O   O5        1.0  0.8126799999999998  0.39513  0.27964  1.0000
  O   O6        1.0  0.7220599999999999  0.4750100000000001  0.4123600000000001  1.0000
  O   O7        1.0  0.72994  0.47393  0.08398  1.0000
  O   O8        1.0  0.82128  0.59861  0.21266  1.0000
  O   O9        1.0  0.9743599999999999  0.20941000000000004  0.21827000000000005  1.0000
  O   O10       1.0  0.02591  0.32712  0.12997  1.0000
  O   O11       1.0  0.86207  0.27458  0.97162  1.0000
  O   O12       1.0  0.043639999999999984  0.2453899999999999  0.8959  1.0000
  O   O13       1.0  0.13177  0.29740000000000005  0.47965000000000013  1.0000
  O   O14       1.0  0.94889  0.23999  0.39805  1.0000
  O   O15       1.0  0.006499999999999996  0.78873  0.28033  1.0000
  O   O16       1.0  0.042800000000000005  0.6786700000000001  0.37429  1.0000
  O   O17       1.0  0.99979  0.5114800000000002  0.08039000000000003  1.0000
  O   O18       1.0  0.9936699999999999  0.48731  0.4181  1.0000
  O   O19       1.0  0.73165  0.4924600000000001  0.9159100000000002  1.0000
  O   O20       1.0  0.81949  0.39962  0.7844  1.0000
  O   O21       1.0  0.7370899999999999  0.48079  0.5837000000000002  1.0000
  O   O22       1.0  0.83008  0.6111600000000003  0.7090900000000002  1.0000
  O   O23       1.0  0.18731  0.60487  0.72037  1.0000
  O   O24       1.0  0.27793  0.52498  0.5876400000000003  1.0000
  O   O25       1.0  0.27007  0.52607  0.9160200000000002  1.0000
  O   O26       1.0  0.17872  0.40139000000000025  0.7873400000000003  1.0000
  O   O27       1.0  0.025650000000000017  0.7905500000000001  0.7817300000000003  1.0000
  O   O28       1.0  0.9737899999999999  0.6729000000000002  0.87003  1.0000
  O   O29       1.0  0.13789  0.72539  0.028250000000000008  1.0000
  O   O30       1.0  0.9564  0.75461  0.10409  1.0000
  O   O31       1.0  0.86823  0.7026000000000002  0.52035  1.0000
  O   O32       1.0  0.051099999999999986  0.76001  0.60195  1.0000
  O   O33       1.0  0.9935000000000002  0.2112700000000001  0.7196700000000003  1.0000
  O   O34       1.0  0.9571999999999999  0.32133  0.62571  1.0000
  O   O35       1.0  0.00020999999999999724  0.48855  0.9196  1.0000
  O   O36       1.0  0.006320000000000001  0.51269  0.5819  1.0000
