data_image0
_chemical_formula_structural       Cu8H16C32N16O16
_chemical_formula_sum              "Cu8 H16 C32 N16 O16"
_cell_length_a       14.14272
_cell_length_b       14.35847
_cell_length_c       14.416399999999998
_cell_angle_alpha    86.28255000000001
_cell_angle_beta     123.68971000000002
_cell_angle_gamma    120.78141999999998

_symmetry_space_group_name_H-M    'P 1'
_symmetry_Int_Tables_number       1

loop_
  _symmetry_equiv_pos_as_xyz
  'x,y,z'

loop_
  _atom_site_type_symbol
  _atom_site_label
  _atom_site_symmetry_multiplicity
  _atom_site_fract_x
  _atom_site_fract_y
  _atom_site_fract_z
  _atom_site_occupancy
  Cu  Cu1       1.0  0.9924300000000004  0.45096000000000014  0.87319  1.0000
  Cu  Cu2       1.0  0.42475  0.87363  0.38231  1.0000
  Cu  Cu3       1.0  0.08174000000000013  0.4625700000000001  0.4505700000000001  1.0000
  Cu  Cu4       1.0  0.50127  0.37657  0.4567000000000001  1.0000
  Cu  Cu5       1.0  0.49873  0.62343  0.5433  1.0000
  Cu  Cu6       1.0  0.9182700000000003  0.53744  0.54943  1.0000
  Cu  Cu7       1.0  0.57526  0.12637000000000007  0.6177000000000001  1.0000
  Cu  Cu8       1.0  0.007570000000000003  0.54904  0.12682  1.0000
  H   H1        1.0  0.41998000000000013  0.41087  0.20751  1.0000
  H   H2        1.0  0.80129  0.21785000000000002  0.27789  1.0000
  H   H3        1.0  0.07503000000000021  0.2820400000000001  0.9879300000000002  1.0000
  H   H4        1.0  0.19872000000000023  0.7821500000000002  0.7221200000000001  1.0000
  H   H5        1.0  0.5877300000000003  0.4028200000000002  0.8455600000000001  1.0000
  H   H6        1.0  0.05121000000000004  0.81642  0.3956400000000001  1.0000
  H   H7        1.0  0.9249800000000002  0.71796  0.012070000000000003  1.0000
  H   H8        1.0  0.7110300000000004  0.9856900000000002  0.42188000000000003  1.0000
  H   H9        1.0  0.4418600000000001  0.84258  0.76321  1.0000
  H   H10       1.0  0.5800200000000001  0.5891300000000002  0.7925  1.0000
  H   H11       1.0  0.09326000000000002  0.24307  0.1863  1.0000
  H   H12       1.0  0.4122700000000002  0.5971800000000002  0.15444  1.0000
  H   H13       1.0  0.9067500000000003  0.7569300000000002  0.8137100000000002  1.0000
  H   H14       1.0  0.2889800000000001  0.01431000000000003  0.5781200000000001  1.0000
  H   H15       1.0  0.55815  0.15743  0.23679  1.0000
  H   H16       1.0  0.9488000000000002  0.18358000000000005  0.60437  1.0000
  C   C1        1.0  0.36267  0.64072  0.60101  1.0000
  C   C2        1.0  0.07099999999999995  0.29985  0.13983  1.0000
  C   C3        1.0  0.04073000000000003  0.40204000000000006  0.25897  1.0000
  C   C4        1.0  0.21702999999999992  0.73635  0.68439  1.0000
  C   C5        1.0  0.7033300000000001  0.32827000000000006  0.36947  1.0000
  C   C6        1.0  0.79737  0.16599000000000003  0.6274200000000001  1.0000
  C   C7        1.0  0.7829800000000001  0.26366000000000006  0.31561  1.0000
  C   C8        1.0  0.43361000000000005  0.57193  0.23250000000000004  1.0000
  C   C9        1.0  0.9290000000000004  0.7001600000000002  0.86018  1.0000
  C   C10       1.0  0.7253000000000002  0.038690000000000016  0.48477  1.0000
  C   C11       1.0  0.93714  0.6809100000000001  0.95973  1.0000
  C   C12       1.0  0.045910000000000006  0.37258  0.16735000000000003  1.0000
  C   C13       1.0  0.5663900000000002  0.42807000000000006  0.76751  1.0000
  C   C14       1.0  0.20264000000000007  0.83402  0.37258  1.0000
  C   C15       1.0  0.5375200000000001  0.37375000000000014  0.66906  1.0000
  C   C16       1.0  0.15563000000000007  0.86224  0.42233000000000004  1.0000
  C   C17       1.0  0.6612200000000001  0.23478000000000004  0.29518000000000005  1.0000
  C   C18       1.0  0.8586700000000003  0.25816000000000006  0.7230300000000001  1.0000
  C   C19       1.0  0.14133000000000004  0.7418400000000003  0.27697  1.0000
  C   C20       1.0  0.33878000000000047  0.7652200000000002  0.7048300000000002  1.0000
  C   C21       1.0  0.9592800000000005  0.5979600000000002  0.7410400000000003  1.0000
  C   C22       1.0  0.06286000000000003  0.3191  0.04028000000000001  1.0000
  C   C23       1.0  0.47163000000000027  0.7253500000000002  0.36642000000000013  1.0000
  C   C24       1.0  0.8443800000000002  0.13776000000000002  0.57767  1.0000
  C   C25       1.0  0.56391  0.52262  0.74234  1.0000
  C   C26       1.0  0.43610000000000015  0.47738000000000014  0.25766  1.0000
  C   C27       1.0  0.4624800000000001  0.62625  0.33094  1.0000
  C   C28       1.0  0.63733  0.35928  0.39899  1.0000
  C   C29       1.0  0.9540900000000003  0.6274200000000001  0.8326500000000001  1.0000
  C   C30       1.0  0.5283800000000001  0.2746500000000001  0.6335800000000001  1.0000
  C   C31       1.0  0.29667000000000004  0.67173  0.6305300000000001  1.0000
  C   C32       1.0  0.2747000000000001  0.96132  0.51523  1.0000
  N   N1        1.0  0.5362500000000002  0.5246200000000001  0.63566  1.0000
  N   N2        1.0  0.8421900000000001  0.4071800000000001  0.43029  1.0000
  N   N3        1.0  0.34164000000000017  0.9119800000000002  0.43346000000000007  1.0000
  N   N4        1.0  0.03534000000000003  0.39894  0.01103  1.0000
  N   N5        1.0  0.47987000000000024  0.56629  0.40888  1.0000
  N   N6        1.0  0.10903000000000004  0.6320900000000002  0.60247  1.0000
  N   N7        1.0  0.025100000000000126  0.43148000000000003  0.08870000000000003  1.0000
  N   N8        1.0  0.9646700000000002  0.6010700000000002  0.9889700000000002  1.0000
  N   N9        1.0  0.46375  0.47538  0.36434  1.0000
  N   N10       1.0  0.3858300000000003  0.9897100000000002  0.5205900000000001  1.0000
  N   N11       1.0  0.52013  0.43371  0.59113  1.0000
  N   N12       1.0  0.8909700000000003  0.36792  0.39754  1.0000
  N   N13       1.0  0.9749099999999999  0.56852  0.9113  1.0000
  N   N14       1.0  0.6583600000000002  0.08802000000000003  0.56654  1.0000
  N   N15       1.0  0.6141700000000001  0.010299999999999997  0.47941  1.0000
  N   N16       1.0  0.15782000000000004  0.59283  0.5697100000000002  1.0000
  O   O1        1.0  0.05116000000000002  0.3523  0.33696  1.0000
  O   O2        1.0  0.9739800000000001  0.51579  0.74227  1.0000
  O   O3        1.0  0.53727  0.20627000000000004  0.69313  1.0000
  O   O4        1.0  0.94884  0.6477000000000002  0.66305  1.0000
  O   O5        1.0  0.22716000000000014  0.74185  0.26747  1.0000
  O   O6        1.0  0.026030000000000112  0.4842100000000001  0.2577400000000001  1.0000
  O   O7        1.0  0.51335  0.26061  0.53712  1.0000
  O   O8        1.0  0.011870000000000025  0.6647  0.20707000000000003  1.0000
  O   O9        1.0  0.2800400000000001  0.5478500000000002  0.51575  1.0000
  O   O10       1.0  0.48665000000000014  0.73939  0.46289  1.0000
  O   O11       1.0  0.71997  0.4521500000000001  0.4842500000000001  1.0000
  O   O12       1.0  0.77284  0.2581600000000001  0.73253  1.0000
  O   O13       1.0  0.50735  0.3000500000000001  0.34635  1.0000
  O   O14       1.0  0.49265000000000014  0.6999500000000001  0.65366  1.0000
  O   O15       1.0  0.46273000000000014  0.7937300000000003  0.30688  1.0000
  O   O16       1.0  0.98813  0.33531  0.79293  1.0000
