data_image0
_chemical_formula_structural       Cu6H24C12N24O6
_chemical_formula_sum              "Cu6 H24 C12 N24 O6"
_cell_length_a       10.88128
_cell_length_b       11.81005
_cell_length_c       11.81592
_cell_angle_alpha    119.97318999999999
_cell_angle_beta     90.00674
_cell_angle_gamma    89.99236

_symmetry_space_group_name_H-M    'P 1'
_symmetry_Int_Tables_number       1

loop_
  _symmetry_equiv_pos_as_xyz
  'x,y,z'

loop_
  _atom_site_type_symbol
  _atom_site_label
  _atom_site_symmetry_multiplicity
  _atom_site_fract_x
  _atom_site_fract_y
  _atom_site_fract_z
  _atom_site_occupancy
  Cu  Cu1       1.0  0.83411  0.55398  0.0573  1.0000
  Cu  Cu2       1.0  0.16751  0.50362  0.44580999999999993  1.0000
  Cu  Cu3       1.0  0.50082  0.9425200000000001  0.49631999999999993  1.0000
  Cu  Cu4       1.0  0.1658  0.49654  0.9423399999999998  1.0000
  Cu  Cu5       1.0  0.83255  0.05761000000000001  0.5539  1.0000
  Cu  Cu6       1.0  0.49920999999999993  0.44614  0.50347  1.0000
  H   H1        1.0  0.93486  0.8026700000000001  0.32893  1.0000
  H   H2        1.0  0.46761  0.6916400000000001  0.21065  1.0000
  H   H3        1.0  0.58028  0.60362  0.09157  1.0000
  H   H4        1.0  0.69392  0.61895  0.94441  1.0000
  H   H5        1.0  0.26819  0.5264000000000001  0.19648  1.0000
  H   H6        1.0  0.8011399999999999  0.51964  0.3086  1.0000
  H   H7        1.0  0.91387  0.48840000000000006  0.39655  1.0000
  H   H8        1.0  0.02721  0.32586  0.38051999999999997  1.0000
  H   H9        1.0  0.6013  0.6708  0.47342  1.0000
  H   H10       1.0  0.13413  0.79009  0.48041  1.0000
  H   H11       1.0  0.24731  0.90862  0.51147  1.0000
  H   H12       1.0  0.36071  0.05582999999999997  0.67446  1.0000
  H   H13       1.0  0.06505  0.47365  0.67044  1.0000
  H   H14       1.0  0.53227  0.48109999999999997  0.7889699999999998  1.0000
  H   H15       1.0  0.41965  0.5121499999999999  0.9081099999999999  1.0000
  H   H16       1.0  0.30573999999999996  0.67437  0.055639999999999995  1.0000
  H   H17       1.0  0.7318899999999999  0.32952  0.80294  1.0000
  H   H18       1.0  0.19897  0.2104700000000001  0.69033  1.0000
  H   H19       1.0  0.08595  0.09168000000000001  0.60267  1.0000
  H   H20       1.0  0.973  0.9454400000000002  0.61967  1.0000
  H   H21       1.0  0.39865  0.19743  0.52649  1.0000
  H   H22       1.0  0.86586  0.309  0.51904  1.0000
  H   H23       1.0  0.7528699999999998  0.39679  0.48799999999999993  1.0000
  H   H24       1.0  0.63938  0.38147000000000003  0.32542  1.0000
  C   C1        1.0  0.64883  0.73575  0.26267  1.0000
  C   C2        1.0  0.8356599999999998  0.79759  0.32376  1.0000
  C   C3        1.0  0.9822299999999999  0.52702  0.264  1.0000
  C   C4        1.0  0.169  0.52619  0.20190999999999998  1.0000
  C   C5        1.0  0.31534999999999996  0.73734  0.47256  1.0000
  C   C6        1.0  0.50213  0.67611  0.47336  1.0000
  C   C7        1.0  0.35106999999999994  0.4731799999999999  0.73696  1.0000
  C   C8        1.0  0.16425  0.4738  0.67576  1.0000
  C   C9        1.0  0.01787  0.26282  0.73525  1.0000
  C   C10       1.0  0.83109  0.32399000000000006  0.79745  1.0000
  C   C11       1.0  0.68462  0.26445  0.52692  1.0000
  C   C12       1.0  0.4978299999999999  0.20262  0.52636  1.0000
  N   N1        1.0  0.76441  0.8853800000000001  0.41767  1.0000
  N   N2        1.0  0.64331  0.8472800000000003  0.37925  1.0000
  N   N3        1.0  0.76906  0.7029100000000003  0.22467999999999996  1.0000
  N   N4        1.0  0.55518  0.6577  0.19032  1.0000
  N   N5        1.0  0.09756999999999999  0.5326  0.11435999999999999  1.0000
  N   N6        1.0  0.9765399999999999  0.53222  0.15252  1.0000
  N   N7        1.0  0.10252  0.52161  0.29657  1.0000
  N   N8        1.0  0.88878  0.5329899999999999  0.34231  1.0000
  N   N9        1.0  0.43085  0.58204  0.46692  1.0000
  N   N10       1.0  0.30979  0.62057  0.46724  1.0000
  N   N11       1.0  0.43562  0.7753300000000001  0.47789  1.0000
  N   N12       1.0  0.2219  0.80992  0.46687  1.0000
  N   N13       1.0  0.23556999999999997  0.4675500000000001  0.58181  1.0000
  N   N14       1.0  0.35663999999999996  0.46803000000000006  0.62033  1.0000
  N   N15       1.0  0.23082999999999998  0.47833  0.77494  1.0000
  N   N16       1.0  0.44471  0.46756  0.80936  1.0000
  N   N17       1.0  0.9024699999999999  0.41797999999999996  0.8849799999999999  1.0000
  N   N18       1.0  0.02352  0.3795  0.84671  1.0000
  N   N19       1.0  0.8975799999999999  0.22482  0.70276  1.0000
  N   N20       1.0  0.11124999999999997  0.19043  0.6568  1.0000
  N   N21       1.0  0.56911  0.11489000000000005  0.53267  1.0000
  N   N22       1.0  0.69017  0.15298  0.5322  1.0000
  N   N23       1.0  0.56435  0.29725  0.52175  1.0000
  N   N24       1.0  0.77816  0.34257000000000004  0.53253  1.0000
  O   O1        1.0  0.68431  0.5492799999999999  0.9648499999999999  1.0000
  O   O2        1.0  0.01773  0.41569999999999996  0.45066999999999996  1.0000
  O   O3        1.0  0.35114  0.03526999999999999  0.58436  1.0000
  O   O4        1.0  0.31565  0.58419  0.03482  1.0000
  O   O5        1.0  0.9821999999999997  0.96478  0.5492299999999999  1.0000
  O   O6        1.0  0.6489  0.45088000000000006  0.41556999999999994  1.0000
