data_image0
_chemical_formula_structural       Mn4H20C40N12O16
_chemical_formula_sum              "Mn4 H20 C40 N12 O16"
_cell_length_a       8.10759
_cell_length_b       9.77793
_cell_length_c       15.589229999999999
_cell_angle_alpha    90.02661
_cell_angle_beta     91.05764999999998
_cell_angle_gamma    90.0186

_space_group_name_H-M_alt    "P 1"
_space_group_IT_number       1

loop_
  _space_group_symop_operation_xyz
  'x, y, z'

loop_
  _atom_site_type_symbol
  _atom_site_label
  _atom_site_symmetry_multiplicity
  _atom_site_fract_x
  _atom_site_fract_y
  _atom_site_fract_z
  _atom_site_occupancy
  Mn  Mn1       1.0  0.37313  0.030460000000000004  0.4614900000000001  1.0000
  Mn  Mn2       1.0  0.6330899999999998  0.96225  0.9614000000000003  1.0000
  Mn  Mn3       1.0  0.87393  0.47123  0.4618600000000001  1.0000
  Mn  Mn4       1.0  0.13297  0.53761  0.9614600000000002  1.0000
  H   H1        1.0  0.61185  0.5386  0.15548  1.0000
  H   H2        1.0  0.4143399999999999  0.11376000000000001  0.2789300000000001  1.0000
  H   H3        1.0  0.55153  0.02039  0.15119000000000005  1.0000
  H   H4        1.0  0.4776699999999999  0.61568  0.2600900000000001  1.0000
  H   H5        1.0  0.35989  0.72825  0.3859900000000001  1.0000
  H   H6        1.0  0.42512  0.47973  0.65311  1.0000
  H   H7        1.0  0.6100999999999998  0.89513  0.7825900000000002  1.0000
  H   H8        1.0  0.4933299999999999  0.0008299999999999999  0.65079  1.0000
  H   H9        1.0  0.4794899999999999  0.38564  0.7897500000000002  1.0000
  H   H10       1.0  0.58027  0.26101  0.9180800000000002  1.0000
  H   H11       1.0  0.11196  0.96202  0.15516  1.0000
  H   H12       1.0  0.9136299999999999  0.38789  0.27936  1.0000
  H   H13       1.0  0.0508  0.48014  0.15144  1.0000
  H   H14       1.0  0.9779199999999998  0.8856100000000001  0.25947  1.0000
  H   H15       1.0  0.8599  0.77409  0.38564  1.0000
  H   H16       1.0  0.92325  0.02017  0.6523400000000003  1.0000
  H   H17       1.0  0.11027  0.60484  0.7828600000000002  1.0000
  H   H18       1.0  0.9939799999999999  0.49926  0.6509000000000003  1.0000
  H   H19       1.0  0.97953  0.11422000000000002  0.7894100000000002  1.0000
  H   H20       1.0  0.07997999999999997  0.23868000000000003  0.9179000000000003  1.0000
  C   C1        1.0  0.43111  0.00409  0.2715400000000001  1.0000
  C   C2        1.0  0.5073099999999998  0.95122  0.20014000000000007  1.0000
  C   C3        1.0  0.52514  0.80836  0.19184  1.0000
  C   C4        1.0  0.4672  0.72663  0.25987  1.0000
  C   C5        1.0  0.3988  0.78832  0.33101000000000014  1.0000
  C   C6        1.0  0.60636  0.74997  0.11912000000000003  1.0000
  C   C7        1.0  0.76881  0.71615  0.00829  1.0000
  C   C8        1.0  0.7471999999999998  0.58959  0.04673  1.0000
  C   C9        1.0  0.8088199999999998  0.44756  0.03398  1.0000
  C   C10       1.0  0.86559  0.7642  0.9359400000000002  1.0000
  C   C11       1.0  0.5793  0.0031100000000000004  0.7808700000000002  1.0000
  C   C12       1.0  0.51522  0.06318  0.70759  1.0000
  C   C13       1.0  0.4763599999999999  0.20359000000000002  0.7074900000000002  1.0000
  C   C14       1.0  0.50778  0.27724  0.78392  1.0000
  C   C15       1.0  0.5646900000000001  0.20916000000000004  0.8566200000000003  1.0000
  C   C16       1.0  0.39486  0.2632  0.6332  1.0000
  C   C17       1.0  0.22737999999999994  0.2893  0.5226500000000002  1.0000
  C   C18       1.0  0.26222999999999996  0.42038000000000003  0.5532400000000002  1.0000
  C   C19       1.0  0.21087  0.56389  0.53197  1.0000
  C   C20       1.0  0.12741999999999995  0.24042999999999998  0.44813  1.0000
  C   C21       1.0  0.93036  0.49749  0.2717400000000001  1.0000
  C   C22       1.0  0.006700000000000002  0.54974  0.20022000000000006  1.0000
  C   C23       1.0  0.02486  0.69248  0.19166  1.0000
  C   C24       1.0  0.96713  0.7747  0.2595300000000001  1.0000
  C   C25       1.0  0.89861  0.71358  0.3308  1.0000
  C   C26       1.0  0.10616  0.75052  0.11891000000000003  1.0000
  C   C27       1.0  0.2688  0.78394  0.00814  1.0000
  C   C28       1.0  0.24726999999999996  0.91063  0.04648  1.0000
  C   C29       1.0  0.30919  0.05263  0.03389  1.0000
  C   C30       1.0  0.36565  0.73561  0.9358800000000003  1.0000
  C   C31       1.0  0.07954  0.49682000000000004  0.7809900000000002  1.0000
  C   C32       1.0  0.015600000000000004  0.43679  0.7076200000000002  1.0000
  C   C33       1.0  0.9765199999999998  0.29639  0.70736  1.0000
  C   C34       1.0  0.007750000000000008  0.22266000000000002  0.7837200000000002  1.0000
  C   C35       1.0  0.06459  0.29067  0.8565200000000002  1.0000
  C   C36       1.0  0.8947  0.23708  0.63302  1.0000
  C   C37       1.0  0.72636  0.21216000000000002  0.5225800000000003  1.0000
  C   C38       1.0  0.7609699999999998  0.08071  0.5527300000000003  1.0000
  C   C39       1.0  0.7097400000000001  0.93697  0.5315600000000003  1.0000
  C   C40       1.0  0.6252  0.26327  0.4489800000000001  1.0000
  N   N1        1.0  0.3788199999999999  0.9255300000000001  0.3375100000000001  1.0000
  N   N2        1.0  0.67524  0.81496  0.051010000000000014  1.0000
  N   N3        1.0  0.64345  0.61331  0.11343000000000003  1.0000
  N   N4        1.0  0.59817  0.07271000000000002  0.85617  1.0000
  N   N5        1.0  0.313  0.19327  0.5713000000000003  1.0000
  N   N6        1.0  0.36993999999999994  0.40062  0.6212200000000002  1.0000
  N   N7        1.0  0.8783  0.5764500000000001  0.3376  1.0000
  N   N8        1.0  0.17507999999999996  0.6852800000000001  0.050900000000000015  1.0000
  N   N9        1.0  0.1434  0.88714  0.11315000000000003  1.0000
  N   N10       1.0  0.09819000000000001  0.42713  0.8562200000000002  1.0000
  N   N11       1.0  0.8130699999999997  0.30752000000000007  0.5713800000000002  1.0000
  N   N12       1.0  0.86888  0.09985  0.62071  1.0000
  O   O1        1.0  0.8333299999999998  0.8903800000000001  0.9134100000000003  1.0000
  O   O2        1.0  0.9741999999999997  0.69349  0.9002800000000002  1.0000
  O   O3        1.0  0.9607299999999998  0.43273  0.00926  1.0000
  O   O4        1.0  0.71635  0.35173  0.05250000000000001  1.0000
  O   O5        1.0  0.15086999999999995  0.11696000000000001  0.42429  1.0000
  O   O6        1.0  0.02395  0.31945  0.41116000000000014  1.0000
  O   O7        1.0  0.057030000000000004  0.58192  0.5106300000000003  1.0000
  O   O8        1.0  0.31658  0.65478  0.5412100000000002  1.0000
  O   O9        1.0  0.33344  0.60929  0.9134900000000002  1.0000
  O   O10       1.0  0.47424  0.80631  0.90019  1.0000
  O   O11       1.0  0.4611999999999999  0.06736  0.00927  1.0000
  O   O12       1.0  0.21677  0.14845  0.05248000000000001  1.0000
  O   O13       1.0  0.65017  0.38719  0.4264000000000001  1.0000
  O   O14       1.0  0.51939  0.18659  0.41165  1.0000
  O   O15       1.0  0.5558999999999997  0.91894  0.51025  1.0000
  O   O16       1.0  0.81551  0.84612  0.5410700000000003  1.0000
