data_image0
_chemical_formula_structural       Cd2H20C28N2O8
_chemical_formula_sum              "Cd2 H20 C28 N2 O8"
_cell_length_a       9.62768
_cell_length_b       9.72983
_cell_length_c       9.87893
_cell_angle_alpha    94.81025
_cell_angle_beta     88.43225
_cell_angle_gamma    118.56218999999999

_symmetry_space_group_name_H-M    'P 1'
_symmetry_Int_Tables_number       1

loop_
  _symmetry_equiv_pos_as_xyz
  'x,y,z'

loop_
  _atom_site_type_symbol
  _atom_site_label
  _atom_site_symmetry_multiplicity
  _atom_site_fract_x
  _atom_site_fract_y
  _atom_site_fract_z
  _atom_site_occupancy
  Cd  Cd1       1.0  0.22485  0.061529999999999994  0.03163000000000001  1.0000
  Cd  Cd2       1.0  0.7751500000000001  0.9384700000000001  0.9683700000000001  1.0000
  H   H1        1.0  0.38125  0.17743  0.49951  1.0000
  H   H2        1.0  0.4951000000000001  0.84278  0.28658  1.0000
  H   H3        1.0  0.12139  0.73033  0.16917000000000004  1.0000
  H   H4        1.0  0.22391  0.53638  0.14561000000000004  1.0000
  H   H5        1.0  0.05734999999999995  0.99007  0.74406  1.0000
  H   H6        1.0  0.98931  0.80093  0.53895  1.0000
  H   H7        1.0  0.27093000000000006  0.62026  0.71121  1.0000
  H   H8        1.0  0.33009  0.81929  0.90861  1.0000
  H   H9        1.0  0.071  0.6236  0.39535  1.0000
  H   H10       1.0  0.17213999999999996  0.53773  0.4702800000000001  1.0000
  H   H11       1.0  0.61875  0.82257  0.5004900000000002  1.0000
  H   H12       1.0  0.5049  0.15722  0.71342  1.0000
  H   H13       1.0  0.8786100000000001  0.26967  0.8308300000000001  1.0000
  H   H14       1.0  0.77609  0.46362  0.85439  1.0000
  H   H15       1.0  0.9426500000000001  0.009930000000000003  0.25594  1.0000
  H   H16       1.0  0.01069  0.19907  0.46105000000000007  1.0000
  H   H17       1.0  0.7290700000000001  0.37974  0.28879  1.0000
  H   H18       1.0  0.66991  0.18071  0.09139000000000001  1.0000
  H   H19       1.0  0.929  0.3764  0.60465  1.0000
  H   H20       1.0  0.82786  0.46227  0.52973  1.0000
  C   C1        1.0  0.3634  0.02925  0.25356  1.0000
  C   C2        1.0  0.4312  0.011480000000000013  0.3811500000000001  1.0000
  C   C3        1.0  0.4336900000000001  0.10036  0.50146  1.0000
  C   C4        1.0  0.49729000000000007  0.9103500000000001  0.38067  1.0000
  C   C5        1.0  0.8857600000000001  0.72723  0.0235  1.0000
  C   C6        1.0  0.94178  0.60772  0.01388  1.0000
  C   C7        1.0  0.06783999999999998  0.62832  0.09641  1.0000
  C   C8        1.0  0.12635  0.52199  0.08239  1.0000
  C   C9        1.0  0.10305000000000007  0.9069600000000002  0.73145  1.0000
  C   C10       1.0  0.06549000000000002  0.80043  0.61812  1.0000
  C   C11       1.0  0.12532  0.69415  0.60707  1.0000
  C   C12       1.0  0.22148000000000007  0.70029  0.7137600000000002  1.0000
  C   C13       1.0  0.25492999999999993  0.8101  0.8244200000000003  1.0000
  C   C14       1.0  0.08034000000000001  0.57335  0.48799  1.0000
  C   C15       1.0  0.6366  0.97075  0.74644  1.0000
  C   C16       1.0  0.5688000000000001  0.98852  0.6188500000000001  1.0000
  C   C17       1.0  0.56631  0.89964  0.49854000000000004  1.0000
  C   C18       1.0  0.5027100000000001  0.08965  0.61933  1.0000
  C   C19       1.0  0.11424000000000001  0.27277  0.9765  1.0000
  C   C20       1.0  0.05822  0.39228  0.98612  1.0000
  C   C21       1.0  0.93217  0.37167999999999995  0.90359  1.0000
  C   C22       1.0  0.87365  0.47801  0.9176100000000003  1.0000
  C   C23       1.0  0.8969500000000001  0.09304  0.26855  1.0000
  C   C24       1.0  0.93451  0.19957  0.3818800000000001  1.0000
  C   C25       1.0  0.87468  0.30585  0.39293000000000006  1.0000
  C   C26       1.0  0.7785200000000002  0.29971  0.28624000000000005  1.0000
  C   C27       1.0  0.74507  0.1899  0.17558000000000004  1.0000
  C   C28       1.0  0.9196600000000001  0.42666  0.51201  1.0000
  N   N1        1.0  0.19724999999999998  0.9125900000000001  0.8331000000000002  1.0000
  N   N2        1.0  0.80275  0.08741  0.1669  1.0000
  O   O1        1.0  0.29012  0.11013  0.2611200000000001  1.0000
  O   O2        1.0  0.3813700000000001  0.9649  0.14087000000000002  1.0000
  O   O3        1.0  0.9687400000000002  0.85955  0.09186000000000001  1.0000
  O   O4        1.0  0.7583200000000001  0.69517  0.9608700000000002  1.0000
  O   O5        1.0  0.70988  0.88987  0.7388800000000002  1.0000
  O   O6        1.0  0.61863  0.0351  0.85913  1.0000
  O   O7        1.0  0.03126  0.14045  0.90814  1.0000
  O   O8        1.0  0.24168000000000003  0.30483  0.03913  1.0000
