data_image0
_chemical_formula_structural       Cu2H18C22N8O2
_chemical_formula_sum              "Cu2 H18 C22 N8 O2"
_cell_length_a       7.05868
_cell_length_b       9.09074
_cell_length_c       12.3169
_cell_angle_alpha    82.54734
_cell_angle_beta     72.57115999999999
_cell_angle_gamma    64.77673

_space_group_name_H-M_alt    "P 1"
_space_group_IT_number       1

loop_
  _space_group_symop_operation_xyz
  'x, y, z'

loop_
  _atom_site_type_symbol
  _atom_site_label
  _atom_site_symmetry_multiplicity
  _atom_site_fract_x
  _atom_site_fract_y
  _atom_site_fract_z
  _atom_site_occupancy
  Cu  Cu1       1.0  0.25226999999999994  0.1858  0.28487  1.0000
  Cu  Cu2       1.0  0.5294900000000001  0.68412  0.71474  1.0000
  H   H1        1.0  0.55188  0.16481  0.43846  1.0000
  H   H2        1.0  0.5864499999999999  0.008559999999999998  0.61851  1.0000
  H   H3        1.0  0.3208399999999998  0.71925  0.53582  1.0000
  H   H4        1.0  0.9077799999999998  0.10839999999999997  0.19503  1.0000
  H   H5        1.0  0.9481999999999999  0.91021  0.25158  1.0000
  H   H6        1.0  0.9862799999999996  0.12858  0.99494  1.0000
  H   H7        1.0  0.20916  0.004890000000000001  0.80347  1.0000
  H   H8        1.0  0.58112  0.5835199999999998  0.94243  1.0000
  H   H9        1.0  0.37690999999999986  0.68881  0.14238  1.0000
  H   H10       1.0  0.9891899999999999  0.6621999999999998  0.56012  1.0000
  H   H11       1.0  0.21549000000000001  0.50529  0.38069  1.0000
  H   H12       1.0  0.8606099999999998  0.21832  0.45991000000000004  1.0000
  H   H13       1.0  0.09382999999999998  0.61019  0.80731  1.0000
  H   H14       1.0  0.18903000000000006  0.40974  0.75363  1.0000
  H   H15       1.0  0.9758899999999999  0.62909  0.00865  1.0000
  H   H16       1.0  0.015150000000000007  0.50584  0.19779000000000002  1.0000
  H   H17       1.0  0.5247299999999998  0.08488  0.05483  1.0000
  H   H18       1.0  0.5138299999999998  0.1895  0.8558300000000001  1.0000
  C   C1        1.0  0.50283  0.06363  0.45868  1.0000
  C   C2        1.0  0.52014  0.9773099999999999  0.56  1.0000
  C   C3        1.0  0.37403  0.81802  0.51384  1.0000
  C   C4        1.0  0.3538100000000001  0.9046499999999997  0.41241  1.0000
  C   C5        1.0  0.24006000000000002  0.873  0.33778  1.0000
  C   C6        1.0  0.03242000000000007  0.9867599999999999  0.20395  1.0000
  C   C7        1.0  0.16050000000000006  0.9173599999999997  0.08592000000000001  1.0000
  C   C8        1.0  0.11438999999999996  0.00557  0.98802  1.0000
  C   C9        1.0  0.23781000000000016  0.93883  0.88094  1.0000
  C   C10       1.0  0.44842  0.70344  0.95936  1.0000
  C   C11       1.0  0.3335  0.76201  0.06929  1.0000
  C   C12       1.0  0.9616099999999996  0.56181  0.5387  1.0000
  C   C13       1.0  0.08574999999999992  0.47528  0.43802000000000013  1.0000
  C   C14       1.0  0.8885599999999996  0.31728  0.48339  1.0000
  C   C15       1.0  0.7620599999999995  0.40356  0.58465  1.0000
  C   C16       1.0  0.5705699999999998  0.3729  0.66234  1.0000
  C   C17       1.0  0.22676000000000002  0.488  0.79783  1.0000
  C   C18       1.0  0.24046999999999996  0.4184499999999999  0.9149600000000001  1.0000
  C   C19       1.0  0.09876999999999998  0.5063  0.01381  1.0000
  C   C20       1.0  0.11978999999999997  0.43967  0.11987000000000002  1.0000
  C   C21       1.0  0.40820999999999996  0.20474  0.03871  1.0000
  C   C22       1.0  0.39864999999999995  0.26293  0.92957  1.0000
  N   N1        1.0  0.41969999999999985  0.029089999999999987  0.38358  1.0000
  N   N2        1.0  0.45659999999999956  0.8532  0.58868  1.0000
  N   N3        1.0  0.16613000000000006  0.9994  0.27001  1.0000
  N   N4        1.0  0.40300999999999987  0.78926  0.86511  1.0000
  N   N5        1.0  0.7989399999999998  0.52782  0.61283  1.0000
  N   N6        1.0  0.05052999999999996  0.35216  0.40945000000000004  1.0000
  N   N7        1.0  0.4280699999999997  0.50031  0.72847  1.0000
  N   N8        1.0  0.27165  0.29081  0.13383  1.0000
  O   O1        1.0  0.2177899999999998  0.74004  0.35020000000000007  1.0000
  O   O2        1.0  0.5597199999999998  0.23858  0.65492  1.0000
