data_image0
_chemical_formula_structural       Ca4Fe2H32C24N20O4
_chemical_formula_sum              "Ca4 Fe2 H32 C24 N20 O4"
_cell_length_a       8.9928
_cell_length_b       9.00121
_cell_length_c       13.856159999999997
_cell_angle_alpha    93.37222
_cell_angle_beta     93.61787000000001
_cell_angle_gamma    98.12464

_space_group_name_H-M_alt    "P 1"
_space_group_IT_number       1

loop_
  _space_group_symop_operation_xyz
  'x, y, z'

loop_
  _atom_site_type_symbol
  _atom_site_label
  _atom_site_symmetry_multiplicity
  _atom_site_fract_x
  _atom_site_fract_y
  _atom_site_fract_z
  _atom_site_occupancy
  Ca  Ca1       1.0  0.4409099999999999  0.13678  0.40106  1.0000
  Ca  Ca2       1.0  0.8629499999999999  0.55924  0.09899999999999998  1.0000
  Ca  Ca3       1.0  0.5586799999999998  0.8638799999999998  0.5999599999999998  1.0000
  Ca  Ca4       1.0  0.13769  0.4424  0.90151  1.0000
  Fe  Fe1       1.0  0.9998299999999999  0.50032  0.50072  1.0000
  Fe  Fe2       1.0  0.50004  0.00161  0.0016299999999999995  1.0000
  H   H1        1.0  0.58436  0.53672  0.4208999999999999  1.0000
  H   H2        1.0  0.38246  0.52323  0.41572  1.0000
  H   H3        1.0  0.23280000000000003  0.3750299999999999  0.2859  1.0000
  H   H4        1.0  0.32191999999999993  0.27763  0.19422  1.0000
  H   H5        1.0  0.35749  0.74874  0.20665  1.0000
  H   H6        1.0  0.5927099999999998  0.29703  0.20143  1.0000
  H   H7        1.0  0.32505999999999996  0.056799999999999996  0.59028  1.0000
  H   H8        1.0  0.46972  0.18319  0.61772  1.0000
  H   H9        1.0  0.46321999999999997  0.41732  0.07934999999999999  1.0000
  H   H10       1.0  0.4775  0.61917  0.0848  1.0000
  H   H11       1.0  0.62611  0.7672  0.21411  1.0000
  H   H12       1.0  0.7238  0.67785  0.3063  1.0000
  H   H13       1.0  0.25243000000000004  0.64466  0.29282  1.0000
  H   H14       1.0  0.7031299999999998  0.40638  0.29918999999999996  1.0000
  H   H15       1.0  0.94377  0.67374  0.9096  1.0000
  H   H16       1.0  0.81683  0.5292  0.88161  1.0000
  H   H17       1.0  0.41563999999999995  0.46337  0.57934  1.0000
  H   H18       1.0  0.6175  0.47685  0.5845  1.0000
  H   H19       1.0  0.76722  0.62501  0.71421  1.0000
  H   H20       1.0  0.6781999999999998  0.7224  0.8059599999999998  1.0000
  H   H21       1.0  0.6427  0.25127  0.79352  1.0000
  H   H22       1.0  0.40732999999999997  0.70306  0.7988  1.0000
  H   H23       1.0  0.67494  0.94307  0.41063  1.0000
  H   H24       1.0  0.53036  0.81713  0.3822099999999999  1.0000
  H   H25       1.0  0.53711  0.58278  0.92088  1.0000
  H   H26       1.0  0.52276  0.38091  0.91543  1.0000
  H   H27       1.0  0.3738699999999999  0.23289999999999997  0.78622  1.0000
  H   H28       1.0  0.27624  0.32233  0.69403  1.0000
  H   H29       1.0  0.74756  0.35540000000000005  0.70727  1.0000
  H   H30       1.0  0.29694  0.59359  0.70108  1.0000
  H   H31       1.0  0.05615  0.32802  0.08993  1.0000
  H   H32       1.0  0.1839  0.47174000000000005  0.11875  1.0000
  C   C1        1.0  0.79897  0.33705  0.47877  1.0000
  C   C2        1.0  0.98263  0.53936  0.34744999999999987  1.0000
  C   C3        1.0  0.14198  0.33008  0.4699599999999999  1.0000
  C   C4        1.0  0.48123  0.52743  0.37309  1.0000
  C   C5        1.0  0.33151  0.37945  0.24302  1.0000
  C   C6        1.0  0.66335  0.202  0.02124  1.0000
  C   C7        1.0  0.45622999999999997  0.016479999999999998  0.15382999999999997  1.0000
  C   C8        1.0  0.6684599999999999  0.85837  0.03404  1.0000
  C   C9        1.0  0.47302  0.52  0.12729  1.0000
  C   C10       1.0  0.62177  0.66866  0.25735  1.0000
  C   C11       1.0  0.20108  0.6632  0.52176  1.0000
  C   C12       1.0  0.01724999999999997  0.4609  0.6532499999999998  1.0000
  C   C13       1.0  0.85752  0.67061  0.5309  1.0000
  C   C14       1.0  0.51876  0.4726600000000001  0.6271599999999998  1.0000
  C   C15       1.0  0.66858  0.62056  0.75717  1.0000
  C   C16       1.0  0.33721000000000007  0.79996  0.9800199999999999  1.0000
  C   C17       1.0  0.5429999999999999  0.9841199999999999  0.8482499999999997  1.0000
  C   C18       1.0  0.33151  0.14363999999999996  0.9676599999999997  1.0000
  C   C19       1.0  0.52725  0.48009  0.8729399999999998  1.0000
  C   C20       1.0  0.37828  0.33142000000000005  0.74295  1.0000
  C   C21       1.0  0.3510799999999999  0.65032  0.24996  1.0000
  C   C22       1.0  0.6016199999999998  0.39825  0.25032  1.0000
  C   C23       1.0  0.64902  0.34971  0.7502199999999999  1.0000
  C   C24       1.0  0.39846  0.6018  0.74996  1.0000
  N   N1        1.0  0.68281  0.25666  0.46321999999999997  1.0000
  N   N2        1.0  0.9615599999999999  0.56313  0.26521  1.0000
  N   N3        1.0  0.22681999999999997  0.24612000000000003  0.4493499999999999  1.0000
  N   N4        1.0  0.46849999999999997  0.38797  0.30893  1.0000
  N   N5        1.0  0.48916  0.66317  0.31611999999999996  1.0000
  N   N6        1.0  0.74679  0.3154  0.04000999999999998  1.0000
  N   N7        1.0  0.43045  0.04111  0.23544  1.0000
  N   N8        1.0  0.7560700000000001  0.77595  0.05264  1.0000
  N   N9        1.0  0.61271  0.53173  0.19158999999999998  1.0000
  N   N10       1.0  0.33732  0.51228  0.18407  1.0000
  N   N11       1.0  0.31729  0.74345  0.53751  1.0000
  N   N12       1.0  0.03869000000000001  0.437  0.73545  1.0000
  N   N13       1.0  0.77249  0.75444  0.55141  1.0000
  N   N14       1.0  0.53153  0.61208  0.6913199999999999  1.0000
  N   N15       1.0  0.51085  0.3368499999999999  0.6841  1.0000
  N   N16       1.0  0.25468  0.68624  0.96024  1.0000
  N   N17       1.0  0.56776  0.95853  0.76654  1.0000
  N   N18       1.0  0.24349  0.22502999999999998  0.9477399999999998  1.0000
  N   N19       1.0  0.38748  0.46835999999999994  0.8086999999999999  1.0000
  N   N20       1.0  0.6628899999999999  0.48775  0.8161299999999998  1.0000
  O   O1        1.0  0.42991  0.08255  0.57601  1.0000
  O   O2        1.0  0.91692  0.56927  0.92435  1.0000
  O   O3        1.0  0.56981  0.9174300000000001  0.42423  1.0000
  O   O4        1.0  0.08363  0.43269  0.07577  1.0000
