data_image0
_chemical_formula_structural       Zn2H4C20O16
_chemical_formula_sum              "Zn2 H4 C20 O16"
_cell_length_a       8.07552
_cell_length_b       8.07776
_cell_length_c       15.35073
_cell_angle_alpha    90.30467
_cell_angle_beta     90.40151
_cell_angle_gamma    98.53357

_symmetry_space_group_name_H-M    'P 1'
_symmetry_Int_Tables_number       1

loop_
  _symmetry_equiv_pos_as_xyz
  'x,y,z'

loop_
  _atom_site_type_symbol
  _atom_site_label
  _atom_site_symmetry_multiplicity
  _atom_site_fract_x
  _atom_site_fract_y
  _atom_site_fract_z
  _atom_site_occupancy
  Zn  Zn1       1.0  0.9953299999999999  0.0037799999999999986  0.7513299999999998  1.0000
  Zn  Zn2       1.0  0.0023999999999999955  0.99591  0.25119  1.0000
  H   H1        1.0  0.12070000000000002  0.23125000000000007  0.49466  1.0000
  H   H2        1.0  0.76465  0.8757400000000002  0.00833  1.0000
  H   H3        1.0  0.8793999999999998  0.76711  0.50786  1.0000
  H   H4        1.0  0.23158  0.12193000000000004  0.99287  1.0000
  C   C1        1.0  0.98272  0.5803000000000003  0.58137  1.0000
  C   C2        1.0  0.045010000000000015  0.42459000000000013  0.57769  1.0000
  C   C3        1.0  0.07538  0.35142  0.49728  1.0000
  C   C4        1.0  0.9701  0.67751  0.66552  1.0000
  C   C5        1.0  0.07362  0.32656  0.65863  1.0000
  C   C6        1.0  0.41898  0.01805  0.92029  1.0000
  C   C7        1.0  0.57399  0.9549400000000002  0.92465  1.0000
  C   C8        1.0  0.64522  0.9225  0.00528  1.0000
  C   C9        1.0  0.3227  0.03047  0.83593  1.0000
  C   C10       1.0  0.67392  0.9266900000000002  0.84445  1.0000
  C   C11       1.0  0.01865000000000001  0.4189100000000001  0.42125  1.0000
  C   C12       1.0  0.95633  0.5745500000000002  0.4249999999999999  1.0000
  C   C13       1.0  0.9256900000000001  0.6474600000000003  0.50538  1.0000
  C   C14       1.0  0.03071000000000002  0.3228300000000001  0.33672  1.0000
  C   C15       1.0  0.92704  0.6737200000000002  0.34455  1.0000
  C   C16       1.0  0.57747  0.9798100000000002  0.08098  1.0000
  C   C17       1.0  0.4228  0.04411  0.0765  1.0000
  C   C18       1.0  0.3511  0.07536  0.99587  1.0000
  C   C19       1.0  0.6729600000000001  0.9659200000000002  0.16571  1.0000
  C   C20       1.0  0.32342  0.07641000000000003  0.15623  1.0000
  O   O1        1.0  0.007730000000000009  0.8362800000000002  0.65856  1.0000
  O   O2        1.0  0.91615  0.59176  0.72892  1.0000
  O   O3        1.0  0.97537  0.19120000000000006  0.6709  1.0000
  O   O4        1.0  0.20027  0.39198  0.69953  1.0000
  O   O5        1.0  0.16489000000000004  0.9838600000000002  0.84135  1.0000
  O   O6        1.0  0.40844  0.09259000000000003  0.77428  1.0000
  O   O7        1.0  0.80971  0.024450000000000006  0.83288  1.0000
  O   O8        1.0  0.60812  0.79981  0.80388  1.0000
  O   O9        1.0  0.98393  0.16497  0.34169  1.0000
  O   O10       1.0  0.09222000000000001  0.40877000000000013  0.27495  1.0000
  O   O11       1.0  0.02431000000000001  0.80987  0.33266  1.0000
  O   O12       1.0  0.79988  0.6079100000000002  0.30414  1.0000
  O   O13       1.0  0.8322  0.9995500000000002  0.15903  1.0000
  O   O14       1.0  0.58467  0.9158300000000003  0.22886  1.0000
  O   O15       1.0  0.18432000000000004  0.9833900000000002  0.16704  1.0000
  O   O16       1.0  0.39228  0.20167  0.19692  1.0000
