data_image0
_chemical_formula_structural       Gd2H14C30O14
_chemical_formula_sum              "Gd2 H14 C30 O14"
_cell_length_a       9.55102
_cell_length_b       9.52417
_cell_length_c       11.65787
_cell_angle_alpha    91.85319
_cell_angle_beta     100.08044
_cell_angle_gamma    109.86009

_space_group_name_H-M_alt    "P 1"
_space_group_IT_number       1

loop_
  _space_group_symop_operation_xyz
  'x, y, z'

loop_
  _atom_site_type_symbol
  _atom_site_label
  _atom_site_symmetry_multiplicity
  _atom_site_fract_x
  _atom_site_fract_y
  _atom_site_fract_z
  _atom_site_occupancy
  Gd  Gd1       1.0  0.26904000000000006  0.53292  0.95003  1.0000
  Gd  Gd2       1.0  0.73095  0.46707  0.04997  1.0000
  H   H1        1.0  0.67519  0.004380000000000017  0.96552  1.0000
  H   H2        1.0  0.81246  0.68817  0.78148  1.0000
  H   H3        1.0  0.09125000000000004  0.15515  0.8317  1.0000
  H   H4        1.0  0.81413  0.9126299999999999  0.58375  1.0000
  H   H5        1.0  0.7187100000000001  0.78321  0.38049999999999995  1.0000
  H   H6        1.0  0.07778  0.60229  0.42593  1.0000
  H   H7        1.0  0.17399000000000006  0.7314699999999998  0.6306  1.0000
  H   H8        1.0  0.3248  0.9956099999999999  0.03448  1.0000
  H   H9        1.0  0.18753999999999996  0.31183  0.21852999999999995  1.0000
  H   H10       1.0  0.90875  0.84484  0.1683  1.0000
  H   H11       1.0  0.18586999999999998  0.08736  0.41624999999999995  1.0000
  H   H12       1.0  0.28128  0.21677999999999997  0.6194999999999999  1.0000
  H   H13       1.0  0.9222100000000001  0.3977  0.57407  1.0000
  H   H14       1.0  0.826  0.2685199999999999  0.3694  1.0000
  C   C1        1.0  0.9171  0.25286999999999993  0.9550799999999999  1.0000
  C   C2        1.0  0.88651  0.09684  0.90484  1.0000
  C   C3        1.0  0.7551600000000003  0.9808599999999998  0.9189699999999997  1.0000
  C   C4        1.0  0.73095  0.8329999999999999  0.87756  1.0000
  C   C5        1.0  0.83141  0.80257  0.81464  1.0000
  C   C6        1.0  0.9562900000000001  0.92092  0.7949399999999999  1.0000
  C   C7        1.0  0.98867  0.06673999999999997  0.8435099999999998  1.0000
  C   C8        1.0  0.6013600000000001  0.70795  0.90517  1.0000
  C   C9        1.0  0.9982800000000001  0.8266199999999998  0.6184199999999999  1.0000
  C   C10       1.0  0.87033  0.84357  0.54932  1.0000
  C   C11       1.0  0.8173800000000001  0.77159  0.43617  1.0000
  C   C12       1.0  0.8905000000000001  0.68226  0.39213  1.0000
  C   C13       1.0  0.021570000000000027  0.67084  0.46129999999999993  1.0000
  C   C14       1.0  0.07611000000000001  0.74312  0.57418  1.0000
  C   C15       1.0  0.8282  0.59889  0.27481  1.0000
  C   C16       1.0  0.08289000000000006  0.74712  0.04492  1.0000
  C   C17       1.0  0.11348999999999994  0.90315  0.09516  1.0000
  C   C18       1.0  0.24483000000000002  0.019139999999999997  0.08102999999999999  1.0000
  C   C19       1.0  0.26904000000000006  0.16699  0.12244  1.0000
  C   C20       1.0  0.16858000000000004  0.19742999999999997  0.18535999999999997  1.0000
  C   C21       1.0  0.043699999999999996  0.07907  0.20505999999999996  1.0000
  C   C22       1.0  0.01132000000000004  0.9332599999999999  0.15649  1.0000
  C   C23       1.0  0.39864000000000005  0.29204  0.09482999999999998  1.0000
  C   C24       1.0  0.0017200000000000112  0.17338  0.38158  1.0000
  C   C25       1.0  0.12966  0.15642  0.45068  1.0000
  C   C26       1.0  0.18262000000000003  0.22840999999999997  0.56383  1.0000
  C   C27       1.0  0.10949999999999997  0.31774  0.60787  1.0000
  C   C28       1.0  0.97842  0.32914999999999994  0.5387  1.0000
  C   C29       1.0  0.9238800000000001  0.25687  0.42582  1.0000
  C   C30       1.0  0.17178999999999994  0.40109999999999996  0.7251999999999998  1.0000
  O   O1        1.0  0.05151999999999998  0.34724  0.9721599999999999  1.0000
  O   O2        1.0  0.80467  0.2836  0.97953  1.0000
  O   O3        1.0  0.48445000000000005  0.73458  0.92244  1.0000
  O   O4        1.0  0.6122100000000003  0.5769999999999998  0.91196  1.0000
  O   O5        1.0  0.7215100000000001  0.6263199999999999  0.20535999999999993  1.0000
  O   O6        1.0  0.88031  0.4997999999999999  0.24036999999999994  1.0000
  O   O7        1.0  0.05755999999999993  0.8948  0.7318999999999999  1.0000
  O   O8        1.0  0.94847  0.65276  0.027839999999999997  1.0000
  O   O9        1.0  0.19533  0.7164  0.02047  1.0000
  O   O10       1.0  0.5155400000000001  0.26542  0.07755999999999999  1.0000
  O   O11       1.0  0.38778000000000007  0.423  0.08804  1.0000
  O   O12       1.0  0.27849  0.37368  0.79464  1.0000
  O   O13       1.0  0.11968000000000001  0.5002  0.75963  1.0000
  O   O14       1.0  0.94243  0.10519  0.2681  1.0000
