data_image0
_chemical_formula_structural       Sr2P4H28C12N4O12
_chemical_formula_sum              "Sr2 P4 H28 C12 N4 O12"
_cell_length_a       6.78696
_cell_length_b       10.47175
_cell_length_c       11.35655
_cell_angle_alpha    75.49573
_cell_angle_beta     81.58395
_cell_angle_gamma    73.39362

_space_group_name_H-M_alt    "P 1"
_space_group_IT_number       1

loop_
  _space_group_symop_operation_xyz
  'x, y, z'

loop_
  _atom_site_type_symbol
  _atom_site_label
  _atom_site_symmetry_multiplicity
  _atom_site_fract_x
  _atom_site_fract_y
  _atom_site_fract_z
  _atom_site_occupancy
  Sr  Sr1       1.0  0.77312  0.41777  0.52508  1.0000
  Sr  Sr2       1.0  0.22688  0.58222  0.47491  1.0000
  P   P1        1.0  0.27849  0.31846  0.69139  1.0000
  P   P2        1.0  0.8297699999999998  0.25339  0.32156  1.0000
  P   P3        1.0  0.7215099999999999  0.6815300000000001  0.30861  1.0000
  P   P4        1.0  0.17023999999999997  0.74659  0.67843  1.0000
  H   H1        1.0  0.5500999999999997  0.16474999999999998  0.5193  1.0000
  H   H2        1.0  0.84619  0.53914  0.14682  1.0000
  H   H3        1.0  0.21261999999999995  0.02161000000000001  0.57805  1.0000
  H   H4        1.0  0.19779999999999995  0.19398000000000004  0.49378  1.0000
  H   H5        1.0  0.75576  0.9586500000000001  0.64596  1.0000
  H   H6        1.0  0.5425299999999998  0.8837700000000001  0.66443  1.0000
  H   H7        1.0  0.28653999999999985  0.07618999999999997  0.7474700000000001  1.0000
  H   H8        1.0  0.5292500000000002  0.10586000000000001  0.75556  1.0000
  H   H9        1.0  0.80486  0.44077999999999995  0.92791  1.0000
  H   H10       1.0  0.6265800000000001  0.5759399999999999  0.98878  1.0000
  H   H11       1.0  0.13397999999999993  0.33433  0.18227  1.0000
  H   H12       1.0  0.10228000000000002  0.29857  0.03995  1.0000
  H   H13       1.0  0.57935  0.43692  0.19586  1.0000
  H   H14       1.0  0.70453  0.30159  0.11805000000000002  1.0000
  H   H15       1.0  0.44989999999999997  0.83524  0.4807  1.0000
  H   H16       1.0  0.15380999999999995  0.46086  0.8531800000000002  1.0000
  H   H17       1.0  0.7873899999999999  0.9783900000000001  0.42195000000000005  1.0000
  H   H18       1.0  0.8022  0.80601  0.50622  1.0000
  H   H19       1.0  0.24423999999999998  0.04135000000000001  0.35404  1.0000
  H   H20       1.0  0.45746999999999993  0.11622000000000002  0.33557  1.0000
  H   H21       1.0  0.7134600000000001  0.92381  0.25253  1.0000
  H   H22       1.0  0.47075  0.8941300000000001  0.24444  1.0000
  H   H23       1.0  0.19514000000000006  0.55922  0.07209  1.0000
  H   H24       1.0  0.37343  0.42405  0.01122  1.0000
  H   H25       1.0  0.8660200000000006  0.66567  0.81772  1.0000
  H   H26       1.0  0.8977299999999998  0.70142  0.96005  1.0000
  H   H27       1.0  0.42064999999999997  0.56308  0.8041400000000001  1.0000
  H   H28       1.0  0.29547  0.69841  0.88194  1.0000
  C   C1        1.0  0.29775000000000007  0.09023999999999999  0.51586  1.0000
  C   C2        1.0  0.6233600000000001  0.95474  0.60278  1.0000
  C   C3        1.0  0.39678999999999987  0.13507  0.70053  1.0000
  C   C4        1.0  0.78997  0.5208600000000002  0.97774  1.0000
  C   C5        1.0  0.08639  0.37906  0.08927  1.0000
  C   C6        1.0  0.72683  0.36596  0.17516  1.0000
  C   C7        1.0  0.70225  0.90976  0.48414000000000007  1.0000
  C   C8        1.0  0.37664  0.045250000000000005  0.39722  1.0000
  C   C9        1.0  0.6032099999999999  0.86493  0.29947  1.0000
  C   C10       1.0  0.21003  0.47914  0.02226  1.0000
  C   C11       1.0  0.9136199999999999  0.6209400000000003  0.9107300000000002  1.0000
  C   C12       1.0  0.2731699999999999  0.63403  0.8248400000000001  1.0000
  N   N1        1.0  0.47286  0.09333000000000001  0.58141  1.0000
  N   N2        1.0  0.86245  0.45337000000000005  0.10197  1.0000
  N   N3        1.0  0.52714  0.9066600000000001  0.4185900000000001  1.0000
  N   N4        1.0  0.13755000000000006  0.54662  0.89803  1.0000
  O   O1        1.0  0.18922  0.32558  0.82181  1.0000
  O   O2        1.0  0.11740999999999997  0.3681200000000001  0.59519  1.0000
  O   O3        1.0  0.45025999999999994  0.39389  0.64483  1.0000
  O   O4        1.0  0.9208699999999999  0.11287  0.29539  1.0000
  O   O5        1.0  0.9788899999999999  0.32438999999999996  0.35386  1.0000
  O   O6        1.0  0.63932  0.2685  0.4179300000000001  1.0000
  O   O7        1.0  0.8107799999999998  0.67441  0.17818  1.0000
  O   O8        1.0  0.88259  0.63188  0.40481  1.0000
  O   O9        1.0  0.54974  0.6061  0.35516  1.0000
  O   O10       1.0  0.07911999999999994  0.8871300000000001  0.70461  1.0000
  O   O11       1.0  0.021110000000000025  0.6756099999999999  0.64613  1.0000
  O   O12       1.0  0.3606699999999999  0.7315000000000002  0.58207  1.0000
