data_image0
_chemical_formula_structural       Zn4H24C48O16
_chemical_formula_sum              "Zn4 H24 C48 O16"
_cell_length_a       5.59659
_cell_length_b       12.26558
_cell_length_c       17.400629999999996
_cell_angle_alpha    90.25294
_cell_angle_beta     89.29570999999999
_cell_angle_gamma    89.77061

_symmetry_space_group_name_H-M    'P 1'
_symmetry_Int_Tables_number       1

loop_
  _symmetry_equiv_pos_as_xyz
  'x,y,z'

loop_
  _atom_site_type_symbol
  _atom_site_label
  _atom_site_symmetry_multiplicity
  _atom_site_fract_x
  _atom_site_fract_y
  _atom_site_fract_z
  _atom_site_occupancy
  Zn  Zn1       1.0  0.49998  0.4999999999999999  2e-05  1.0000
  Zn  Zn2       1.0  0.49986  0.99995  0.50003  1.0000
  Zn  Zn3       1.0  0.9999100000000001  0.49998  2e-05  1.0000
  Zn  Zn4       1.0  0.9993300000000002  0.00026000000000000036  0.49999000000000005  1.0000
  H   H1        1.0  0.59288  0.24221  0.8202  1.0000
  H   H2        1.0  0.5818900000000002  0.14777  0.69314  1.0000
  H   H3        1.0  0.96218  0.5128199999999999  0.80784  1.0000
  H   H4        1.0  0.70397  0.58015  0.70448  1.0000
  H   H5        1.0  0.67759  0.47841999999999996  0.58045  1.0000
  H   H6        1.0  0.9220600000000002  0.30937  0.56002  1.0000
  H   H7        1.0  0.41581000000000007  0.741  0.67822  1.0000
  H   H8        1.0  0.41637  0.6561099999999999  0.81075  1.0000
  H   H9        1.0  0.043940000000000014  0.00908  0.69148  1.0000
  H   H10       1.0  0.29999  0.07942  0.79441  1.0000
  H   H11       1.0  0.32982  0.98177  0.91943  1.0000
  H   H12       1.0  0.07956000000000002  0.81781  0.9428399999999999  1.0000
  H   H13       1.0  0.4071  0.75779  0.1798  1.0000
  H   H14       1.0  0.41805  0.85226  0.30686  1.0000
  H   H15       1.0  0.03782  0.4872099999999999  0.19219  1.0000
  H   H16       1.0  0.29593  0.41989  0.29552  1.0000
  H   H17       1.0  0.32237000000000005  0.5215799999999999  0.41954  1.0000
  H   H18       1.0  0.07794  0.6906499999999998  0.44  1.0000
  H   H19       1.0  0.5841400000000001  0.25899  0.32177  1.0000
  H   H20       1.0  0.58356  0.3438599999999999  0.18925  1.0000
  H   H21       1.0  0.95606  0.9909099999999997  0.30852  1.0000
  H   H22       1.0  0.6999600000000002  0.9205599999999998  0.20559  1.0000
  H   H23       1.0  0.67016  0.01823  0.08056  1.0000
  H   H24       1.0  0.9204300000000001  0.18218  0.05717  1.0000
  C   C1        1.0  0.29553  0.3493  0.79502  1.0000
  C   C2        1.0  0.10051  0.32084  0.66993  1.0000
  C   C3        1.0  0.11218000000000003  0.37965  0.74214  1.0000
  C   C4        1.0  0.4525100000000001  0.21206  0.70701  1.0000
  C   C5        1.0  0.26332  0.16382999999999998  0.58642  1.0000
  C   C6        1.0  0.30835  0.40872  0.86998  1.0000
  C   C7        1.0  0.27371000000000006  0.23721999999999993  0.65527  1.0000
  C   C8        1.0  0.9335500000000001  0.3547799999999999  0.61382  1.0000
  C   C9        1.0  0.4585400000000001  0.26615  0.7787500000000002  1.0000
  C   C10       1.0  0.95675  0.46961999999999987  0.75325  1.0000
  C   C11       1.0  0.7961500000000002  0.4482099999999999  0.62495  1.0000
  C   C12       1.0  0.80988  0.50649  0.69495  1.0000
  C   C13       1.0  0.71345  0.8483799999999999  0.70429  1.0000
  C   C14       1.0  0.89602  0.82501  0.83311  1.0000
  C   C15       1.0  0.8862900000000001  0.8810299999999999  0.7598  1.0000
  C   C16       1.0  0.54457  0.7189499999999999  0.79449  1.0000
  C   C17       1.0  0.7253900000000001  0.67037  0.91706  1.0000
  C   C18       1.0  0.7224100000000001  0.9026099999999999  0.62651  1.0000
  C   C19       1.0  0.7198300000000001  0.7435299999999998  0.84764  1.0000
  C   C20       1.0  0.0666  0.8604899999999998  0.8883  1.0000
  C   C21       1.0  0.54335  0.7689799999999998  0.7210000000000001  1.0000
  C   C22       1.0  0.044350000000000014  0.96909  0.74722  1.0000
  C   C23       1.0  0.20765  0.9516199999999998  0.8754600000000002  1.0000
  C   C24       1.0  0.19364000000000006  0.00692  0.80462  1.0000
  C   C25       1.0  0.7045  0.65069  0.20498  1.0000
  C   C26       1.0  0.89949  0.6790999999999999  0.33004  1.0000
  C   C27       1.0  0.8878100000000001  0.6203199999999999  0.25783  1.0000
  C   C28       1.0  0.54743  0.7879399999999999  0.29297  1.0000
  C   C29       1.0  0.7370600000000002  0.83623  0.4135  1.0000
  C   C30       1.0  0.6916100000000001  0.59128  0.13001  1.0000
  C   C31       1.0  0.72628  0.76277  0.34476  1.0000
  C   C32       1.0  0.06647000000000002  0.6452099999999998  0.38618  1.0000
  C   C33       1.0  0.5414900000000001  0.7338199999999999  0.22123000000000004  1.0000
  C   C34       1.0  0.04326  0.53037  0.24676  1.0000
  C   C35       1.0  0.20388  0.5517499999999999  0.37502  1.0000
  C   C36       1.0  0.19008  0.49351999999999996  0.30502  1.0000
  C   C37       1.0  0.28659  0.15163  0.2957  1.0000
  C   C38       1.0  0.10399  0.17503999999999997  0.16687000000000002  1.0000
  C   C39       1.0  0.11372000000000003  0.11898999999999997  0.24014999999999997  1.0000
  C   C40       1.0  0.45539  0.28104  0.2055  1.0000
  C   C41       1.0  0.2745  0.3296499999999999  0.08297  1.0000
  C   C42       1.0  0.27734  0.09740999999999998  0.37351  1.0000
  C   C43       1.0  0.28019  0.25648  0.15239  1.0000
  C   C44       1.0  0.93342  0.13952  0.11171  1.0000
  C   C45       1.0  0.45666  0.23103  0.27899  1.0000
  C   C46       1.0  0.9557  0.030919999999999993  0.25278  1.0000
  C   C47       1.0  0.7923600000000001  0.04839999999999999  0.12452  1.0000
  C   C48       1.0  0.8063  0.99308  0.19537  1.0000
  O   O1        1.0  0.11526000000000003  0.41952  0.908  1.0000
  O   O2        1.0  0.5094200000000001  0.44535  0.8917  1.0000
  O   O3        1.0  0.4297200000000001  0.16449999999999998  0.53717  1.0000
  O   O4        1.0  0.08781  0.09522999999999997  0.587  1.0000
  O   O5        1.0  0.9054400000000002  0.89047  0.58382  1.0000
  O   O6        1.0  0.5407  0.96117  0.60871  1.0000
  O   O7        1.0  0.54761  0.66232  0.9620099999999999  1.0000
  O   O8        1.0  0.9143000000000002  0.61151  0.9213300000000001  1.0000
  O   O9        1.0  0.88467  0.5804799999999999  0.09201  1.0000
  O   O10       1.0  0.49065000000000003  0.55466  0.1083  1.0000
  O   O11       1.0  0.57  0.83544  0.4628900000000001  1.0000
  O   O12       1.0  0.9119600000000001  0.9048099999999999  0.41299  1.0000
  O   O13       1.0  0.09455  0.10957999999999998  0.41615  1.0000
  O   O14       1.0  0.45929  0.03880999999999999  0.3913  1.0000
  O   O15       1.0  0.45237  0.33768  0.03799  1.0000
  O   O16       1.0  0.08577000000000003  0.38847  0.07865  1.0000
