data_image0
_chemical_formula_structural       MnH14C20N6
_chemical_formula_sum              "Mn1 H14 C20 N6"
_cell_length_a       4.45821
_cell_length_b       9.52105
_cell_length_c       15.02946
_cell_angle_alpha    112.85707
_cell_angle_beta     99.23188
_cell_angle_gamma    87.42979999999999

_symmetry_space_group_name_H-M    'P 1'
_symmetry_Int_Tables_number       1

loop_
  _symmetry_equiv_pos_as_xyz
  'x,y,z'

loop_
  _atom_site_type_symbol
  _atom_site_label
  _atom_site_symmetry_multiplicity
  _atom_site_fract_x
  _atom_site_fract_y
  _atom_site_fract_z
  _atom_site_occupancy
  Mn  Mn1       1.0  0.00013999999999999996  2.9999999999999984e-05  0.00011999999999999999  1.0000
  H   H1        1.0  0.8468400000000001  0.48508  0.49428999999999995  1.0000
  H   H2        1.0  0.50377  0.39807000000000003  0.89558  1.0000
  H   H3        1.0  0.25373999999999997  0.37241000000000013  0.10642999999999997  1.0000
  H   H4        1.0  0.4109999999999999  0.9382699999999998  0.8041799999999998  1.0000
  H   H5        1.0  0.28575000000000006  0.76842  0.62867  1.0000
  H   H6        1.0  0.13515  0.54502  0.66032  1.0000
  H   H7        1.0  0.22571999999999998  0.72277  0.8335099999999998  1.0000
  H   H8        1.0  0.15324000000000002  0.5148199999999999  0.5058599999999999  1.0000
  H   H9        1.0  0.49620000000000003  0.60188  0.10446999999999998  1.0000
  H   H10       1.0  0.7460999999999998  0.6275999999999999  0.8936799999999998  1.0000
  H   H11       1.0  0.58886  0.06161999999999998  0.19594999999999999  1.0000
  H   H12       1.0  0.7143  0.23151000000000002  0.37144  1.0000
  H   H13       1.0  0.86498  0.455  0.33982  1.0000
  H   H14       1.0  0.7743999999999999  0.27731  0.16661999999999996  1.0000
  C   C1        1.0  0.48181999999999997  0.1771999999999999  0.9691599999999998  1.0000
  C   C2        1.0  0.8642100000000004  0.3709400000000001  0.002459999999999999  1.0000
  C   C3        1.0  0.7083799999999999  0.44922  0.9463399999999997  1.0000
  C   C4        1.0  0.14731  0.4262  0.057939999999999985  1.0000
  C   C5        1.0  0.5660400000000001  0.84869  0.7697  1.0000
  C   C6        1.0  0.4935299999999998  0.7504400000000001  0.6714699999999998  1.0000
  C   C7        1.0  0.6924199999999999  0.6336899999999999  0.6294599999999998  1.0000
  C   C8        1.0  0.6341  0.5266600000000001  0.52768  1.0000
  C   C9        1.0  0.9617  0.62681  0.6891999999999998  1.0000
  C   C10       1.0  0.01930999999999989  0.7297299999999999  0.7861099999999998  1.0000
  C   C11       1.0  0.51808  0.8227700000000001  0.030969999999999994  1.0000
  C   C12       1.0  0.1355599999999999  0.6291400000000001  0.9976999999999998  1.0000
  C   C13       1.0  0.29141  0.55082  0.053789999999999984  1.0000
  C   C14       1.0  0.8524600000000001  0.57388  0.9422099999999998  1.0000
  C   C15       1.0  0.43391  0.15124  0.23043  1.0000
  C   C16       1.0  0.5065  0.24951000000000004  0.32865  1.0000
  C   C17       1.0  0.30764  0.36627000000000004  0.37068  1.0000
  C   C18       1.0  0.3659899999999999  0.4732700000000001  0.4724599999999999  1.0000
  C   C19       1.0  0.03837999999999998  0.37319  0.31094999999999995  1.0000
  C   C20       1.0  0.98071  0.2702800000000001  0.21402999999999994  1.0000
  N   N1        1.0  0.27613999999999983  0.0848799999999998  0.9372899999999997  1.0000
  N   N2        1.0  0.74404  0.24074  0.005239999999999999  1.0000
  N   N3        1.0  0.8214099999999996  0.8377899999999998  0.8279999999999997  1.0000
  N   N4        1.0  0.7238  0.9151900000000001  0.06283  1.0000
  N   N5        1.0  0.25587  0.75934  0.99495  1.0000
  N   N6        1.0  0.17853999999999998  0.16217  0.17214999999999997  1.0000
