data_image0
_chemical_formula_structural       Zn4H14C36O24
_chemical_formula_sum              "Zn4 H14 C36 O24"
_cell_length_a       7.57597
_cell_length_b       8.95881
_cell_length_c       17.28196
_cell_angle_alpha    90.0
_cell_angle_beta     90.0
_cell_angle_gamma    96.58448999999999

_symmetry_space_group_name_H-M    'P 1'
_symmetry_Int_Tables_number       1

loop_
  _symmetry_equiv_pos_as_xyz
  'x,y,z'

loop_
  _atom_site_type_symbol
  _atom_site_label
  _atom_site_symmetry_multiplicity
  _atom_site_fract_x
  _atom_site_fract_y
  _atom_site_fract_z
  _atom_site_occupancy
  Zn  Zn1       1.0  0.62062  0.72891  0.67475  1.0000
  Zn  Zn2       1.0  0.2183  0.52431  0.74355  1.0000
  Zn  Zn3       1.0  0.37939000000000006  0.27108  0.17474999999999996  1.0000
  Zn  Zn4       1.0  0.7817  0.47569  0.24355  1.0000
  H   H1        1.0  0.7036799999999998  0.82653  0.13268999999999995  1.0000
  H   H2        1.0  0.73437  0.91867  0.8874299999999998  1.0000
  H   H3        1.0  0.024719999999999995  0.45521  0.44902  1.0000
  H   H4        1.0  0.8392599999999998  0.19063  0.6478899999999999  1.0000
  H   H5        1.0  0.73447  0.01584  0.41803  1.0000
  H   H6        1.0  0.4352699999999999  0.51222  0.9703999999999999  1.0000
  H   H7        1.0  0.9641399999999998  0.20753999999999997  0.98975  1.0000
  H   H8        1.0  0.2963299999999998  0.17347  0.63269  1.0000
  H   H9        1.0  0.26563  0.08132  0.38743  1.0000
  H   H10       1.0  0.9752899999999998  0.54479  0.9490199999999999  1.0000
  H   H11       1.0  0.16074  0.80937  0.14789  1.0000
  H   H12       1.0  0.2655299999999999  0.98416  0.91803  1.0000
  H   H13       1.0  0.56473  0.48777999999999994  0.47039999999999993  1.0000
  H   H14       1.0  0.03587  0.79245  0.48974999999999996  1.0000
  C   C1        1.0  0.5619399999999998  0.6590099999999999  0.057949999999999995  1.0000
  C   C2        1.0  0.66688  0.79473  0.07341999999999997  1.0000
  C   C3        1.0  0.87561  0.25734  0.33892999999999995  1.0000
  C   C4        1.0  0.5788  0.71195  0.92053  1.0000
  C   C5        1.0  0.68524  0.84745  0.9355799999999999  1.0000
  C   C6        1.0  0.94136  0.33533  0.55359  1.0000
  C   C7        1.0  0.7734299999999997  0.09092  0.5360999999999999  1.0000
  C   C8        1.0  0.9528599999999998  0.35366  0.47322  1.0000
  C   C9        1.0  0.8477599999999997  0.20523  0.58543  1.0000
  C   C10       1.0  0.7898299999999998  0.1065  0.45589  1.0000
  C   C11       1.0  0.6866699999999996  0.9460799999999999  0.56793  1.0000
  C   C12       1.0  0.7281799999999997  0.88945  0.01215  1.0000
  C   C13       1.0  0.5158  0.6184  0.98167  1.0000
  C   C14       1.0  0.8778999999999998  0.23862  0.42432999999999993  1.0000
  C   C15       1.0  0.5258099999999998  0.66885  0.83952  1.0000
  C   C16       1.0  0.04258999999999999  0.4487  0.6060099999999998  1.0000
  C   C17       1.0  0.8436599999999997  0.03065  0.03173  1.0000
  C   C18       1.0  0.51034  0.55169  0.12175999999999998  1.0000
  C   C19       1.0  0.43805999999999995  0.34098  0.55795  1.0000
  C   C20       1.0  0.33312999999999987  0.20527  0.57342  1.0000
  C   C21       1.0  0.1244  0.74265  0.83893  1.0000
  C   C22       1.0  0.42120999999999986  0.28805  0.42053  1.0000
  C   C23       1.0  0.3147599999999999  0.15255  0.43558  1.0000
  C   C24       1.0  0.05863999999999998  0.66467  0.05359  1.0000
  C   C25       1.0  0.22656999999999994  0.90908  0.03609  1.0000
  C   C26       1.0  0.047149999999999984  0.64634  0.97322  1.0000
  C   C27       1.0  0.15225  0.79477  0.08543  1.0000
  C   C28       1.0  0.21017  0.8935  0.95589  1.0000
  C   C29       1.0  0.31334  0.05391  0.06793  1.0000
  C   C30       1.0  0.2718199999999999  0.11055  0.51215  1.0000
  C   C31       1.0  0.4841999999999999  0.38159999999999994  0.48167  1.0000
  C   C32       1.0  0.12210999999999997  0.76138  0.9243299999999999  1.0000
  C   C33       1.0  0.4741899999999999  0.33115  0.33952  1.0000
  C   C34       1.0  0.9574099999999998  0.5513  0.10599999999999998  1.0000
  C   C35       1.0  0.15633999999999998  0.9693499999999999  0.53173  1.0000
  C   C36       1.0  0.48967  0.4483  0.62176  1.0000
  O   O1        1.0  0.03509  0.41466  0.67911  1.0000
  O   O2        1.0  0.39379000000000003  0.5688  0.83157  1.0000
  O   O3        1.0  0.3910599999999999  0.4410299999999999  0.10630999999999997  1.0000
  O   O4        1.0  0.7856  0.16269  0.29704999999999987  1.0000
  O   O5        1.0  0.5861299999999998  0.57012  0.18716  1.0000
  O   O6        1.0  0.61601  0.74039  0.7857299999999998  1.0000
  O   O7        1.0  0.13253  0.56249  0.57839  1.0000
  O   O8        1.0  0.89526  0.11667  0.9689799999999998  1.0000
  O   O9        1.0  0.89142  0.06617  0.09752999999999998  1.0000
  O   O10       1.0  0.6781299999999998  0.9335799999999999  0.64332  1.0000
  O   O11       1.0  0.63183  0.84257  0.52268  1.0000
  O   O12       1.0  0.9562899999999999  0.38005  0.30898  1.0000
  O   O13       1.0  0.96491  0.58534  0.17909999999999998  1.0000
  O   O14       1.0  0.60621  0.4312  0.33157  1.0000
  O   O15       1.0  0.60894  0.55897  0.60631  1.0000
  O   O16       1.0  0.21439999999999995  0.8373  0.79706  1.0000
  O   O17       1.0  0.41387  0.42987  0.6871599999999998  1.0000
  O   O18       1.0  0.38399  0.25961  0.28572  1.0000
  O   O19       1.0  0.8674799999999998  0.4375  0.07838  1.0000
  O   O20       1.0  0.10474999999999998  0.88332  0.46897999999999995  1.0000
  O   O21       1.0  0.10857999999999995  0.9338299999999999  0.59754  1.0000
  O   O22       1.0  0.32187  0.06641999999999999  0.14332  1.0000
  O   O23       1.0  0.36817  0.15742  0.02268  1.0000
  O   O24       1.0  0.04372  0.61995  0.80898  1.0000
