data_image0
_chemical_formula_structural       Zn4H8C20N40
_chemical_formula_sum              "Zn4 H8 C20 N40"
_cell_length_a       8.70048
_cell_length_b       8.85834
_cell_length_c       15.62214
_cell_angle_alpha    89.9861
_cell_angle_beta     90.0
_cell_angle_gamma    90.0

_symmetry_space_group_name_H-M    'P 1'
_symmetry_Int_Tables_number       1

loop_
  _symmetry_equiv_pos_as_xyz
  'x,y,z'

loop_
  _atom_site_type_symbol
  _atom_site_label
  _atom_site_symmetry_multiplicity
  _atom_site_fract_x
  _atom_site_fract_y
  _atom_site_fract_z
  _atom_site_occupancy
  Zn  Zn1       1.0  0.45188999999999996  0.25423999999999997  0.8747499999999998  1.0000
  Zn  Zn2       1.0  0.04788  0.74574  0.37464  1.0000
  Zn  Zn3       1.0  0.5478799999999999  0.7542499999999998  0.62536  1.0000
  Zn  Zn4       1.0  0.9518900000000001  0.24574999999999997  0.12525  1.0000
  H   H1        1.0  0.03775  0.16911  0.83534  1.0000
  H   H2        1.0  0.47208  0.48706  0.29784  1.0000
  H   H3        1.0  0.46247  0.8309899999999998  0.3353  1.0000
  H   H4        1.0  0.02784  0.5129  0.79797  1.0000
  H   H5        1.0  0.9624699999999999  0.66901  0.6647  1.0000
  H   H6        1.0  0.52783  0.9870899999999999  0.20203  1.0000
  H   H7        1.0  0.53775  0.33089  0.16466  1.0000
  H   H8        1.0  0.97208  0.01293  0.70216  1.0000
  C   C1        1.0  0.12117  0.11857999999999999  0.79263  1.0000
  C   C2        1.0  0.217  0.9898299999999999  0.68227  1.0000
  C   C3        1.0  0.21746  0.90799  0.60274  1.0000
  C   C4        1.0  0.33505  0.04383999999999999  0.73392  1.0000
  C   C5        1.0  0.50138  0.03864  0.73134  1.0000
  C   C6        1.0  0.37893  0.8814799999999998  0.29262  1.0000
  C   C7        1.0  0.28285  0.01013  0.18226  1.0000
  C   C8        1.0  0.28235  0.0921  0.10276  1.0000
  C   C9        1.0  0.16493  0.9561199999999999  0.23399999999999996  1.0000
  C   C10       1.0  0.99859  0.9612699999999998  0.23145999999999994  1.0000
  C   C11       1.0  0.87893  0.6185099999999999  0.70738  1.0000
  C   C12       1.0  0.78285  0.48987  0.81774  1.0000
  C   C13       1.0  0.78235  0.40788999999999986  0.8972399999999998  1.0000
  C   C14       1.0  0.6649199999999998  0.5438799999999998  0.76599  1.0000
  C   C15       1.0  0.4985899999999999  0.53872  0.76854  1.0000
  C   C16       1.0  0.6211699999999999  0.38142  0.20737  1.0000
  C   C17       1.0  0.7169999999999999  0.51017  0.31773  1.0000
  C   C18       1.0  0.71746  0.59201  0.39726  1.0000
  C   C19       1.0  0.83505  0.45615999999999995  0.26607999999999987  1.0000
  C   C20       1.0  0.00138  0.46136  0.2686599999999999  1.0000
  N   N1        1.0  0.27282  0.12406999999999999  0.80174  1.0000
  N   N2        1.0  0.08294  0.03914999999999999  0.72115  1.0000
  N   N3        1.0  0.09491  0.8952699999999998  0.5510599999999998  1.0000
  N   N4        1.0  0.14831  0.8118799999999998  0.48548  1.0000
  N   N5        1.0  0.29522  0.7756699999999997  0.49517  1.0000
  N   N6        1.0  0.34146  0.8353199999999997  0.5693799999999998  1.0000
  N   N7        1.0  0.58004  0.12998999999999994  0.78462  1.0000
  N   N8        1.0  0.73056  0.09951999999999997  0.77271  1.0000
  N   N9        1.0  0.74343  0.99294  0.71471  1.0000
  N   N10       1.0  0.60037  0.95202  0.68709  1.0000
  N   N11       1.0  0.2273  0.8759999999999999  0.30186  1.0000
  N   N12       1.0  0.417  0.9608799999999998  0.22106999999999993  1.0000
  N   N13       1.0  0.40489  0.10469  0.05107  1.0000
  N   N14       1.0  0.35162999999999994  0.18836  0.98557  1.0000
  N   N15       1.0  0.20482  0.22489  0.99529  1.0000
  N   N16       1.0  0.15851  0.16516  0.06947999999999997  1.0000
  N   N17       1.0  0.92001  0.8701999999999999  0.2849599999999999  1.0000
  N   N18       1.0  0.76947  0.9004599999999998  0.27300999999999986  1.0000
  N   N19       1.0  0.75649  0.006709999999999998  0.21480999999999995  1.0000
  N   N20       1.0  0.89952  0.04758  0.18703  1.0000
  N   N21       1.0  0.7273  0.62399  0.69814  1.0000
  N   N22       1.0  0.917  0.53911  0.77893  1.0000
  N   N23       1.0  0.9048899999999999  0.3953  0.94893  1.0000
  N   N24       1.0  0.85163  0.31164  0.014429999999999997  1.0000
  N   N25       1.0  0.70482  0.2751  0.00471  1.0000
  N   N26       1.0  0.65851  0.33484  0.9305199999999998  1.0000
  N   N27       1.0  0.42001  0.6298  0.71504  1.0000
  N   N28       1.0  0.26947  0.59954  0.72699  1.0000
  N   N29       1.0  0.25649  0.49328999999999995  0.78519  1.0000
  N   N30       1.0  0.39952  0.45242  0.81297  1.0000
  N   N31       1.0  0.77282  0.37593  0.19826  1.0000
  N   N32       1.0  0.58294  0.4608499999999999  0.2788499999999999  1.0000
  N   N33       1.0  0.59491  0.6047199999999998  0.4489399999999999  1.0000
  N   N34       1.0  0.64831  0.68812  0.5145199999999998  1.0000
  N   N35       1.0  0.79522  0.72433  0.50483  1.0000
  N   N36       1.0  0.84146  0.66468  0.4306099999999999  1.0000
  N   N37       1.0  0.08004  0.3700099999999999  0.21537999999999993  1.0000
  N   N38       1.0  0.23056000000000001  0.40047999999999995  0.22728999999999994  1.0000
  N   N39       1.0  0.24343000000000004  0.5070599999999997  0.2852899999999999  1.0000
  N   N40       1.0  0.10038  0.54797  0.31291  1.0000
