data_image0
_chemical_formula_structural       La2Gd2H24C24O30
_chemical_formula_sum              "La2 Gd2 H24 C24 O30"
_cell_length_a       9.25934
_cell_length_b       9.25935
_cell_length_c       17.34645
_cell_angle_alpha    90.0
_cell_angle_beta     90.0
_cell_angle_gamma    120.03993

_space_group_name_H-M_alt    "P 1"
_space_group_IT_number       1

loop_
  _space_group_symop_operation_xyz
  'x, y, z'

loop_
  _atom_site_type_symbol
  _atom_site_label
  _atom_site_symmetry_multiplicity
  _atom_site_fract_x
  _atom_site_fract_y
  _atom_site_fract_z
  _atom_site_occupancy
  La  La1       1.0  0.6668099999999998  0.3332699999999999  0.25  1.0000
  La  La2       1.0  0.33326999999999984  0.6668099999999998  0.75  1.0000
  Gd  Gd1       1.0  9.999999999999997e-06  1e-05  0.0  1.0000
  Gd  Gd2       1.0  9.999999999999997e-06  1e-05  0.5  1.0000
  H   H1        1.0  0.4282  0.010309999999999996  0.08953  1.0000
  H   H2        1.0  0.51612  0.18284  0.02482  1.0000
  H   H3        1.0  0.9898499999999999  0.41818  0.08938  1.0000
  H   H4        1.0  0.81744  0.33312  0.02465  1.0000
  H   H5        1.0  0.5817299999999999  0.5712399999999997  0.08945  1.0000
  H   H6        1.0  0.6665  0.48391  0.02477  1.0000
  H   H7        1.0  0.4282  0.010309999999999996  0.41046  1.0000
  H   H8        1.0  0.51612  0.18284  0.47517999999999994  1.0000
  H   H9        1.0  0.9898499999999999  0.41818  0.41061  1.0000
  H   H10       1.0  0.81744  0.33312  0.47535  1.0000
  H   H11       1.0  0.5817299999999999  0.5712399999999997  0.41055  1.0000
  H   H12       1.0  0.6665  0.48391  0.47523000000000004  1.0000
  H   H13       1.0  0.010309999999999993  0.4282  0.91046  1.0000
  H   H14       1.0  0.1828399999999999  0.5161099999999997  0.9751800000000002  1.0000
  H   H15       1.0  0.4181699999999998  0.9898499999999998  0.91061  1.0000
  H   H16       1.0  0.33311999999999986  0.8174399999999998  0.97535  1.0000
  H   H17       1.0  0.5712399999999999  0.58173  0.91054  1.0000
  H   H18       1.0  0.4839  0.6665  0.9752300000000002  1.0000
  H   H19       1.0  0.010309999999999993  0.4282  0.58953  1.0000
  H   H20       1.0  0.1828399999999999  0.5161099999999997  0.52482  1.0000
  H   H21       1.0  0.4181699999999998  0.9898499999999998  0.58938  1.0000
  H   H22       1.0  0.33311999999999986  0.8174399999999998  0.52465  1.0000
  H   H23       1.0  0.5712399999999999  0.58173  0.58945  1.0000
  H   H24       1.0  0.4839  0.6665  0.52477  1.0000
  C   C1        1.0  0.34392999999999996  0.18763999999999995  0.10687  1.0000
  C   C2        1.0  0.40036  0.09273999999999998  0.05465  1.0000
  C   C3        1.0  0.8126999999999999  0.15628  0.10690000000000001  1.0000
  C   C4        1.0  0.9074799999999998  0.30764999999999987  0.054580000000000004  1.0000
  C   C5        1.0  0.8435899999999998  0.6561299999999998  0.10687  1.0000
  C   C6        1.0  0.69223  0.5996  0.05462  1.0000
  C   C7        1.0  0.34392999999999996  0.18763999999999995  0.39312  1.0000
  C   C8        1.0  0.40036  0.09273999999999998  0.44535  1.0000
  C   C9        1.0  0.8126999999999999  0.15628  0.3931  1.0000
  C   C10       1.0  0.9074799999999998  0.30764999999999987  0.44542  1.0000
  C   C11       1.0  0.8435899999999998  0.6561299999999998  0.39313  1.0000
  C   C12       1.0  0.69223  0.5996  0.44538  1.0000
  C   C13       1.0  0.18763999999999995  0.3439299999999999  0.89312  1.0000
  C   C14       1.0  0.09273999999999998  0.40036  0.94535  1.0000
  C   C15       1.0  0.1562799999999999  0.8126999999999998  0.8931  1.0000
  C   C16       1.0  0.30765000000000003  0.90748  0.94541  1.0000
  C   C17       1.0  0.65612  0.84359  0.89313  1.0000
  C   C18       1.0  0.5996  0.69223  0.94538  1.0000
  C   C19       1.0  0.18763999999999995  0.3439299999999999  0.60687  1.0000
  C   C20       1.0  0.09273999999999998  0.40036  0.55465  1.0000
  C   C21       1.0  0.1562799999999999  0.8126999999999998  0.6069  1.0000
  C   C22       1.0  0.30765000000000003  0.90748  0.55458  1.0000
  C   C23       1.0  0.65612  0.84359  0.60687  1.0000
  C   C24       1.0  0.5996  0.69223  0.55462  1.0000
  O   O1        1.0  0.20612  0.17884  0.09354  1.0000
  O   O2        1.0  0.4452  0.27396  0.16032  1.0000
  O   O3        1.0  0.8212799999999998  0.02718  0.09354  1.0000
  O   O4        1.0  0.72673  0.1713  0.16043  1.0000
  O   O5        1.0  0.9728199999999999  0.79398  0.09352  1.0000
  O   O6        1.0  0.8285899999999998  0.55501  0.16035  1.0000
  O   O7        1.0  0.20612  0.17884  0.40646  1.0000
  O   O8        1.0  0.4452  0.27396  0.33968  1.0000
  O   O9        1.0  0.8212799999999998  0.02718  0.40646  1.0000
  O   O10       1.0  0.72673  0.1713  0.33957  1.0000
  O   O11       1.0  0.9728199999999999  0.79398  0.40648  1.0000
  O   O12       1.0  0.8285899999999998  0.55501  0.33965  1.0000
  O   O13       1.0  0.17884  0.20612  0.90645  1.0000
  O   O14       1.0  0.2739599999999999  0.4452  0.83968  1.0000
  O   O15       1.0  0.027179999999999878  0.8212799999999998  0.90646  1.0000
  O   O16       1.0  0.17128999999999991  0.7267299999999998  0.83957  1.0000
  O   O17       1.0  0.7939799999999999  0.97282  0.9064800000000001  1.0000
  O   O18       1.0  0.5550099999999999  0.82859  0.83964  1.0000
  O   O19       1.0  0.17884  0.20612  0.59354  1.0000
  O   O20       1.0  0.2739599999999999  0.4452  0.66031  1.0000
  O   O21       1.0  0.027179999999999878  0.8212799999999998  0.59353  1.0000
  O   O22       1.0  0.17128999999999991  0.7267299999999998  0.66043  1.0000
  O   O23       1.0  0.7939799999999999  0.97282  0.59351  1.0000
  O   O24       1.0  0.5550099999999999  0.82859  0.66035  1.0000
  O   O25       1.0  0.27113  0.00018  0.0  1.0000
  O   O26       1.0  0.0001800000000000141  0.27113  0.0  1.0000
  O   O27       1.0  0.72885  0.72885  0.0  1.0000
  O   O28       1.0  0.27113  0.00018  0.5  1.0000
  O   O29       1.0  0.0001800000000000141  0.27113  0.49999000000000005  1.0000
  O   O30       1.0  0.72885  0.72885  0.5  1.0000
