data_image0
_chemical_formula_structural       Zn4H24C32O32
_chemical_formula_sum              "Zn4 H24 C32 O32"
_cell_length_a       9.50431
_cell_length_b       14.518049999999999
_cell_length_c       12.52031
_cell_angle_alpha    89.6217
_cell_angle_beta     89.59631
_cell_angle_gamma    90.86749

_symmetry_space_group_name_H-M    'P 1'
_symmetry_Int_Tables_number       1

loop_
  _symmetry_equiv_pos_as_xyz
  'x,y,z'

loop_
  _atom_site_type_symbol
  _atom_site_label
  _atom_site_symmetry_multiplicity
  _atom_site_fract_x
  _atom_site_fract_y
  _atom_site_fract_z
  _atom_site_occupancy
  Zn  Zn1       1.0  0.7537  0.25158  0.21966999999999995  1.0000
  Zn  Zn2       1.0  0.74764  0.24833  0.7372199999999998  1.0000
  Zn  Zn3       1.0  0.24605  0.74833  0.77662  1.0000
  Zn  Zn4       1.0  0.24673999999999996  0.75584  0.26219  1.0000
  H   H1        1.0  0.42316  0.45861  0.20236  1.0000
  H   H2        1.0  0.38291  0.3834  0.09684999999999998  1.0000
  H   H3        1.0  0.5960699999999999  0.54828  0.08126  1.0000
  H   H4        1.0  0.01175  0.49781  0.70967  1.0000
  H   H5        1.0  0.10812999999999999  0.4176900000000001  0.6357299999999999  1.0000
  H   H6        1.0  0.8556499999999999  0.52587  0.54197  1.0000
  H   H7        1.0  0.08119  0.04249  0.19782  1.0000
  H   H8        1.0  0.11767  0.11706  0.08941999999999997  1.0000
  H   H9        1.0  0.9058999999999999  0.9513800000000002  0.08307999999999999  1.0000
  H   H10       1.0  0.48242999999999997  0.99957  0.7142199999999999  1.0000
  H   H11       1.0  0.38787  0.08108000000000004  0.6404199999999998  1.0000
  H   H12       1.0  0.63998  0.97259  0.5454499999999999  1.0000
  H   H13       1.0  0.57562  0.54224  0.79952  1.0000
  H   H14       1.0  0.61451  0.61728  0.90548  1.0000
  H   H15       1.0  0.40204999999999996  0.45195000000000013  0.92013  1.0000
  H   H16       1.0  0.99158  0.50208  0.28526  1.0000
  H   H17       1.0  0.89313  0.58088  0.35964  1.0000
  H   H18       1.0  0.14559000000000002  0.47294  0.45346999999999993  1.0000
  H   H19       1.0  0.91855  0.95748  0.8005099999999998  1.0000
  H   H20       1.0  0.8828  0.8827100000000002  0.90877  1.0000
  H   H21       1.0  0.09391  0.04879  0.9152899999999998  1.0000
  H   H22       1.0  0.51278  0.003370000000000001  0.29001999999999994  1.0000
  H   H23       1.0  0.60615  0.92097  0.36351  1.0000
  H   H24       1.0  0.35256999999999994  0.028800000000000006  0.45731999999999995  1.0000
  C   C1        1.0  0.58101  0.36198000000000013  0.16886999999999994  1.0000
  C   C2        1.0  0.46792999999999996  0.4263500000000001  0.13029  1.0000
  C   C3        1.0  0.5199400000000001  0.49789000000000005  0.05164  1.0000
  C   C4        1.0  0.77763  0.40074  0.9297  1.0000
  C   C5        1.0  0.90008  0.37404  0.67966  1.0000
  C   C6        1.0  0.003620000000000001  0.44843  0.64308  1.0000
  C   C7        1.0  0.9602499999999999  0.49614  0.5418099999999999  1.0000
  C   C8        1.0  0.92755  0.29234  0.43831999999999993  1.0000
  C   C9        1.0  0.92172  0.13833  0.1663  1.0000
  C   C10       1.0  0.03406  0.07398  0.1262  1.0000
  C   C11       1.0  0.9805199999999998  0.00206  0.05052  1.0000
  C   C12       1.0  0.71951  0.10173  0.9327799999999999  1.0000
  C   C13       1.0  0.59557  0.12332  0.68266  1.0000
  C   C14       1.0  0.49178  0.04948000000000002  0.64739  1.0000
  C   C15       1.0  0.5357300000000002  0.00286  0.54583  1.0000
  C   C16       1.0  0.5728099999999999  0.20436000000000004  0.4401299999999999  1.0000
  C   C17       1.0  0.41697  0.63817  0.8320099999999998  1.0000
  C   C18       1.0  0.53007  0.57415  0.8714999999999998  1.0000
  C   C19       1.0  0.4782199999999999  0.50229  0.9497899999999999  1.0000
  C   C20       1.0  0.228  0.59996  0.07256  1.0000
  C   C21       1.0  0.10074  0.62621  0.3176899999999999  1.0000
  C   C22       1.0  0.9980800000000001  0.55073  0.35267999999999994  1.0000
  C   C23       1.0  0.04095000000000001  0.5025800000000001  0.4537499999999999  1.0000
  C   C24       1.0  0.07221  0.70061  0.56181  1.0000
  C   C25       1.0  0.07900999999999998  0.86206  0.8315899999999998  1.0000
  C   C26       1.0  0.9661099999999999  0.92601  0.87193  1.0000
  C   C27       1.0  0.019329999999999996  0.99799  0.9476899999999999  1.0000
  C   C28       1.0  0.2842199999999999  0.9029100000000002  0.06724  1.0000
  C   C29       1.0  0.39916  0.87976  0.31822999999999996  1.0000
  C   C30       1.0  0.5025  0.95271  0.35605999999999993  1.0000
  C   C31       1.0  0.4569099999999999  0.99868  0.45760999999999996  1.0000
  C   C32       1.0  0.43441  0.78782  0.55638  1.0000
  O   O1        1.0  0.54758  0.29209  0.22764999999999996  1.0000
  O   O2        1.0  0.86004  0.45849  0.9508399999999998  1.0000
  O   O3        1.0  0.69524  0.34312  0.9048799999999998  1.0000
  O   O4        1.0  0.93695  0.31478  0.7508599999999999  1.0000
  O   O5        1.0  0.7763099999999998  0.36953000000000014  0.64062  1.0000
  O   O6        1.0  0.84116  0.32899000000000006  0.38655  1.0000
  O   O7        1.0  0.01239  0.25542  0.49014999999999986  1.0000
  O   O8        1.0  0.71014  0.37534  0.14242  1.0000
  O   O9        1.0  0.9581099999999999  0.20844  0.22261  1.0000
  O   O10       1.0  0.63421  0.04630000000000001  0.9571  1.0000
  O   O11       1.0  0.80473  0.1571  0.9048399999999999  1.0000
  O   O12       1.0  0.56059  0.18052  0.7561599999999999  1.0000
  O   O13       1.0  0.7179699999999999  0.12991  0.6401299999999998  1.0000
  O   O14       1.0  0.66006  0.16921  0.38749  1.0000
  O   O15       1.0  0.48654  0.24005000000000007  0.49211999999999995  1.0000
  O   O16       1.0  0.79201  0.12525  0.14346  1.0000
  O   O17       1.0  0.45165  0.70774  0.77274  1.0000
  O   O18       1.0  0.14614  0.54135  0.05353  1.0000
  O   O19       1.0  0.30976  0.6585500000000002  0.09538999999999999  1.0000
  O   O20       1.0  0.061640000000000014  0.6864400000000003  0.24824999999999997  1.0000
  O   O21       1.0  0.22492000000000006  0.63109  0.3555599999999999  1.0000
  O   O22       1.0  0.15944  0.6658600000000001  0.61454  1.0000
  O   O23       1.0  0.98659  0.7357500000000001  0.5092  1.0000
  O   O24       1.0  0.28753  0.62486  0.85728  1.0000
  O   O25       1.0  0.04349  0.7931  0.77277  1.0000
  O   O26       1.0  0.3678600000000001  0.9592600000000002  0.04264999999999999  1.0000
  O   O27       1.0  0.20078  0.8466500000000001  0.09559999999999999  1.0000
  O   O28       1.0  0.44084  0.8171100000000001  0.25356  1.0000
  O   O29       1.0  0.27076  0.87937  0.34971  1.0000
  O   O30       1.0  0.33974  0.82063  0.60337  1.0000
  O   O31       1.0  0.52737  0.75535  0.5084  1.0000
  O   O32       1.0  0.20813  0.87434  0.8563699999999997  1.0000
