data_image0
_chemical_formula_structural       U3Zn2P8H8C4O24
_chemical_formula_sum              "U3 Zn2 P8 H8 C4 O24"
_cell_length_a       5.17832
_cell_length_b       12.86417
_cell_length_c       14.39049
_cell_angle_alpha    64.04247
_cell_angle_beta     86.58978
_cell_angle_gamma    86.9934

_symmetry_space_group_name_H-M    'P 1'
_symmetry_Int_Tables_number       1

loop_
  _symmetry_equiv_pos_as_xyz
  'x,y,z'

loop_
  _atom_site_type_symbol
  _atom_site_label
  _atom_site_symmetry_multiplicity
  _atom_site_fract_x
  _atom_site_fract_y
  _atom_site_fract_z
  _atom_site_occupancy
  U   U1        1.0  0.17829999999999996  0.7194500000000001  0.42990000000000006  1.0000
  U   U2        1.0  0.82109  0.2800100000000001  0.57185  1.0000
  U   U3        1.0  0.9999300000000001  0.9997400000000001  0.00024  1.0000
  Zn  Zn1       1.0  0.32908  0.83635  0.59776  1.0000
  Zn  Zn2       1.0  0.67075  0.16415  0.40219000000000005  1.0000
  P   P1        1.0  0.33066999999999996  0.4500200000000002  0.41106  1.0000
  P   P2        1.0  0.46482  0.9457600000000003  0.18395  1.0000
  P   P3        1.0  0.67753  0.93514  0.37371  1.0000
  P   P4        1.0  0.11609999999999995  0.28283000000000014  0.32871  1.0000
  P   P5        1.0  0.66895  0.54932  0.5906  1.0000
  P   P6        1.0  0.53474  0.053359999999999845  0.8166500000000002  1.0000
  P   P7        1.0  0.32308  0.06485999999999999  0.6264600000000001  1.0000
  P   P8        1.0  0.88333  0.71718  0.67213  1.0000
  H   H1        1.0  0.02398999999999998  0.48071000000000014  0.28331  1.0000
  H   H2        1.0  0.34839999999999993  0.46043  0.24239  1.0000
  H   H3        1.0  0.32679  0.05705999999999999  0.27522  1.0000
  H   H4        1.0  0.63122  0.10214000000000005  0.20819  1.0000
  H   H5        1.0  0.9772100000000001  0.51938  0.71765  1.0000
  H   H6        1.0  0.65281  0.53922  0.75893  1.0000
  H   H7        1.0  0.6721400000000001  0.9424599999999999  0.72488  1.0000
  H   H8        1.0  0.36768999999999996  0.89758  0.79192  1.0000
  C   C1        1.0  0.20311  0.4280500000000001  0.3067  1.0000
  C   C2        1.0  0.5140599999999999  0.026420000000000003  0.25464  1.0000
  C   C3        1.0  0.79768  0.57176  0.69448  1.0000
  C   C4        1.0  0.4854099999999999  0.9731800000000002  0.74565  1.0000
  O   O1        1.0  0.2974  0.025950000000000015  0.08683  1.0000
  O   O2        1.0  0.7362700000000002  0.9356200000000001  0.12975  1.0000
  O   O3        1.0  0.31149  0.58126  0.37889  1.0000
  O   O4        1.0  0.4611700000000001  0.85373  0.4444900000000001  1.0000
  O   O5        1.0  0.61233  0.40195000000000003  0.42530000000000007  1.0000
  O   O6        1.0  0.8888400000000001  0.86497  0.34262000000000004  1.0000
  O   O7        1.0  0.17321000000000006  0.38276999999999994  0.51538  1.0000
  O   O8        1.0  0.35017  0.82896  0.24698  1.0000
  O   O9        1.0  0.97281  0.22997999999999993  0.44091000000000014  1.0000
  O   O10       1.0  0.35363  0.20441000000000004  0.33411  1.0000
  O   O11       1.0  0.78773  0.010579999999999973  0.41709  1.0000
  O   O12       1.0  0.92301  0.2926500000000001  0.25044  1.0000
  O   O13       1.0  0.70236  0.9734099999999999  0.91362  1.0000
  O   O14       1.0  0.26299  0.06350999999999991  0.8704700000000002  1.0000
  O   O15       1.0  0.6879900000000002  0.41788000000000003  0.62348  1.0000
  O   O16       1.0  0.53912  0.14649000000000004  0.55584  1.0000
  O   O17       1.0  0.3873599999999999  0.5975700000000002  0.57684  1.0000
  O   O18       1.0  0.11115  0.1345799999999999  0.6578100000000001  1.0000
  O   O19       1.0  0.8263400000000001  0.6158699999999999  0.4861100000000001  1.0000
  O   O20       1.0  0.64923  0.17042000000000002  0.75371  1.0000
  O   O21       1.0  0.026540000000000036  0.77011  0.55974  1.0000
  O   O22       1.0  0.64525  0.7953700000000002  0.66629  1.0000
  O   O23       1.0  0.21359  0.98969  0.58268  1.0000
  O   O24       1.0  0.07656000000000002  0.7079399999999999  0.75008  1.0000
