data_image0
_chemical_formula_structural       Er2H12C24O18
_chemical_formula_sum              "Er2 H12 C24 O18"
_cell_length_a       10.57448
_cell_length_b       11.26261
_cell_length_c       12.91674
_cell_angle_alpha    107.58398999999999
_cell_angle_beta     112.24471
_cell_angle_gamma    96.92265

_symmetry_space_group_name_H-M    'P 1'
_symmetry_Int_Tables_number       1

loop_
  _symmetry_equiv_pos_as_xyz
  'x,y,z'

loop_
  _atom_site_type_symbol
  _atom_site_label
  _atom_site_symmetry_multiplicity
  _atom_site_fract_x
  _atom_site_fract_y
  _atom_site_fract_z
  _atom_site_occupancy
  Er  Er1       1.0  0.90327  0.43619  0.33587  1.0000
  Er  Er2       1.0  0.09674000000000009  0.5638  0.66415  1.0000
  H   H1        1.0  0.07362000000000002  0.87846  0.70515  1.0000
  H   H2        1.0  0.7785500000000001  0.59368  0.75395  1.0000
  H   H3        1.0  0.82078  0.12265  0.05381  1.0000
  H   H4        1.0  0.9429300000000002  0.81682  0.31007  1.0000
  H   H5        1.0  0.5843299999999999  0.42414  0.34214  1.0000
  H   H6        1.0  0.42998  0.18386  0.10847999999999998  1.0000
  H   H7        1.0  0.92641  0.12152999999999999  0.29483  1.0000
  H   H8        1.0  0.22146  0.40631999999999996  0.24604  1.0000
  H   H9        1.0  0.17923999999999998  0.87735  0.94618  1.0000
  H   H10       1.0  0.05705  0.18316999999999997  0.68991  1.0000
  H   H11       1.0  0.41567000000000004  0.57583  0.65784  1.0000
  H   H12       1.0  0.57002  0.81613  0.89151  1.0000
  C   C1        1.0  0.03637  0.9808599999999998  0.61051  1.0000
  C   C2        1.0  0.00305999999999999  0.8757799999999999  0.501  1.0000
  C   C3        1.0  0.9676  0.89702  0.39304999999999995  1.0000
  C   C4        1.0  0.0031199999999999856  0.7438399999999998  0.49763  1.0000
  C   C5        1.0  0.59527  0.54818  0.62493  1.0000
  C   C6        1.0  0.64413  0.50596  0.53449  1.0000
  C   C7        1.0  0.54838  0.45815  0.41156999999999994  1.0000
  C   C8        1.0  0.79493  0.51466  0.56982  1.0000
  C   C9        1.0  0.63728  0.01835  0.00323  1.0000
  C   C10       1.0  0.5958500000000001  0.12279000000000001  0.06515  1.0000
  C   C11       1.0  0.45998  0.10325999999999999  0.06085  1.0000
  C   C12       1.0  0.6971100000000001  0.25046  0.1396  1.0000
  C   C13       1.0  0.96363  0.019130000000000005  0.38948  1.0000
  C   C14       1.0  0.9969600000000001  0.12421999999999994  0.49899  1.0000
  C   C15       1.0  0.03239999999999999  0.10297000000000003  0.60693  1.0000
  C   C16       1.0  0.99689  0.25615999999999994  0.50235  1.0000
  C   C17       1.0  0.40473  0.45178  0.37506999999999996  1.0000
  C   C18       1.0  0.35589  0.49403  0.46552  1.0000
  C   C19       1.0  0.45163  0.54182  0.58844  1.0000
  C   C20       1.0  0.20510000000000006  0.48536999999999997  0.43017999999999995  1.0000
  C   C21       1.0  0.36273  0.98165  0.99677  1.0000
  C   C22       1.0  0.40416  0.8772  0.9348499999999998  1.0000
  C   C23       1.0  0.54003  0.8967299999999999  0.93915  1.0000
  C   C24       1.0  0.30291  0.7495299999999999  0.8604  1.0000
  O   O1        1.0  0.9556500000000001  0.65007  0.39516  1.0000
  O   O2        1.0  0.050720000000000084  0.72777  0.59944  1.0000
  O   O3        1.0  0.07058999999999999  0.96919  0.71857  1.0000
  O   O4        1.0  0.84356  0.48394  0.49015  1.0000
  O   O5        1.0  0.88372  0.55607  0.68227  1.0000
  O   O6        1.0  0.68112  0.59463  0.7449999999999999  1.0000
  O   O7        1.0  0.8243700000000002  0.27133999999999997  0.14619  1.0000
  O   O8        1.0  0.66819  0.3426  0.20718  1.0000
  O   O9        1.0  0.76668  0.030779999999999995  0.00394  1.0000
  O   O10       1.0  0.04436  0.34993  0.60483  1.0000
  O   O11       1.0  0.9493  0.27223  0.40055  1.0000
  O   O12       1.0  0.9294100000000002  0.030799999999999984  0.28142  1.0000
  O   O13       1.0  0.15646  0.51609  0.50985  1.0000
  O   O14       1.0  0.11629000000000003  0.44397999999999993  0.31775  1.0000
  O   O15       1.0  0.31889  0.40534  0.25498  1.0000
  O   O16       1.0  0.17564000000000002  0.72866  0.85379  1.0000
  O   O17       1.0  0.33182000000000017  0.65737  0.79283  1.0000
  O   O18       1.0  0.23333000000000007  0.96922  0.99605  1.0000
