data_image0
_chemical_formula_structural       Pr2H12C24O18
_chemical_formula_sum              "Pr2 H12 C24 O18"
_cell_length_a       10.62656
_cell_length_b       11.26519
_cell_length_c       12.57536
_cell_angle_alpha    106.43151000000002
_cell_angle_beta     106.48014
_cell_angle_gamma    99.94322999999999

_space_group_name_H-M_alt    "P 1"
_space_group_IT_number       1

loop_
  _space_group_symop_operation_xyz
  'x, y, z'

loop_
  _atom_site_type_symbol
  _atom_site_label
  _atom_site_symmetry_multiplicity
  _atom_site_fract_x
  _atom_site_fract_y
  _atom_site_fract_z
  _atom_site_occupancy
  Pr  Pr1       1.0  0.08729999999999993  0.56056  0.67176  1.0000
  Pr  Pr2       1.0  0.91242  0.43676000000000004  0.32963  1.0000
  H   H1        1.0  0.2540299999999999  0.39300000000000007  0.24811  1.0000
  H   H2        1.0  0.08227  0.86779  0.69612  1.0000
  H   H3        1.0  0.01116  0.15920000000000006  0.68719  1.0000
  H   H4        1.0  0.55555  0.80764  0.88863  1.0000
  H   H5        1.0  0.39081  0.564  0.6508  1.0000
  H   H6        1.0  0.17401999999999995  0.9075999999999999  0.9368999999999998  1.0000
  H   H7        1.0  0.74474  0.60723  0.75254  1.0000
  H   H8        1.0  0.91857  0.13128  0.30394  1.0000
  H   H9        1.0  0.9884  0.8396  0.3125  1.0000
  H   H10       1.0  0.44308  0.19238  0.11082999999999998  1.0000
  H   H11       1.0  0.60752  0.43674  0.34986  1.0000
  H   H12       1.0  0.8249499999999999  0.09193  0.06317  1.0000
  C   C1        1.0  0.006369999999999993  0.08939000000000004  0.6053  1.0000
  C   C2        1.0  0.29045  0.76402  0.85876  1.0000
  C   C3        1.0  0.3575  0.48292  0.46321  1.0000
  C   C4        1.0  0.04131999999999999  0.75135  0.49363  1.0000
  C   C5        1.0  0.53174  0.89197  0.93748  1.0000
  C   C6        1.0  0.20952  0.46406  0.42476  1.0000
  C   C7        1.0  0.39669000000000004  0.88527  0.9316200000000001  1.0000
  C   C8        1.0  0.4369199999999999  0.53489  0.58428  1.0000
  C   C9        1.0  0.031019999999999992  0.97192  0.60621  1.0000
  C   C10       1.0  0.36275  0.99474  0.99433  1.0000
  C   C11       1.0  0.42079  0.44771  0.37747  1.0000
  C   C12       1.0  0.023710000000000012  0.87978  0.49850000000000005  1.0000
  C   C13       1.0  0.9934199999999999  0.9093599999999998  0.39457000000000003  1.0000
  C   C14       1.0  0.70918  0.23607000000000003  0.14076  1.0000
  C   C15       1.0  0.64123  0.51752  0.53761  1.0000
  C   C16       1.0  0.95679  0.24702  0.50657  1.0000
  C   C17       1.0  0.46723999999999993  0.10824  0.06205  1.0000
  C   C18       1.0  0.78948  0.53577  0.57572  1.0000
  C   C19       1.0  0.60245  0.11501  0.06799  1.0000
  C   C20       1.0  0.56174  0.46580000000000005  0.41659  1.0000
  C   C21       1.0  0.96913  0.026990000000000004  0.39374  1.0000
  C   C22       1.0  0.6362399999999999  0.00535  0.00531  1.0000
  C   C23       1.0  0.57788  0.55297  0.62334  1.0000
  C   C24       1.0  0.97564  0.11890999999999997  0.50135  1.0000
  O   O1        1.0  0.16353000000000006  0.75661  0.8483400000000001  1.0000
  O   O2        1.0  0.35115  0.39613999999999994  0.25928  1.0000
  O   O3        1.0  0.058549999999999956  0.95084  0.7102199999999999  1.0000
  O   O4        1.0  0.13727  0.42488  0.31378  1.0000
  O   O5        1.0  0.14887  0.48555  0.50151  1.0000
  O   O6        1.0  0.09060999999999991  0.7334699999999998  0.5927  1.0000
  O   O7        1.0  0.3186099999999999  0.66417  0.80071  1.0000
  O   O8        1.0  0.005080000000000011  0.66143  0.39270000000000005  1.0000
  O   O9        1.0  0.23420999999999997  0.9943  0.99128  1.0000
  O   O10       1.0  0.8360699999999999  0.24279  0.15145  1.0000
  O   O11       1.0  0.6478  0.60477  0.74151  1.0000
  O   O12       1.0  0.94241  0.04837  0.28985  1.0000
  O   O13       1.0  0.862  0.57469  0.68668  1.0000
  O   O14       1.0  0.8496899999999998  0.51388  0.49883999999999995  1.0000
  O   O15       1.0  0.90915  0.26551  0.40758  1.0000
  O   O16       1.0  0.68163  0.33653  0.19873  1.0000
  O   O17       1.0  0.99044  0.33631000000000005  0.60753  1.0000
  O   O18       1.0  0.7646799999999999  0.005390000000000001  0.0085  1.0000
