data_image0
_chemical_formula_structural       Cu4H24C44N8O16
_chemical_formula_sum              "Cu4 H24 C44 N8 O16"
_cell_length_a       14.58966
_cell_length_b       15.63163
_cell_length_c       15.63168
_cell_angle_alpha    112.32478999999998
_cell_angle_beta     96.14428
_cell_angle_gamma    96.14429999999999

_space_group_name_H-M_alt    "P 1"
_space_group_IT_number       1

loop_
  _space_group_symop_operation_xyz
  'x, y, z'

loop_
  _atom_site_type_symbol
  _atom_site_label
  _atom_site_symmetry_multiplicity
  _atom_site_fract_x
  _atom_site_fract_y
  _atom_site_fract_z
  _atom_site_occupancy
  Cu  Cu1       1.0  0.48891  0.9285299999999999  0.9285299999999997  1.0000
  Cu  Cu2       1.0  0.0  0.0  0.4999999999999999  1.0000
  Cu  Cu3       1.0  0.51109  0.07147  0.07147  1.0000
  Cu  Cu4       1.0  0.0  0.5  0.0  1.0000
  H   H1        1.0  0.68552  0.99397  0.77501  1.0000
  H   H2        1.0  0.31449  0.006030000000000002  0.22499  1.0000
  H   H3        1.0  0.21567  0.53059  0.10287999999999997  1.0000
  H   H4        1.0  0.73517  0.0231  0.25077  1.0000
  H   H5        1.0  0.87999  0.79348  0.23181  1.0000
  H   H6        1.0  0.12001999999999993  0.20651999999999993  0.7681899999999998  1.0000
  H   H7        1.0  0.78434  0.46940999999999994  0.8971299999999999  1.0000
  H   H8        1.0  0.31447999999999987  0.22499  0.006029999999999998  1.0000
  H   H9        1.0  0.26482999999999995  0.9768999999999999  0.7492299999999997  1.0000
  H   H10       1.0  0.21567  0.10288000000000003  0.53059  1.0000
  H   H11       1.0  0.04438000000000001  0.29692  0.8901  1.0000
  H   H12       1.0  0.26483  0.74923  0.97691  1.0000
  H   H13       1.0  0.04438  0.8901  0.29692  1.0000
  H   H14       1.0  0.32129999999999986  0.03919999999999998  0.3871999999999999  1.0000
  H   H15       1.0  0.32130000000000003  0.3872  0.03919999999999999  1.0000
  H   H16       1.0  0.87999  0.23182000000000003  0.79348  1.0000
  H   H17       1.0  0.9556199999999999  0.70308  0.10989999999999997  1.0000
  H   H18       1.0  0.9556199999999999  0.10990000000000004  0.70309  1.0000
  H   H19       1.0  0.12002  0.76819  0.20652  1.0000
  H   H20       1.0  0.78434  0.89713  0.46942  1.0000
  H   H21       1.0  0.68552  0.77501  0.99397  1.0000
  H   H22       1.0  0.67871  0.9608  0.61281  1.0000
  H   H23       1.0  0.67871  0.6128099999999999  0.9607999999999999  1.0000
  H   H24       1.0  0.73517  0.25077  0.0231  1.0000
  C   C1        1.0  0.8948699999999998  0.65861  0.06161999999999999  1.0000
  C   C2        1.0  0.8321300000000001  0.82433  0.19822  1.0000
  C   C3        1.0  0.10513999999999997  0.34138999999999997  0.9383799999999998  1.0000
  C   C4        1.0  0.78689  0.10586999999999995  0.77465  1.0000
  C   C5        1.0  0.25166  0.78991  0.046999999999999986  1.0000
  C   C6        1.0  0.74835  0.953  0.21009999999999995  1.0000
  C   C7        1.0  0.21311  0.22534999999999994  0.89413  1.0000
  C   C8        1.0  0.83213  0.19821999999999995  0.82433  1.0000
  C   C9        1.0  0.16788  0.80178  0.17567  1.0000
  C   C10       1.0  0.86805  0.97052  0.34765999999999997  1.0000
  C   C11       1.0  0.18527  0.7502700000000002  0.08541  1.0000
  C   C12       1.0  0.7206700000000001  0.8122600000000002  0.06592  1.0000
  C   C13       1.0  0.62619  0.93811  0.07585999999999997  1.0000
  C   C14       1.0  0.86805  0.34765999999999997  0.9705199999999998  1.0000
  C   C15       1.0  0.13195  0.65234  0.02948  1.0000
  C   C16       1.0  0.8036599999999999  0.9505499999999999  0.5396699999999998  1.0000
  C   C17       1.0  0.19635  0.46034  0.04945  1.0000
  C   C18       1.0  0.10513999999999996  0.9383799999999999  0.3413899999999999  1.0000
  C   C19       1.0  0.78689  0.77465  0.10586999999999998  1.0000
  C   C20       1.0  0.81473  0.9146  0.24973  1.0000
  C   C21       1.0  0.1852699999999999  0.08540999999999993  0.7502699999999998  1.0000
  C   C22       1.0  0.16788  0.17567  0.80178  1.0000
  C   C23       1.0  0.8948699999999998  0.06162000000000006  0.65861  1.0000
  C   C24       1.0  0.37381  0.9241500000000002  0.06188999999999999  1.0000
  C   C25       1.0  0.69998  0.90085  0.11912999999999997  1.0000
  C   C26       1.0  0.19635  0.04945000000000001  0.46034  1.0000
  C   C27       1.0  0.74835  0.21009999999999993  0.9529999999999998  1.0000
  C   C28       1.0  0.72067  0.06591999999999994  0.8122599999999998  1.0000
  C   C29       1.0  0.75104  0.981  0.6097699999999999  1.0000
  C   C30       1.0  0.69998  0.1191299999999999  0.9008499999999999  1.0000
  C   C31       1.0  0.13195  0.02947999999999998  0.65234  1.0000
  C   C32       1.0  0.80366  0.5396599999999999  0.9505599999999997  1.0000
  C   C33       1.0  0.81473  0.24972999999999995  0.9145999999999997  1.0000
  C   C34       1.0  0.30003  0.09914999999999989  0.8808699999999998  1.0000
  C   C35       1.0  0.3738099999999999  0.06188999999999987  0.9241499999999998  1.0000
  C   C36       1.0  0.30003  0.88087  0.09914999999999999  1.0000
  C   C37       1.0  0.25166  0.04699999999999996  0.78991  1.0000
  C   C38       1.0  0.27934  0.18775000000000003  0.93408  1.0000
  C   C39       1.0  0.21311  0.8941299999999999  0.22534999999999994  1.0000
  C   C40       1.0  0.62619  0.07586  0.93811  1.0000
  C   C41       1.0  0.24897  0.39023  0.019  1.0000
  C   C42       1.0  0.75104  0.60977  0.981  1.0000
  C   C43       1.0  0.24897  0.018999999999999982  0.3902299999999999  1.0000
  C   C44       1.0  0.27934  0.93408  0.18774999999999994  1.0000
  N   N1        1.0  0.89307  0.57118  0.00121  1.0000
  N   N2        1.0  0.80954  0.05221999999999999  0.68517  1.0000
  N   N3        1.0  0.19045999999999996  0.31484000000000006  0.9477799999999997  1.0000
  N   N4        1.0  0.19046  0.9477800000000001  0.31483999999999995  1.0000
  N   N5        1.0  0.80954  0.68516  0.05221999999999999  1.0000
  N   N6        1.0  0.10693  0.42882  0.99879  1.0000
  N   N7        1.0  0.10693  0.99879  0.42881999999999987  1.0000
  N   N8        1.0  0.89307  0.0012200000000000058  0.57118  1.0000
  O   O1        1.0  0.08276  0.61946  0.07889  1.0000
  O   O2        1.0  0.86381  0.38883  0.05487  1.0000
  O   O3        1.0  0.91724  0.92112  0.38054  1.0000
  O   O4        1.0  0.3933799999999999  0.9819999999999999  0.87408  1.0000
  O   O5        1.0  0.08276  0.07888000000000002  0.61946  1.0000
  O   O6        1.0  0.3933799999999999  0.87408  0.98201  1.0000
  O   O7        1.0  0.5875399999999998  0.88595  0.9916099999999998  1.0000
  O   O8        1.0  0.41247  0.11406  0.008389999999999998  1.0000
  O   O9        1.0  0.91724  0.38054000000000004  0.9211199999999999  1.0000
  O   O10       1.0  0.41247  0.008389999999999983  0.11405999999999997  1.0000
  O   O11       1.0  0.5875399999999997  0.99161  0.8859399999999997  1.0000
  O   O12       1.0  0.60662  0.018  0.12592  1.0000
  O   O13       1.0  0.13619999999999993  0.9451299999999999  0.6111699999999998  1.0000
  O   O14       1.0  0.60662  0.12592  0.01799  1.0000
  O   O15       1.0  0.86381  0.05486999999999998  0.38882999999999995  1.0000
  O   O16       1.0  0.13618999999999995  0.61117  0.9451299999999998  1.0000
