data_image0
_chemical_formula_structural       Cd12H4C20N20O4
_chemical_formula_sum              "Cd12 H4 C20 N20 O4"
_cell_length_a       10.42527
_cell_length_b       11.73993
_cell_length_c       11.94417
_cell_angle_alpha    89.86087000000002
_cell_angle_beta     90.04931
_cell_angle_gamma    117.06105999999998

_space_group_name_H-M_alt    "P 1"
_space_group_IT_number       1

loop_
  _space_group_symop_operation_xyz
  'x, y, z'

loop_
  _atom_site_type_symbol
  _atom_site_label
  _atom_site_symmetry_multiplicity
  _atom_site_fract_x
  _atom_site_fract_y
  _atom_site_fract_z
  _atom_site_occupancy
  Cd  Cd1       1.0  0.53399  0.015909999999999997  0.34737  1.0000
  Cd  Cd2       1.0  0.35552999999999996  0.21015999999999999  0.97717  1.0000
  Cd  Cd3       1.0  0.8632  0.52422  0.21092  1.0000
  Cd  Cd4       1.0  0.9642600000000001  0.98272  0.8472600000000001  1.0000
  Cd  Cd5       1.0  0.14463999999999996  0.79018  0.47845000000000004  1.0000
  Cd  Cd6       1.0  0.63681  0.47644  0.70804  1.0000
  Cd  Cd7       1.0  0.466  0.9840999999999999  0.65263  1.0000
  Cd  Cd8       1.0  0.64448  0.78985  0.022830000000000003  1.0000
  Cd  Cd9       1.0  0.13679999999999995  0.4757799999999999  0.78908  1.0000
  Cd  Cd10      1.0  0.03574999999999999  0.017289999999999993  0.15274  1.0000
  Cd  Cd11      1.0  0.8553500000000002  0.20981999999999998  0.52155  1.0000
  Cd  Cd12      1.0  0.3632000000000001  0.52357  0.29196  1.0000
  H   H1        1.0  0.67264  0.95493  0.53697  1.0000
  H   H2        1.0  0.8262900000000001  0.04464  0.03789  1.0000
  H   H3        1.0  0.32734  0.04507  0.46302  1.0000
  H   H4        1.0  0.17372  0.95537  0.96211  1.0000
  C   C1        1.0  0.68566  0.21473999999999996  0.29814  1.0000
  C   C2        1.0  0.28836  0.36005  0.96007  1.0000
  C   C3        1.0  0.58525  0.55366  0.31479  1.0000
  C   C4        1.0  0.41426  0.11649  0.10979  1.0000
  C   C5        1.0  0.53521  0.8515699999999999  0.25944  1.0000
  C   C6        1.0  0.8126300000000001  0.7839399999999999  0.79772  1.0000
  C   C7        1.0  0.21209  0.64046  0.46136  1.0000
  C   C8        1.0  0.91553  0.44763  0.81195  1.0000
  C   C9        1.0  0.08399999999999992  0.8839499999999999  0.609  1.0000
  C   C10       1.0  0.96353  0.14736  0.7582  1.0000
  C   C11       1.0  0.31433999999999995  0.7852599999999998  0.70186  1.0000
  C   C12       1.0  0.7116399999999999  0.63996  0.03993  1.0000
  C   C13       1.0  0.41474999999999995  0.44633999999999996  0.68521  1.0000
  C   C14       1.0  0.58574  0.88352  0.89021  1.0000
  C   C15       1.0  0.46478  0.14844  0.74056  1.0000
  C   C16       1.0  0.18738  0.21606999999999998  0.20228  1.0000
  C   C17       1.0  0.78791  0.35953999999999997  0.53864  1.0000
  C   C18       1.0  0.08447000000000002  0.55237  0.18805  1.0000
  C   C19       1.0  0.9160000000000001  0.11606  0.391  1.0000
  C   C20       1.0  0.03646999999999995  0.8526399999999998  0.24179  1.0000
  N   N1        1.0  0.7520099999999998  0.31582999999999994  0.25797  1.0000
  N   N2        1.0  0.23788  0.42839  0.93812  1.0000
  N   N3        1.0  0.69985  0.55836  0.31355  1.0000
  N   N4        1.0  0.40636  0.04775999999999998  0.18371  1.0000
  N   N5        1.0  0.53911  0.7801399999999998  0.19257000000000002  1.0000
  N   N6        1.0  0.7462500000000001  0.68432  0.75534  1.0000
  N   N7        1.0  0.26149  0.57133  0.43982  1.0000
  N   N8        1.0  0.80088  0.44279  0.8108800000000002  1.0000
  N   N9        1.0  0.08990999999999998  0.95209  0.68252  1.0000
  N   N10       1.0  0.96086  0.22004  0.69171  1.0000
  N   N11       1.0  0.24799000000000002  0.68417  0.7420299999999999  1.0000
  N   N12       1.0  0.76212  0.57162  0.06188  1.0000
  N   N13       1.0  0.30015  0.44165  0.68645  1.0000
  N   N14       1.0  0.59364  0.95225  0.8162899999999998  1.0000
  N   N15       1.0  0.4609  0.21987  0.80743  1.0000
  N   N16       1.0  0.25375  0.31569  0.24466  1.0000
  N   N17       1.0  0.73851  0.42868  0.56018  1.0000
  N   N18       1.0  0.19912  0.55722  0.18912000000000004  1.0000
  N   N19       1.0  0.9101  0.04792  0.31748  1.0000
  N   N20       1.0  0.03914000000000003  0.7799599999999999  0.30829  1.0000
  O   O1        1.0  0.64302  0.02229  0.53156  1.0000
  O   O2        1.0  0.85669  0.97771  0.03355  1.0000
  O   O3        1.0  0.35698  0.97771  0.46845  1.0000
  O   O4        1.0  0.14332  0.02229  0.96645  1.0000
