data_image0
_chemical_formula_structural       Zn2H26C44N4O8
_chemical_formula_sum              "Zn2 H26 C44 N4 O8"
_cell_length_a       11.82033
_cell_length_b       15.65686
_cell_length_c       15.884800000000002
_cell_angle_alpha    90.0
_cell_angle_beta     90.2941
_cell_angle_gamma    90.0

_symmetry_space_group_name_H-M    'P 1'
_symmetry_Int_Tables_number       1

loop_
  _symmetry_equiv_pos_as_xyz
  'x,y,z'

loop_
  _atom_site_type_symbol
  _atom_site_label
  _atom_site_symmetry_multiplicity
  _atom_site_fract_x
  _atom_site_fract_y
  _atom_site_fract_z
  _atom_site_occupancy
  Zn  Zn1       1.0  0.51091  0.4999999999999999  0.5858900000000002  1.0000
  Zn  Zn2       1.0  0.4891000000000001  0.4999999999999999  0.4141100000000001  1.0000
  H   H1        1.0  0.80096  0.32808  0.6117100000000002  1.0000
  H   H2        1.0  0.3475000000000001  0.4999999999999999  0.72524  1.0000
  H   H3        1.0  0.1967  0.13371  0.63503  1.0000
  H   H4        1.0  0.34862  0.4999999999999999  0.88493  1.0000
  H   H5        1.0  0.7942400000000002  0.0  0.47269  1.0000
  H   H6        1.0  0.31743  0.7349299999999998  0.63571  1.0000
  H   H7        1.0  0.68257  0.26506999999999986  0.36429  1.0000
  H   H8        1.0  0.8033000000000001  0.13371  0.3649700000000001  1.0000
  H   H9        1.0  0.80096  0.67192  0.6117100000000002  1.0000
  H   H10       1.0  0.8033000000000001  0.86629  0.3649700000000001  1.0000
  H   H11       1.0  0.19904  0.67192  0.38828  1.0000
  H   H12       1.0  0.28713  0.4999999999999999  0.12491000000000002  1.0000
  H   H13       1.0  0.7128800000000001  0.4999999999999999  0.87508  1.0000
  H   H14       1.0  0.68257  0.7349299999999998  0.36429  1.0000
  H   H15       1.0  0.65138  0.4999999999999999  0.11507000000000003  1.0000
  H   H16       1.0  0.1967  0.86629  0.63503  1.0000
  H   H17       1.0  0.30331  0.4999999999999999  0.28465  1.0000
  H   H18       1.0  0.07163  0.20087  0.3892200000000001  1.0000
  H   H19       1.0  0.6966900000000003  0.4999999999999999  0.71534  1.0000
  H   H20       1.0  0.9283700000000001  0.20087  0.6107800000000002  1.0000
  H   H21       1.0  0.07163  0.79913  0.3892200000000001  1.0000
  H   H22       1.0  0.6525  0.4999999999999999  0.2747600000000001  1.0000
  H   H23       1.0  0.19904  0.32808  0.38828  1.0000
  H   H24       1.0  0.9283700000000001  0.79913  0.6107800000000002  1.0000
  H   H25       1.0  0.20576000000000005  0.0  0.5273100000000002  1.0000
  H   H26       1.0  0.31743  0.26506999999999986  0.63571  1.0000
  C   C1        1.0  0.36884  0.4999999999999999  0.15666000000000005  1.0000
  C   C2        1.0  0.12627  0.8416999999999998  0.51196  1.0000
  C   C3        1.0  0.73429  0.30459999999999987  0.4879100000000001  1.0000
  C   C4        1.0  0.8743300000000003  0.7852099999999997  0.55687  1.0000
  C   C5        1.0  0.57425  0.4999999999999999  0.23829000000000006  1.0000
  C   C6        1.0  0.804  0.7139199999999998  0.5573500000000002  1.0000
  C   C7        1.0  0.80382  0.82309  0.41865000000000013  1.0000
  C   C8        1.0  0.88548  0.0  0.4823100000000001  1.0000
  C   C9        1.0  0.3773700000000001  0.4999999999999999  0.24415000000000006  1.0000
  C   C10       1.0  0.73623  0.7499899999999998  0.41801  1.0000
  C   C11       1.0  0.94129  0.9214599999999997  0.4912800000000001  1.0000
  C   C12       1.0  0.12627  0.15828999999999993  0.51196  1.0000
  C   C13       1.0  0.12567  0.7852099999999997  0.44313000000000013  1.0000
  C   C14       1.0  0.19618  0.82309  0.5813500000000003  1.0000
  C   C15       1.0  0.42575  0.4999999999999999  0.7617100000000002  1.0000
  C   C16       1.0  0.73623  0.2500099999999999  0.41801  1.0000
  C   C17       1.0  0.05871000000000001  0.07853  0.50872  1.0000
  C   C18       1.0  0.11452000000000001  0.0  0.5176800000000003  1.0000
  C   C19       1.0  0.8737300000000001  0.8416999999999998  0.4880400000000001  1.0000
  C   C20       1.0  0.05871000000000001  0.9214599999999997  0.50872  1.0000
  C   C21       1.0  0.19618  0.17690999999999996  0.5813500000000003  1.0000
  C   C22       1.0  0.53157  0.4999999999999999  0.8908600000000002  1.0000
  C   C23       1.0  0.57341  0.4999999999999999  0.15096000000000007  1.0000
  C   C24       1.0  0.8743300000000003  0.21477999999999994  0.55687  1.0000
  C   C25       1.0  0.63116  0.4999999999999999  0.8433300000000002  1.0000
  C   C26       1.0  0.42660000000000003  0.4999999999999999  0.8490300000000002  1.0000
  C   C27       1.0  0.80382  0.17690999999999996  0.41865000000000013  1.0000
  C   C28       1.0  0.12567  0.21477999999999994  0.44313000000000013  1.0000
  C   C29       1.0  0.94129  0.07853  0.4912800000000001  1.0000
  C   C30       1.0  0.19601000000000002  0.28608  0.4426400000000001  1.0000
  C   C31       1.0  0.26377000000000006  0.2500099999999999  0.58199  1.0000
  C   C32       1.0  0.8737300000000001  0.15828999999999993  0.4880400000000001  1.0000
  C   C33       1.0  0.65466  0.62083  0.49086000000000013  1.0000
  C   C34       1.0  0.26377000000000006  0.7499899999999998  0.58199  1.0000
  C   C35       1.0  0.19601000000000002  0.7139199999999998  0.4426400000000001  1.0000
  C   C36       1.0  0.73429  0.6953899999999997  0.4879100000000001  1.0000
  C   C37       1.0  0.26572  0.30459999999999987  0.51208  1.0000
  C   C38       1.0  0.26572  0.6953899999999997  0.51208  1.0000
  C   C39       1.0  0.65466  0.37917  0.49086000000000013  1.0000
  C   C40       1.0  0.804  0.28608  0.5573500000000002  1.0000
  C   C41       1.0  0.4684300000000001  0.4999999999999999  0.10914000000000001  1.0000
  C   C42       1.0  0.62263  0.4999999999999999  0.7558500000000002  1.0000
  C   C43       1.0  0.34534  0.62083  0.50913  1.0000
  C   C44       1.0  0.34534  0.37917  0.50913  1.0000
  N   N1        1.0  0.5219  0.4999999999999999  0.71605  1.0000
  N   N2        1.0  0.45368  0.4999999999999999  0.02025  1.0000
  N   N3        1.0  0.54632  0.4999999999999999  0.9797500000000002  1.0000
  N   N4        1.0  0.4781000000000001  0.4999999999999999  0.2839500000000001  1.0000
  O   O1        1.0  0.38813000000000003  0.4054399999999999  0.5785700000000003  1.0000
  O   O2        1.0  0.63397  0.40972999999999987  0.5636300000000002  1.0000
  O   O3        1.0  0.38813000000000003  0.5945599999999998  0.5785700000000003  1.0000
  O   O4        1.0  0.61188  0.4054399999999999  0.42143  1.0000
  O   O5        1.0  0.63397  0.59027  0.5636300000000002  1.0000
  O   O6        1.0  0.36603000000000013  0.59027  0.4363700000000001  1.0000
  O   O7        1.0  0.61188  0.5945599999999998  0.42143  1.0000
  O   O8        1.0  0.36603000000000013  0.40972999999999987  0.4363700000000001  1.0000
