data_image0
_chemical_formula_structural       Ni2H4C20O16
_chemical_formula_sum              "Ni2 H4 C20 O16"
_cell_length_a       7.17418
_cell_length_b       10.689979999999998
_cell_length_c       10.66305
_cell_angle_alpha    71.55779
_cell_angle_beta     70.36061
_cell_angle_gamma    70.17206

_space_group_name_H-M_alt    "P 1"
_space_group_IT_number       1

loop_
  _space_group_symop_operation_xyz
  'x, y, z'

loop_
  _atom_site_type_symbol
  _atom_site_label
  _atom_site_symmetry_multiplicity
  _atom_site_fract_x
  _atom_site_fract_y
  _atom_site_fract_z
  _atom_site_occupancy
  Ni  Ni1       1.0  0.0037199999999999824  0.82252  0.17309  1.0000
  Ni  Ni2       1.0  0.49636000000000025  0.3221799999999999  0.67329  1.0000
  H   H1        1.0  0.22399  0.6850700000000001  0.81299  1.0000
  H   H2        1.0  0.8749100000000001  0.026990000000000004  0.46856000000000003  1.0000
  H   H3        1.0  0.77354  0.18724999999999997  0.3149  1.0000
  H   H4        1.0  0.12746999999999994  0.5251500000000001  0.9689600000000002  1.0000
  C   C1        1.0  0.01883000000000002  0.88489  0.7671  1.0000
  C   C2        1.0  0.9225900000000004  0.9824299999999998  0.668  1.0000
  C   C3        1.0  0.9638600000000002  0.90992  0.9077  1.0000
  C   C4        1.0  0.7783700000000001  0.11795000000000001  0.68563  1.0000
  C   C5        1.0  0.97953  0.2292  0.11504000000000002  1.0000
  C   C6        1.0  0.07615  0.32679  0.015820000000000004  1.0000
  C   C7        1.0  0.036219999999999995  0.08752999999999998  0.09266000000000002  1.0000
  C   C8        1.0  0.21784  0.30644000000000005  0.88018  1.0000
  C   C9        1.0  0.8260399999999999  0.38598999999999994  0.26765000000000005  1.0000
  C   C10       1.0  0.9240200000000002  0.48285999999999996  0.16848000000000002  1.0000
  C   C11       1.0  0.7168400000000001  0.41109  0.40834  1.0000
  C   C12       1.0  0.91498  0.61811  0.18654  1.0000
  C   C13       1.0  0.17199  0.7287700000000001  0.6139  1.0000
  C   C14       1.0  0.07681000000000002  0.82714  0.51484  1.0000
  C   C15       1.0  0.27925000000000005  0.58741  0.59081  1.0000
  C   C16       1.0  0.08948000000000002  0.8075  0.37935  1.0000
  C   C17       1.0  0.14551999999999995  0.75933  0.73833  1.0000
  C   C18       1.0  0.95453  0.95296  0.54279  1.0000
  C   C19       1.0  0.85236  0.26064999999999994  0.23938000000000004  1.0000
  C   C20       1.0  0.04609999999999998  0.45246000000000003  0.04342  1.0000
  O   O1        1.0  0.09263000000000002  0.8375899999999998  0.9815900000000001  1.0000
  O   O2        1.0  0.7981800000000001  0.99354  0.94359  1.0000
  O   O3        1.0  0.58847  0.13037  0.69372  1.0000
  O   O4        1.0  0.8356900000000003  0.22005999999999995  0.6750000000000002  1.0000
  O   O5        1.0  0.9084  0.013399999999999994  0.16319  1.0000
  O   O6        1.0  0.2047  0.05042  0.01202  1.0000
  O   O7        1.0  0.40932999999999997  0.29464  0.8664700000000001  1.0000
  O   O8        1.0  0.15651999999999994  0.31881999999999994  0.7788100000000002  1.0000
  O   O9        1.0  0.5840300000000004  0.34085999999999994  0.48143  1.0000
  O   O10       1.0  0.7661699999999998  0.49254999999999993  0.44453000000000004  1.0000
  O   O11       1.0  0.08412999999999994  0.63042  0.19476  1.0000
  O   O12       1.0  0.7651799999999999  0.7204  0.17576  1.0000
  O   O13       1.0  0.40927  0.51255  0.66299  1.0000
  O   O14       1.0  0.23059  0.5512599999999999  0.5086400000000001  1.0000
  O   O15       1.0  0.92203  0.7980199999999997  0.3658800000000001  1.0000
  O   O16       1.0  0.23967000000000008  0.81862  0.2775  1.0000
