data_image0
_chemical_formula_structural       Eu4H12C32N4O28
_chemical_formula_sum              "Eu4 H12 C32 N4 O28"
_cell_length_a       8.09825
_cell_length_b       10.28342
_cell_length_c       16.16756
_cell_angle_alpha    87.76738999999999
_cell_angle_beta     83.71824999999998
_cell_angle_gamma    77.79047

_space_group_name_H-M_alt    "P 1"
_space_group_IT_number       1

loop_
  _space_group_symop_operation_xyz
  'x, y, z'

loop_
  _atom_site_type_symbol
  _atom_site_label
  _atom_site_symmetry_multiplicity
  _atom_site_fract_x
  _atom_site_fract_y
  _atom_site_fract_z
  _atom_site_occupancy
  Eu  Eu1       1.0  0.33766999999999997  0.3427399999999999  0.06240999999999999  1.0000
  Eu  Eu2       1.0  0.61453  0.8717499999999999  0.30723  1.0000
  Eu  Eu3       1.0  0.6623799999999999  0.6575999999999999  0.93772  1.0000
  Eu  Eu4       1.0  0.38481999999999994  0.12853999999999996  0.69271  1.0000
  H   H1        1.0  0.16608000000000003  0.5216799999999999  0.69666  1.0000
  H   H2        1.0  0.91112  0.64958  0.62665  1.0000
  H   H3        1.0  0.66087  0.5383999999999999  0.62175  1.0000
  H   H4        1.0  0.10361000000000001  0.8830799999999998  0.79731  1.0000
  H   H5        1.0  0.92916  0.8795  0.9358400000000002  1.0000
  H   H6        1.0  0.72814  0.09389999999999998  0.98526  1.0000
  H   H7        1.0  0.8337099999999998  0.4785599999999999  0.30352  1.0000
  H   H8        1.0  0.0885  0.35061  0.3735900000000001  1.0000
  H   H9        1.0  0.3390199999999998  0.46152999999999994  0.37829  1.0000
  H   H10       1.0  0.89606  0.11699  0.20231  1.0000
  H   H11       1.0  0.07085  0.12035999999999993  0.06395000000000003  1.0000
  H   H12       1.0  0.27183000000000007  0.9061399999999998  0.01462  1.0000
  C   C1        1.0  0.04753  0.4886  0.69557  1.0000
  C   C2        1.0  0.90861  0.55326  0.65649  1.0000
  C   C3        1.0  0.76937  0.49335  0.65481  1.0000
  C   C4        1.0  0.7674699999999999  0.37272999999999995  0.6971300000000002  1.0000
  C   C5        1.0  0.90294  0.31558  0.74267  1.0000
  C   C6        1.0  0.62175  0.30319  0.69505  1.0000
  C   C7        1.0  0.016740000000000022  0.9699  0.82399  1.0000
  C   C8        1.0  0.9183900000000002  0.97161  0.89944  1.0000
  C   C9        1.0  0.811  0.09003999999999997  0.92712  1.0000
  C   C10       1.0  0.8075299999999996  0.20583999999999997  0.87841  1.0000
  C   C11       1.0  0.9045699999999995  0.20025  0.80086  1.0000
  C   C12       1.0  0.7006199999999998  0.3358599999999999  0.90991  1.0000
  C   C13       1.0  0.9493  0.4645699999999999  0.03445  1.0000
  C   C14       1.0  0.41169000000000006  0.9495099999999999  0.50854  1.0000
  C   C15       1.0  0.52073  0.06377  0.14843  1.0000
  C   C16       1.0  0.41435999999999995  0.14388999999999996  0.22298  1.0000
  C   C17       1.0  0.95238  0.5114899999999999  0.30448  1.0000
  C   C18       1.0  0.09113999999999998  0.4468599999999999  0.34367  1.0000
  C   C19       1.0  0.23045999999999997  0.50668  0.3453  1.0000
  C   C20       1.0  0.23243999999999992  0.6272499999999999  0.30295  1.0000
  C   C21       1.0  0.09709000000000007  0.6844799999999998  0.25733  1.0000
  C   C22       1.0  0.37815999999999994  0.69671  0.30505  1.0000
  C   C23       1.0  0.9829299999999999  0.030059999999999996  0.17575  1.0000
  C   C24       1.0  0.08139  0.028269999999999997  0.10034  1.0000
  C   C25       1.0  0.18895999999999996  0.90986  0.07275  1.0000
  C   C26       1.0  0.19265000000000002  0.79419  0.12159  1.0000
  C   C27       1.0  0.09550000000000003  0.79981  0.19912  1.0000
  C   C28       1.0  0.29957  0.66415  0.09025  1.0000
  C   C29       1.0  0.0506300000000001  0.5351299999999998  0.9655  1.0000
  C   C30       1.0  0.58837  0.05058  0.49143  1.0000
  C   C31       1.0  0.47547  0.9360199999999999  0.85156  1.0000
  C   C32       1.0  0.5842900000000001  0.8572499999999998  0.77705  1.0000
  N   N1        1.0  0.04488000000000004  0.3700299999999999  0.73646  1.0000
  N   N2        1.0  0.00850000000000001  0.08277999999999996  0.7758  1.0000
  N   N3        1.0  0.9551599999999999  0.63  0.26349  1.0000
  N   N4        1.0  0.9912300000000002  0.91724  0.22404  1.0000
  O   O1        1.0  0.18032999999999996  0.3064  0.77037  1.0000
  O   O2        1.0  0.10126000000000003  0.07774  0.70351  1.0000
  O   O3        1.0  0.49227  0.35787  0.66002  1.0000
  O   O4        1.0  0.64053  0.18674  0.72924  1.0000
  O   O5        1.0  0.73291  0.4421199999999999  0.87506  1.0000
  O   O6        1.0  0.58907  0.3316299999999999  0.97058  1.0000
  O   O7        1.0  0.79255  0.51299  0.04989  1.0000
  O   O8        1.0  0.03272  0.36272999999999994  0.07008  1.0000
  O   O9        1.0  0.32523  0.9814999999999999  0.57434  1.0000
  O   O10       1.0  0.42497000000000007  0.87524  0.44978  1.0000
  O   O11       1.0  0.42546000000000006  0.09288999999999997  0.29504  1.0000
  O   O12       1.0  0.6274299999999999  0.96015  0.16623000000000004  1.0000
  O   O13       1.0  0.3256899999999999  0.25664  0.20448  1.0000
  O   O14       1.0  0.49505  0.10968  0.07613  1.0000
  O   O15       1.0  0.8197  0.69363  0.22959  1.0000
  O   O16       1.0  0.8984100000000002  0.9223499999999999  0.29632  1.0000
  O   O17       1.0  0.5076499999999999  0.64212  0.34011  1.0000
  O   O18       1.0  0.35928000000000004  0.8131299999999999  0.27082  1.0000
  O   O19       1.0  0.26705  0.55802  0.12516  1.0000
  O   O20       1.0  0.41118  0.66814  0.02957  1.0000
  O   O21       1.0  0.20744  0.48700999999999994  0.95015  1.0000
  O   O22       1.0  0.9671600000000001  0.63687  0.92976  1.0000
  O   O23       1.0  0.67478  0.01848  0.42565  1.0000
  O   O24       1.0  0.57503  0.12497999999999997  0.55016  1.0000
  O   O25       1.0  0.5733100000000001  0.9082999999999999  0.70497  1.0000
  O   O26       1.0  0.36712000000000006  0.03865999999999999  0.83359  1.0000
  O   O27       1.0  0.6747199999999995  0.74535  0.79551  1.0000
  O   O28       1.0  0.50048  0.8900399999999999  0.9239  1.0000
