data_image0
_chemical_formula_structural       Cd4H14C24N2O16
_chemical_formula_sum              "Cd4 H14 C24 N2 O16"
_cell_length_a       8.08879
_cell_length_b       9.63842
_cell_length_c       11.532789999999999
_cell_angle_alpha    110.0032
_cell_angle_beta     99.64137
_cell_angle_gamma    106.58791

_symmetry_space_group_name_H-M    'P 1'
_symmetry_Int_Tables_number       1

loop_
  _symmetry_equiv_pos_as_xyz
  'x,y,z'

loop_
  _atom_site_type_symbol
  _atom_site_label
  _atom_site_symmetry_multiplicity
  _atom_site_fract_x
  _atom_site_fract_y
  _atom_site_fract_z
  _atom_site_occupancy
  Cd  Cd1       1.0  0.33805  0.5767899999999999  0.47164999999999996  1.0000
  Cd  Cd2       1.0  0.54065  0.72333  0.97756  1.0000
  Cd  Cd3       1.0  0.6619500000000001  0.4232199999999999  0.5283599999999999  1.0000
  Cd  Cd4       1.0  0.45935  0.27667  0.02244  1.0000
  H   H1        1.0  0.86999  0.1444  0.31386  1.0000
  H   H2        1.0  0.7488199999999999  0.6501599999999998  0.25316  1.0000
  H   H3        1.0  0.28851  0.9891100000000002  0.42657  1.0000
  H   H4        1.0  0.59411  0.08232000000000003  0.32133  1.0000
  H   H5        1.0  0.40144  0.96083  0.18545  1.0000
  H   H6        1.0  0.51611  0.8097399999999999  0.36649  1.0000
  H   H7        1.0  0.33406  0.76469  0.23320999999999997  1.0000
  H   H8        1.0  0.13001  0.8556  0.68614  1.0000
  H   H9        1.0  0.25118  0.34984  0.74684  1.0000
  H   H10       1.0  0.71148  0.010889999999999919  0.5734299999999999  1.0000
  H   H11       1.0  0.4058899999999999  0.9176899999999999  0.67867  1.0000
  H   H12       1.0  0.59856  0.039180000000000006  0.81456  1.0000
  H   H13       1.0  0.48389  0.19027  0.63352  1.0000
  H   H14       1.0  0.6659400000000002  0.23532000000000003  0.76679  1.0000
  C   C1        1.0  0.7807700000000002  0.89027  0.27046  1.0000
  C   C2        1.0  0.08965999999999999  0.07828  0.36707  1.0000
  C   C3        1.0  0.9068000000000003  0.04527  0.31531  1.0000
  C   C4        1.0  0.22621000000000008  0.24114000000000002  0.41513  1.0000
  C   C5        1.0  0.84005  0.77185  0.28468  1.0000
  C   C6        1.0  0.09157999999999995  0.6919099999999999  0.37086  1.0000
  C   C7        1.0  0.021859999999999966  0.80923  0.34463999999999995  1.0000
  C   C8        1.0  0.14734999999999987  0.9614799999999999  0.38237  1.0000
  C   C9        1.0  0.46697999999999995  0.7568899999999998  0.26068  1.0000
  C   C10       1.0  0.5484999999999999  0.9964199999999998  0.22014  1.0000
  C   C11       1.0  0.43454  0.57945  0.20829  1.0000
  C   C12       1.0  0.6253900000000002  0.07681  0.13699  1.0000
  C   C13       1.0  0.21922999999999998  0.10972999999999998  0.7295399999999999  1.0000
  C   C14       1.0  0.91034  0.92172  0.63293  1.0000
  C   C15       1.0  0.09319999999999994  0.9547399999999999  0.68469  1.0000
  C   C16       1.0  0.77379  0.75886  0.58487  1.0000
  C   C17       1.0  0.15995000000000004  0.22816000000000003  0.71532  1.0000
  C   C18       1.0  0.9084199999999999  0.3081099999999999  0.6291499999999999  1.0000
  C   C19       1.0  0.9781400000000002  0.19077  0.65536  1.0000
  C   C20       1.0  0.85265  0.038520000000000006  0.61763  1.0000
  C   C21       1.0  0.5330199999999999  0.24310999999999997  0.7393199999999999  1.0000
  C   C22       1.0  0.4515  0.0035800000000000007  0.77986  1.0000
  C   C23       1.0  0.56546  0.42056  0.79171  1.0000
  C   C24       1.0  0.37461  0.92319  0.86301  1.0000
  N   N1        1.0  0.58983  0.85179  0.20885  1.0000
  N   N2        1.0  0.41015999999999997  0.14821999999999988  0.7911499999999999  1.0000
  O   O1        1.0  0.42462000000000005  0.51252  0.08846  1.0000
  O   O2        1.0  0.17507999999999999  0.35513999999999996  0.4671499999999999  1.0000
  O   O3        1.0  0.017750000000000002  0.54629  0.30453  1.0000
  O   O4        1.0  0.24224999999999997  0.7616999999999999  0.46646999999999994  1.0000
  O   O5        1.0  0.6820500000000003  0.0020099999999999975  0.048709999999999996  1.0000
  O   O6        1.0  0.41729999999999995  0.50563  0.2792899999999999  1.0000
  O   O7        1.0  0.38278  0.25373  0.40261  1.0000
  O   O8        1.0  0.62307  0.21640999999999996  0.16371  1.0000
  O   O9        1.0  0.5753800000000002  0.48748  0.91154  1.0000
  O   O10       1.0  0.82492  0.64487  0.53285  1.0000
  O   O11       1.0  0.9822399999999999  0.4536999999999999  0.6954599999999999  1.0000
  O   O12       1.0  0.75775  0.2383  0.53354  1.0000
  O   O13       1.0  0.3179499999999999  0.9979899999999998  0.9513  1.0000
  O   O14       1.0  0.5827000000000002  0.49437  0.72071  1.0000
  O   O15       1.0  0.6172199999999998  0.7462699999999998  0.5973899999999999  1.0000
  O   O16       1.0  0.37693000000000004  0.78359  0.83629  1.0000
