data_image0
_chemical_formula_structural       Al2H10C16O10
_chemical_formula_sum              "Al2 H10 C16 O10"
_cell_length_a       6.83568
_cell_length_b       11.13052
_cell_length_c       11.13051
_cell_angle_alpha    69.98493
_cell_angle_beta     72.03439
_cell_angle_gamma    72.0344

_space_group_name_H-M_alt    "P 1"
_space_group_IT_number       1

loop_
  _space_group_symop_operation_xyz
  'x, y, z'

loop_
  _atom_site_type_symbol
  _atom_site_label
  _atom_site_symmetry_multiplicity
  _atom_site_fract_x
  _atom_site_fract_y
  _atom_site_fract_z
  _atom_site_occupancy
  Al  Al1       1.0  0.24988000000000002  0.26066000000000006  0.73955  1.0000
  Al  Al2       1.0  0.75012  0.26045000000000007  0.73934  1.0000
  H   H1        1.0  0.003399999999999937  0.26452000000000003  0.35614  1.0000
  H   H2        1.0  0.12389  0.25454  0.12089000000000001  1.0000
  H   H3        1.0  0.9999999999999999  0.3991000000000001  0.6009  1.0000
  H   H4        1.0  0.49999999999999994  0.12182000000000001  0.8781800000000001  1.0000
  H   H5        1.0  0.9965999999999999  0.6438600000000001  0.73548  1.0000
  H   H6        1.0  0.8761099999999998  0.87911  0.7454600000000001  1.0000
  H   H7        1.0  0.3764799999999999  0.26519000000000004  0.35879000000000005  1.0000
  H   H8        1.0  0.49655  0.25541  0.12339  1.0000
  H   H9        1.0  0.6235199999999999  0.6412100000000001  0.73481  1.0000
  H   H10       1.0  0.50345  0.87661  0.74459  1.0000
  C   C1        1.0  0.89491  0.26286  0.30377  1.0000
  C   C2        1.0  0.9614799999999998  0.25671  0.17428  1.0000
  C   C3        1.0  0.10508999999999989  0.6962300000000001  0.73714  1.0000
  C   C4        1.0  0.0385300000000001  0.82571  0.74329  1.0000
  C   C5        1.0  0.5386799999999998  0.26329  0.30516000000000004  1.0000
  C   C6        1.0  0.6051499999999999  0.25718  0.17565000000000003  1.0000
  C   C7        1.0  0.46131999999999984  0.69484  0.73671  1.0000
  C   C8        1.0  0.3948499999999998  0.82435  0.74282  1.0000
  C   C9        1.0  0.817  0.25365  0.10975  1.0000
  C   C10       1.0  0.6830499999999999  0.2665100000000001  0.36962  1.0000
  C   C11       1.0  0.6107300000000001  0.27310999999999996  0.5088  1.0000
  C   C12       1.0  0.18299999999999994  0.8902400000000001  0.74635  1.0000
  C   C13       1.0  0.3169599999999999  0.63038  0.73349  1.0000
  C   C14       1.0  0.3892700000000001  0.4911999999999999  0.7268900000000001  1.0000
  C   C15       1.0  0.8892099999999998  0.24773999999999993  0.9703200000000001  1.0000
  C   C16       1.0  0.11079999999999987  0.02967999999999994  0.7522600000000003  1.0000
  O   O1        1.0  0.41506999999999994  0.27765000000000006  0.56194  1.0000
  O   O2        1.0  0.7501799999999998  0.2453000000000001  0.9169000000000002  1.0000
  O   O3        1.0  0.5849299999999998  0.43806  0.72235  1.0000
  O   O4        1.0  0.24981999999999993  0.08310000000000001  0.7547  1.0000
  O   O5        1.0  0.7502399999999999  0.27504999999999996  0.56209  1.0000
  O   O6        1.0  0.08443  0.24473  0.91691  1.0000
  O   O7        1.0  0.24976  0.4379099999999999  0.7249500000000001  1.0000
  O   O8        1.0  0.9155699999999999  0.08309  0.75527  1.0000
  O   O9        1.0  6.496635445925827e-17  0.32320999999999994  0.67679  1.0000
  O   O10       1.0  0.4999999999999997  0.19772  0.8022800000000001  1.0000
