data_image0
_chemical_formula_structural       Co4H24C48O16
_chemical_formula_sum              "Co4 H24 C48 O16"
_cell_length_a       7.0024
_cell_length_b       11.46278
_cell_length_c       17.457219999999996
_cell_angle_alpha    89.88944999999998
_cell_angle_beta     88.00873
_cell_angle_gamma    90.23607

_space_group_name_H-M_alt    "P 1"
_space_group_IT_number       1

loop_
  _space_group_symop_operation_xyz
  'x, y, z'

loop_
  _atom_site_type_symbol
  _atom_site_label
  _atom_site_symmetry_multiplicity
  _atom_site_fract_x
  _atom_site_fract_y
  _atom_site_fract_z
  _atom_site_occupancy
  Co  Co1       1.0  0.002079999999999992  0.49737  0.9992000000000001  1.0000
  Co  Co2       1.0  0.99805  7.999999999999976e-05  0.50045  1.0000
  Co  Co3       1.0  0.49976999999999994  0.49958  0.00018  1.0000
  Co  Co4       1.0  0.49874  0.99904  0.50038  1.0000
  H   H1        1.0  0.69719  0.4515000000000001  0.72393  1.0000
  H   H2        1.0  0.94636  0.7070200000000001  0.56949  1.0000
  H   H3        1.0  0.95253  0.48546000000000006  0.81421  1.0000
  H   H4        1.0  0.68865  0.56517  0.60195  1.0000
  H   H5        1.0  0.53678  0.81267  0.67972  1.0000
  H   H6        1.0  0.53247  0.70965  0.80706  1.0000
  H   H7        1.0  0.30084  0.9520700000000001  0.7749100000000002  1.0000
  H   H8        1.0  0.05191999999999999  0.20471000000000003  0.9298200000000001  1.0000
  H   H9        1.0  0.04476000000000001  0.98562  0.68472  1.0000
  H   H10       1.0  0.30818  0.06418  0.89722  1.0000
  H   H11       1.0  0.46584  0.31365  0.8200300000000003  1.0000
  H   H12       1.0  0.4659  0.20964  0.6934  1.0000
  H   H13       1.0  0.30352  0.54755  0.2762200000000001  1.0000
  H   H14       1.0  0.05262  0.29214  0.43035  1.0000
  H   H15       1.0  0.047599999999999996  0.51409  0.18574  1.0000
  H   H16       1.0  0.30996  0.43383000000000005  0.39824  1.0000
  H   H17       1.0  0.46196  0.18765  0.31906  1.0000
  H   H18       1.0  0.46698  0.29131  0.19217  1.0000
  H   H19       1.0  0.69926  0.04752000000000001  0.22489000000000003  1.0000
  H   H20       1.0  0.94795  0.79464  0.07009000000000003  1.0000
  H   H21       1.0  0.9549199999999999  0.013730000000000003  0.31524  1.0000
  H   H22       1.0  0.69112  0.93538  0.10267  1.0000
  H   H23       1.0  0.53268  0.6863  0.17905  1.0000
  H   H24       1.0  0.53346  0.78893  0.30592  1.0000
  C   C1        1.0  0.26145000000000007  0.63006  0.7923900000000003  1.0000
  C   C2        1.0  0.41601  0.7586900000000001  0.69827  1.0000
  C   C3        1.0  0.10168999999999996  0.67707  0.67223  1.0000
  C   C4        1.0  0.26014  0.75138  0.6517  1.0000
  C   C5        1.0  0.10292  0.61348  0.74336  1.0000
  C   C6        1.0  0.26320000000000005  0.5802  0.87165  1.0000
  C   C7        1.0  0.26155  0.83204  0.58407  1.0000
  C   C8        1.0  0.4147  0.6999900000000001  0.76899  1.0000
  C   C9        1.0  0.80785  0.51518  0.70993  1.0000
  C   C10       1.0  0.94754  0.65851  0.62288  1.0000
  C   C11       1.0  0.9522000000000002  0.53361  0.76065  1.0000
  C   C12       1.0  0.8049399999999998  0.57875  0.6406300000000003  1.0000
  C   C13       1.0  0.73421  0.12896  0.70757  1.0000
  C   C14       1.0  0.585  0.25889  0.802  1.0000
  C   C15       1.0  0.8968199999999998  0.17581  0.82722  1.0000
  C   C16       1.0  0.74037  0.25050000000000006  0.8489300000000002  1.0000
  C   C17       1.0  0.89401  0.11235  0.7559600000000002  1.0000
  C   C18       1.0  0.72714  0.08011  0.62833  1.0000
  C   C19       1.0  0.74419  0.33157000000000003  0.91677  1.0000
  C   C20       1.0  0.5840699999999999  0.19986  0.7314  1.0000
  C   C21       1.0  0.1895  0.01481  0.78893  1.0000
  C   C22       1.0  0.051029999999999985  0.15698  0.87623  1.0000
  C   C23       1.0  0.04456999999999999  0.03313  0.73844  1.0000
  C   C24       1.0  0.19266000000000003  0.07761  0.85833  1.0000
  C   C25       1.0  0.73705  0.371  0.20734000000000005  1.0000
  C   C26       1.0  0.58328  0.24148  0.30116  1.0000
  C   C27       1.0  0.89707  0.32287  0.3276200000000001  1.0000
  C   C28       1.0  0.73892  0.24817  0.34807000000000005  1.0000
  C   C29       1.0  0.89564  0.38692  0.25652  1.0000
  C   C30       1.0  0.73555  0.42040000000000005  0.12794000000000003  1.0000
  C   C31       1.0  0.73798  0.16669  0.41506  1.0000
  C   C32       1.0  0.58443  0.30066  0.23050000000000004  1.0000
  C   C33       1.0  0.19157  0.48448  0.29013  1.0000
  C   C34       1.0  0.05144  0.34088  0.37702  1.0000
  C   C35       1.0  0.04704  0.4664100000000001  0.23942  1.0000
  C   C36       1.0  0.19405  0.42086  0.35942  1.0000
  C   C37       1.0  0.26458  0.8705000000000003  0.29228  1.0000
  C   C38       1.0  0.41378  0.7406300000000001  0.19782000000000002  1.0000
  C   C39       1.0  0.10235  0.8235700000000001  0.17247  1.0000
  C   C40       1.0  0.25858999999999993  0.7485600000000001  0.15094  1.0000
  C   C41       1.0  0.10552000000000002  0.8873500000000001  0.24361000000000002  1.0000
  C   C42       1.0  0.27195999999999987  0.9199  0.37152  1.0000
  C   C43       1.0  0.25752  0.66661  0.0833  1.0000
  C   C44       1.0  0.41483  0.7996000000000001  0.26839  1.0000
  C   C45       1.0  0.8107399999999998  0.9851100000000003  0.21074  1.0000
  C   C46       1.0  0.9484699999999998  0.8427400000000002  0.1235  1.0000
  C   C47       1.0  0.95532  0.9666700000000003  0.26135  1.0000
  C   C48       1.0  0.80732  0.92247  0.14131  1.0000
  O   O1        1.0  0.11009999999999993  0.58911  0.9122800000000002  1.0000
  O   O2        1.0  0.41357  0.84339  0.54352  1.0000
  O   O3        1.0  0.10837999999999995  0.8918400000000001  0.57494  1.0000
  O   O4        1.0  0.41826  0.5341  0.8941  1.0000
  O   O5        1.0  0.87972  0.08545  0.58657  1.0000
  O   O6        1.0  0.59448  0.34432  0.95919  1.0000
  O   O7        1.0  0.8978499999999999  0.38951  0.92421  1.0000
  O   O8        1.0  0.56835  0.03942  0.60574  1.0000
  O   O9        1.0  0.88729  0.41234  0.08719  1.0000
  O   O10       1.0  0.58365  0.15357  0.45537000000000005  1.0000
  O   O11       1.0  0.89303  0.10791  0.42525  1.0000
  O   O12       1.0  0.5793199999999998  0.4652800000000001  0.10502  1.0000
  O   O13       1.0  0.11987000000000002  0.91585  0.41395  1.0000
  O   O14       1.0  0.40998  0.65451  0.04166  1.0000
  O   O15       1.0  0.10535  0.60859  0.07473  1.0000
  O   O16       1.0  0.43118  0.96004  0.39376  1.0000
