data_image0
_chemical_formula_structural       Ni4H28C36N8O20
_chemical_formula_sum              "Ni4 H28 C36 N8 O20"
_cell_length_a       4.97493
_cell_length_b       8.55157
_cell_length_c       28.086
_cell_angle_alpha    90.0
_cell_angle_beta     90.29606999999999
_cell_angle_gamma    90.0

_space_group_name_H-M_alt    "P 1"
_space_group_IT_number       1

loop_
  _space_group_symop_operation_xyz
  'x, y, z'

loop_
  _atom_site_type_symbol
  _atom_site_label
  _atom_site_symmetry_multiplicity
  _atom_site_fract_x
  _atom_site_fract_y
  _atom_site_fract_z
  _atom_site_occupancy
  Ni  Ni1       1.0  0.005940000000000001  0.2518  0.28011  1.0000
  Ni  Ni2       1.0  0.9940599999999998  0.25181  0.7199  1.0000
  Ni  Ni3       1.0  0.50924  0.75174  0.21329  1.0000
  Ni  Ni4       1.0  0.49078999999999995  0.75176  0.78671  1.0000
  H   H1        1.0  0.72284  0.37868  0.4031700000000001  1.0000
  H   H2        1.0  0.88232  0.1352  0.15670000000000006  1.0000
  H   H3        1.0  0.10996  0.36993  0.13967000000000002  1.0000
  H   H4        1.0  0.38354  0.24946999999999997  0.15724  1.0000
  H   H5        1.0  0.48637  0.36612  0.32477  1.0000
  H   H6        1.0  0.89106  0.07776  0.37702  1.0000
  H   H7        1.0  0.08463  0.09186  0.46031  1.0000
  H   H8        1.0  0.27716  0.37869  0.5968300000000002  1.0000
  H   H9        1.0  0.11771  0.13523  0.84331  1.0000
  H   H10       1.0  0.89002  0.36996  0.8603300000000003  1.0000
  H   H11       1.0  0.61647  0.24946999999999997  0.84276  1.0000
  H   H12       1.0  0.51362  0.36615  0.67523  1.0000
  H   H13       1.0  0.10894999999999999  0.07778  0.62299  1.0000
  H   H14       1.0  0.9153899999999999  0.09187  0.5397000000000001  1.0000
  H   H15       1.0  0.2193  0.60886  0.09777000000000002  1.0000
  H   H16       1.0  0.35417  0.86668  0.33232  1.0000
  H   H17       1.0  0.57991  0.63324  0.354  1.0000
  H   H18       1.0  0.85917  0.75508  0.3414700000000001  1.0000
  H   H19       1.0  0.9776499999999999  0.62535  0.17562000000000005  1.0000
  H   H20       1.0  0.38869  0.91355  0.12040000000000001  1.0000
  H   H21       1.0  0.58698  0.89634  0.03791  1.0000
  H   H22       1.0  0.78072  0.60886  0.9022400000000003  1.0000
  H   H23       1.0  0.64585  0.86669  0.6676800000000003  1.0000
  H   H24       1.0  0.42014  0.63325  0.646  1.0000
  H   H25       1.0  0.14084999999999998  0.75511  0.6585300000000001  1.0000
  H   H26       1.0  0.02236  0.62536  0.82439  1.0000
  H   H27       1.0  0.6113199999999999  0.9135599999999999  0.8796000000000003  1.0000
  H   H28       1.0  0.41305000000000003  0.89635  0.9620900000000002  1.0000
  C   C1        1.0  0.54319  0.30793  0.39899  1.0000
  C   C2        1.0  0.99493  0.18250999999999998  0.1875  1.0000
  C   C3        1.0  0.19911  0.30671  0.16977000000000003  1.0000
  C   C4        1.0  0.15948999999999997  0.04864  0.21122000000000005  1.0000
  C   C5        1.0  0.2876  0.42855  0.20658000000000007  1.0000
  C   C6        1.0  0.40617999999999993  0.30477  0.3553600000000001  1.0000
  C   C7        1.0  0.42458  0.23099  0.43781  1.0000
  C   C8        1.0  0.06576000000000001  0.14866  0.3856000000000001  1.0000
  C   C9        1.0  0.18264  0.15155  0.43099000000000004  1.0000
  C   C10       1.0  0.45682  0.30794  0.6010100000000003  1.0000
  C   C11       1.0  0.005080000000000006  0.18253  0.8125100000000002  1.0000
  C   C12       1.0  0.8009  0.30673  0.8302300000000002  1.0000
  C   C13       1.0  0.84049  0.04859  0.78878  1.0000
  C   C14       1.0  0.7124  0.42855  0.7934300000000002  1.0000
  C   C15       1.0  0.5938200000000001  0.30479  0.6446500000000002  1.0000
  C   C16       1.0  0.57543  0.231  0.5621900000000001  1.0000
  C   C17       1.0  0.9342499999999999  0.14867  0.6144000000000001  1.0000
  C   C18       1.0  0.81737  0.15156  0.56901  1.0000
  C   C19       1.0  0.04033  0.68047  0.10114000000000002  1.0000
  C   C20       1.0  0.48655999999999994  0.8197  0.3042700000000001  1.0000
  C   C21       1.0  0.68134  0.6982  0.3256400000000001  1.0000
  C   C22       1.0  0.65018  0.95204  0.28225  1.0000
  C   C23       1.0  0.7822299999999999  0.577  0.28982000000000013  1.0000
  C   C24       1.0  0.9029  0.68588  0.14437000000000003  1.0000
  C   C25       1.0  0.92424  0.75663  0.06183000000000002  1.0000
  C   C26       1.0  0.56371  0.8426  0.11247000000000003  1.0000
  C   C27       1.0  0.68291  0.83709  0.06764  1.0000
  C   C28       1.0  0.9596799999999999  0.68048  0.89887  1.0000
  C   C29       1.0  0.51346  0.81972  0.6957300000000002  1.0000
  C   C30       1.0  0.31869  0.69822  0.67435  1.0000
  C   C31       1.0  0.3498299999999999  0.9520499999999998  0.7177600000000002  1.0000
  C   C32       1.0  0.21778  0.57702  0.7101900000000001  1.0000
  C   C33       1.0  0.09711  0.68589  0.8556300000000002  1.0000
  C   C34       1.0  0.07578  0.75664  0.9381800000000002  1.0000
  C   C35       1.0  0.43629  0.84261  0.8875300000000003  1.0000
  C   C36       1.0  0.3171  0.8371  0.9323700000000003  1.0000
  N   N1        1.0  0.177  0.22597  0.34842  1.0000
  N   N2        1.0  0.57188  0.23415  0.48141000000000006  1.0000
  N   N3        1.0  0.823  0.22599  0.6515800000000003  1.0000
  N   N4        1.0  0.42813  0.23415  0.51859  1.0000
  N   N5        1.0  0.6757  0.76672  0.15013000000000007  1.0000
  N   N6        1.0  0.07185  0.7519  0.018750000000000006  1.0000
  N   N7        1.0  0.3243  0.76673  0.84988  1.0000
  N   N8        1.0  0.9281799999999999  0.75191  0.9812500000000002  1.0000
  O   O1        1.0  0.23279999999999998  0.93568  0.18538000000000002  1.0000
  O   O2        1.0  0.28526999999999997  0.40466  0.25057  1.0000
  O   O3        1.0  0.36385999999999996  0.55586  0.18592000000000006  1.0000
  O   O4        1.0  0.21264  0.0712  0.25467  1.0000
  O   O5        1.0  0.8225099999999999  0.24637  0.22090000000000007  1.0000
  O   O6        1.0  0.76732  0.93572  0.8146100000000002  1.0000
  O   O7        1.0  0.71471  0.40467  0.74943  1.0000
  O   O8        1.0  0.63612  0.55587  0.8140900000000002  1.0000
  O   O9        1.0  0.7873599999999998  0.07122  0.74534  1.0000
  O   O10       1.0  0.17749  0.24639  0.7791000000000001  1.0000
  O   O11       1.0  0.73291  0.0655  0.30679  1.0000
  O   O12       1.0  0.78866  0.6022  0.24537  1.0000
  O   O13       1.0  0.85785  0.44982  0.30968  1.0000
  O   O14       1.0  0.70552  0.92842  0.23801000000000003  1.0000
  O   O15       1.0  0.32269  0.75211  0.26899  1.0000
  O   O16       1.0  0.2671  0.06552  0.69321  1.0000
  O   O17       1.0  0.2114  0.60222  0.7546300000000002  1.0000
  O   O18       1.0  0.14214000000000002  0.44987  0.6903300000000002  1.0000
  O   O19       1.0  0.29450000000000004  0.92844  0.7620000000000002  1.0000
  O   O20       1.0  0.67732  0.75212  0.73101  1.0000
