data_image0
_chemical_formula_structural       Tb4H20C36N4O24
_chemical_formula_sum              "Tb4 H20 C36 N4 O24"
_cell_length_a       7.19171
_cell_length_b       12.81399
_cell_length_c       15.638480000000001
_cell_angle_alpha    89.95777999999999
_cell_angle_beta     105.64481999999998
_cell_angle_gamma    90.12835

_space_group_name_H-M_alt    "P 1"
_space_group_IT_number       1

loop_
  _space_group_symop_operation_xyz
  'x, y, z'

loop_
  _atom_site_type_symbol
  _atom_site_label
  _atom_site_symmetry_multiplicity
  _atom_site_fract_x
  _atom_site_fract_y
  _atom_site_fract_z
  _atom_site_occupancy
  Tb  Tb1       1.0  0.54804  0.06348  0.7446  1.0000
  Tb  Tb2       1.0  0.9567700000000001  0.56332  0.25808  1.0000
  Tb  Tb3       1.0  0.45188  0.93664  0.25769  1.0000
  Tb  Tb4       1.0  0.061959999999999925  0.43904000000000004  0.7442999999999999  1.0000
  H   H1        1.0  0.65753  0.46204  0.54461  1.0000
  H   H2        1.0  0.48246  0.32175  0.29691  1.0000
  H   H3        1.0  0.5903999999999999  0.12742  0.52995  1.0000
  H   H4        1.0  0.13047999999999993  0.07685  0.96828  1.0000
  H   H5        1.0  0.96064  0.11072  0.0293  1.0000
  H   H6        1.0  0.8472799999999999  0.96265  0.4561899999999999  1.0000
  H   H7        1.0  0.009419999999999916  0.8214  0.7036399999999998  1.0000
  H   H8        1.0  0.91517  0.62787  0.47062999999999994  1.0000
  H   H9        1.0  0.37289  0.57675  0.03445  1.0000
  H   H10       1.0  0.54315  0.61203  0.9739  1.0000
  H   H11       1.0  0.35047  0.53686  0.4587799999999999  1.0000
  H   H12       1.0  0.51809  0.68085  0.70505  1.0000
  H   H13       1.0  0.41534  0.8722  0.4704999999999999  1.0000
  H   H14       1.0  0.8695  0.92159  0.03309  1.0000
  H   H15       1.0  0.042129999999999924  0.88888  0.9735099999999998  1.0000
  H   H16       1.0  0.15285999999999994  0.0382  0.54348  1.0000
  H   H17       1.0  0.9842799999999999  0.18  0.29621  1.0000
  H   H18       1.0  0.09219999999999999  0.37303  0.52993  1.0000
  H   H19       1.0  0.6386799999999998  0.42392  0.9708999999999998  1.0000
  H   H20       1.0  0.46443  0.389  0.02954  1.0000
  C   C1        1.0  0.67734  0.29196  0.6491  1.0000
  C   C2        1.0  0.62955  0.29518  0.55016  1.0000
  C   C3        1.0  0.6216899999999999  0.39082000000000006  0.50579  1.0000
  C   C4        1.0  0.52803  0.31289  0.36892  1.0000
  C   C5        1.0  0.54105  0.2129  0.40704  1.0000
  C   C6        1.0  0.5868099999999999  0.20408  0.4993599999999999  1.0000
  C   C7        1.0  0.5047100000000002  0.11715000000000002  0.35142  1.0000
  C   C8        1.0  0.83396  0.05939  0.89647  1.0000
  C   C9        1.0  0.9935499999999999  0.05547  0.9818499999999998  1.0000
  C   C10       1.0  0.8309899999999998  0.79288  0.35162  1.0000
  C   C11       1.0  0.87588  0.79585  0.45039  1.0000
  C   C12       1.0  0.88104  0.89125  0.49485  1.0000
  C   C13       1.0  0.9685700000000002  0.81282  0.63158  1.0000
  C   C14       1.0  0.9593100000000001  0.713  0.59328  1.0000
  C   C15       1.0  0.91726  0.70457  0.50103  1.0000
  C   C16       1.0  0.9976899999999996  0.61687  0.6484699999999998  1.0000
  C   C17       1.0  0.6699199999999998  0.56119  0.10698  1.0000
  C   C18       1.0  0.5107  0.5564  0.02141  1.0000
  C   C19       1.0  0.33274999999999993  0.70663  0.35238  1.0000
  C   C20       1.0  0.37786  0.70413  0.45129  1.0000
  C   C21       1.0  0.3845100000000001  0.60895  0.4965  1.0000
  C   C22       1.0  0.47478  0.68851  0.63286  1.0000
  C   C23       1.0  0.4628999999999999  0.78809  0.5939  1.0000
  C   C24       1.0  0.41863  0.7958199999999999  0.50154  1.0000
  C   C25       1.0  0.4992699999999999  0.88403  0.6495099999999998  1.0000
  C   C26       1.0  0.16576  0.93953  0.10665  1.0000
  C   C27       1.0  0.00735  0.94365  0.02078  1.0000
  C   C28       1.0  0.17678999999999986  0.2086  0.6484999999999997  1.0000
  C   C29       1.0  0.12850000000000006  0.20512  0.54966  1.0000
  C   C30       1.0  0.11930999999999996  0.10966  0.50494  1.0000
  C   C31       1.0  0.02827999999999999  0.18830999999999998  0.36829  1.0000
  C   C32       1.0  0.04107999999999999  0.28809  0.40686  1.0000
  C   C33       1.0  0.08742999999999997  0.29644  0.4991599999999999  1.0000
  C   C34       1.0  0.004559999999999991  0.3843  0.35198  1.0000
  C   C35       1.0  0.34386  0.44043999999999994  0.89613  1.0000
  C   C36       1.0  0.4997799999999999  0.44455  0.98272  1.0000
  N   N1        1.0  0.5659  0.40091000000000004  0.4169399999999999  1.0000
  N   N2        1.0  0.93186  0.9009799999999999  0.58373  1.0000
  N   N3        1.0  0.43745  0.6  0.5855  1.0000
  N   N4        1.0  0.06523  0.10006  0.41601  1.0000
  O   O1        1.0  0.62817  0.21127  0.6851999999999998  1.0000
  O   O2        1.0  0.7627  0.37015  0.6935  1.0000
  O   O3        1.0  0.50451  0.1205  0.2692999999999999  1.0000
  O   O4        1.0  0.47635999999999995  0.0308  0.38796999999999987  1.0000
  O   O5        1.0  0.87546  0.05263000000000001  0.8218199999999998  1.0000
  O   O6        1.0  0.65682  0.06718  0.8993599999999998  1.0000
  O   O7        1.0  0.87627  0.71117  0.31583999999999995  1.0000
  O   O8        1.0  0.75129  0.87205  0.30686999999999987  1.0000
  O   O9        1.0  0.00042999999999986853  0.61933  0.7310799999999997  1.0000
  O   O10       1.0  0.027269999999999864  0.53104  0.6117999999999998  1.0000
  O   O11       1.0  0.62864  0.555  0.18171999999999994  1.0000
  O   O12       1.0  0.84714  0.56903  0.10409  1.0000
  O   O13       1.0  0.37273999999999996  0.78902  0.3156  1.0000
  O   O14       1.0  0.25726  0.62628  0.308  1.0000
  O   O15       1.0  0.50382  0.87957  0.7321  1.0000
  O   O16       1.0  0.52365  0.97148  0.6136199999999998  1.0000
  O   O17       1.0  0.12463  0.94938  0.18116  1.0000
  O   O18       1.0  0.34287999999999996  0.92924  0.1041  1.0000
  O   O19       1.0  0.14333999999999994  0.29276  0.6846199999999998  1.0000
  O   O20       1.0  0.24795  0.12776  0.69331  1.0000
  O   O21       1.0  0.99974  0.38122999999999996  0.26919  1.0000
  O   O22       1.0  0.98101  0.47090999999999994  0.38922  1.0000
  O   O23       1.0  0.38866  0.45045  0.82243  1.0000
  O   O24       1.0  0.16568999999999995  0.42915999999999993  0.89696  1.0000
