data_image0
_chemical_formula_structural       La4H6C30O24
_chemical_formula_sum              "La4 H6 C30 O24"
_cell_length_a       9.10489
_cell_length_b       10.680580000000003
_cell_length_c       10.79819
_cell_angle_alpha    85.89863
_cell_angle_beta     83.56483
_cell_angle_gamma    81.05545

_symmetry_space_group_name_H-M    'P 1'
_symmetry_Int_Tables_number       1

loop_
  _symmetry_equiv_pos_as_xyz
  'x,y,z'

loop_
  _atom_site_type_symbol
  _atom_site_label
  _atom_site_symmetry_multiplicity
  _atom_site_fract_x
  _atom_site_fract_y
  _atom_site_fract_z
  _atom_site_occupancy
  La  La1       1.0  0.54229  0.7406299999999999  0.70277  1.0000
  La  La2       1.0  0.4742  0.81922  0.30558  1.0000
  La  La3       1.0  0.45772000000000007  0.25937  0.29723  1.0000
  La  La4       1.0  0.5258  0.18078  0.6944299999999999  1.0000
  H   H1        1.0  0.056740000000000006  0.0937  0.7869299999999999  1.0000
  H   H2        1.0  0.07874000000000003  0.85307  0.6786899999999999  1.0000
  H   H3        1.0  0.010270000000000003  0.64529  0.31011999999999995  1.0000
  H   H4        1.0  0.94327  0.90629  0.21308  1.0000
  H   H5        1.0  0.9212699999999999  0.14692  0.32130999999999993  1.0000
  H   H6        1.0  0.9897300000000001  0.3547  0.68988  1.0000
  C   C1        1.0  0.30266  0.97091  0.87427  1.0000
  C   C2        1.0  0.14897999999999995  0.98491  0.9440699999999997  1.0000
  C   C3        1.0  0.03310999999999997  0.05264  0.8808099999999999  1.0000
  C   C4        1.0  0.88442  0.06754  0.93454  1.0000
  C   C5        1.0  0.7643700000000001  0.13078000000000004  0.8571699999999998  1.0000
  C   C6        1.0  0.78325  0.87974  0.6580999999999999  1.0000
  C   C7        1.0  0.8969499999999999  0.93731  0.57432  1.0000
  C   C8        1.0  0.04593000000000003  0.9158099999999999  0.5994399999999999  1.0000
  C   C9        1.0  0.14879999999999996  0.98045  0.5262  1.0000
  C   C10       1.0  0.3049799999999999  0.96795  0.56118  1.0000
  C   C11       1.0  0.28859  0.54518  0.3665099999999999  1.0000
  C   C12       1.0  0.14061  0.51835  0.43526  1.0000
  C   C13       1.0  0.007239999999999993  0.58021  0.3923599999999999  1.0000
  C   C14       1.0  0.8677699999999999  0.56267  0.45571999999999996  1.0000
  C   C15       1.0  0.72995  0.63542  0.40799  1.0000
  C   C16       1.0  0.69735  0.029080000000000005  0.12573  1.0000
  C   C17       1.0  0.85102  0.015079999999999998  0.05593  1.0000
  C   C18       1.0  0.9669000000000001  0.9473499999999999  0.1192  1.0000
  C   C19       1.0  0.11559000000000001  0.93245  0.06547  1.0000
  C   C20       1.0  0.23563999999999996  0.86921  0.14283  1.0000
  C   C21       1.0  0.21676  0.12026  0.3419  1.0000
  C   C22       1.0  0.10306000000000001  0.06269  0.42568  1.0000
  C   C23       1.0  0.95408  0.08418000000000002  0.40056  1.0000
  C   C24       1.0  0.8512100000000001  0.019550000000000005  0.4737999999999999  1.0000
  C   C25       1.0  0.69503  0.03205  0.4388199999999999  1.0000
  C   C26       1.0  0.71142  0.45482  0.6334899999999999  1.0000
  C   C27       1.0  0.8594000000000002  0.48165  0.5647399999999999  1.0000
  C   C28       1.0  0.9927700000000002  0.41978  0.6076399999999998  1.0000
  C   C29       1.0  0.13224  0.43732999999999994  0.54428  1.0000
  C   C30       1.0  0.27006  0.36457  0.5920199999999999  1.0000
  O   O1        1.0  0.38475  0.8568700000000001  0.54985  1.0000
  O   O2        1.0  0.62156  0.68016  0.48918999999999996  1.0000
  O   O3        1.0  0.62808  0.14588  0.90507  1.0000
  O   O4        1.0  0.79972  0.16202  0.7423899999999999  1.0000
  O   O5        1.0  0.34697  0.06258  0.59993  1.0000
  O   O6        1.0  0.36363000000000006  0.06896000000000001  0.8517099999999999  1.0000
  O   O7        1.0  0.71855  0.65629  0.29277999999999993  1.0000
  O   O8        1.0  0.8096299999999998  0.7681700000000001  0.70673  1.0000
  O   O9        1.0  0.6496799999999999  0.9441499999999999  0.6751  1.0000
  O   O10       1.0  0.34543  0.63547  0.4001499999999999  1.0000
  O   O11       1.0  0.3478200000000001  0.47533  0.27559  1.0000
  O   O12       1.0  0.35511  0.86138  0.8308799999999997  1.0000
  O   O13       1.0  0.61526  0.14312  0.4501499999999999  1.0000
  O   O14       1.0  0.37845000000000006  0.31983  0.51081  1.0000
  O   O15       1.0  0.3719199999999999  0.85411  0.09492999999999999  1.0000
  O   O16       1.0  0.20028999999999997  0.8379700000000001  0.25762  1.0000
  O   O17       1.0  0.65304  0.93741  0.40007  1.0000
  O   O18       1.0  0.6363799999999998  0.9310399999999999  0.1483  1.0000
  O   O19       1.0  0.28146  0.34371  0.7072199999999998  1.0000
  O   O20       1.0  0.19038000000000002  0.23181999999999997  0.29327  1.0000
  O   O21       1.0  0.35032  0.055839999999999994  0.3249  1.0000
  O   O22       1.0  0.65458  0.36452  0.59985  1.0000
  O   O23       1.0  0.65218  0.52466  0.72441  1.0000
  O   O24       1.0  0.6449  0.13862  0.16912999999999997  1.0000
