data_image0
_chemical_formula_structural       LaCo3H30C18S6N6O12
_chemical_formula_sum              "La1 Co3 H30 C18 S6 N6 O12"
_cell_length_a       8.99145
_cell_length_b       8.99165
_cell_length_c       13.38263
_cell_angle_alpha    69.91729
_cell_angle_beta     70.02455
_cell_angle_gamma    59.36053999999999

_space_group_name_H-M_alt    "P 1"
_space_group_IT_number       1

loop_
  _space_group_symop_operation_xyz
  'x, y, z'

loop_
  _atom_site_type_symbol
  _atom_site_label
  _atom_site_symmetry_multiplicity
  _atom_site_fract_x
  _atom_site_fract_y
  _atom_site_fract_z
  _atom_site_occupancy
  La  La1       1.0  0.0028299999999998305  0.9967400000000002  0.99953  1.0000
  Co  Co1       1.0  0.5651699999999998  0.57071  0.29264  1.0000
  Co  Co2       1.0  0.42786  0.43502  0.70824  1.0000
  Co  Co3       1.0  0.48563999999999996  0.51466  0.50158  1.0000
  H   H1        1.0  0.53619  0.8278000000000002  0.11132  1.0000
  H   H2        1.0  0.33281999999999984  0.8875100000000002  0.18666  1.0000
  H   H3        1.0  0.35538000000000003  0.94729  0.38987  1.0000
  H   H4        1.0  0.53111  0.007379999999999995  0.35563  1.0000
  H   H5        1.0  0.39026  0.09965  0.19802  1.0000
  H   H6        1.0  0.81973  0.5179600000000002  0.11119999999999998  1.0000
  H   H7        1.0  0.8769500000000001  0.5945700000000002  0.18152999999999997  1.0000
  H   H8        1.0  0.9430000000000001  0.31090000000000007  0.38893  1.0000
  H   H9        1.0  0.008519999999999995  0.10385000000000001  0.35907999999999995  1.0000
  H   H10       1.0  0.09423000000000001  0.31183  0.19811  1.0000
  H   H11       1.0  0.5272600000000001  0.52515  0.11534  1.0000
  H   H12       1.0  0.5927899999999999  0.32482  0.19416  1.0000
  H   H13       1.0  0.29907999999999996  0.36169000000000007  0.39622999999999997  1.0000
  H   H14       1.0  0.09712000000000001  0.53844  0.35837  1.0000
  H   H15       1.0  0.30887  0.3871800000000001  0.20527999999999996  1.0000
  H   H16       1.0  0.48199999999999993  0.17601  0.88918  1.0000
  H   H17       1.0  0.4061700000000002  0.12073999999999999  0.81724  1.0000
  H   H18       1.0  0.68686  0.05828999999999999  0.61054  1.0000
  H   H19       1.0  0.8948899999999999  0.9914100000000005  0.63971  1.0000
  H   H20       1.0  0.6897799999999997  0.9039300000000003  0.8009899999999998  1.0000
  H   H21       1.0  0.47759000000000007  0.46882  0.88584  1.0000
  H   H22       1.0  0.6759200000000002  0.40598999999999996  0.80533  1.0000
  H   H23       1.0  0.6379700000000004  0.70174  0.60493  1.0000
  H   H24       1.0  0.46062000000000003  0.9026999999999998  0.64393  1.0000
  H   H25       1.0  0.6117800000000003  0.6898300000000002  0.79699  1.0000
  H   H26       1.0  0.17081000000000007  0.46313999999999994  0.88941  1.0000
  H   H27       1.0  0.11036000000000004  0.6669400000000002  0.8139099999999998  1.0000
  H   H28       1.0  0.05273999999999989  0.6459200000000003  0.61044  1.0000
  H   H29       1.0  0.9912700000000001  0.4714800000000002  0.64323  1.0000
  H   H30       1.0  0.8992  0.6078  0.8023999999999999  1.0000
  C   C1        1.0  0.48826000000000036  0.92335  0.34092999999999996  1.0000
  C   C2        1.0  0.4932400000000002  0.96384  0.21884999999999996  1.0000
  C   C3        1.0  0.66946  0.96345  0.14908  1.0000
  C   C4        1.0  0.9218500000000001  0.24674999999999997  0.34214  1.0000
  C   C5        1.0  0.9601700000000001  0.32151  0.21944  1.0000
  C   C6        1.0  0.9653100000000001  0.21043000000000012  0.15156  1.0000
  C   C7        1.0  0.24034000000000005  0.49249  0.34417  1.0000
  C   C8        1.0  0.32194000000000006  0.49052000000000007  0.22306  1.0000
  C   C9        1.0  0.21811000000000005  0.66529  0.15024  1.0000
  C   C10       1.0  0.7521900000000002  0.07828000000000003  0.6571899999999999  1.0000
  C   C11       1.0  0.6789000000000003  0.03847000000000002  0.77993  1.0000
  C   C12       1.0  0.7903700000000001  0.033450000000000084  0.8474799999999999  1.0000
  C   C13       1.0  0.5073300000000001  0.75946  0.65714  1.0000
  C   C14       1.0  0.5091900000000004  0.67671  0.77829  1.0000
  C   C15       1.0  0.33407  0.7801900000000002  0.8505099999999999  1.0000
  C   C16       1.0  0.07565999999999998  0.51284  0.65896  1.0000
  C   C17       1.0  0.03539999999999996  0.50592  0.78124  1.0000
  C   C18       1.0  0.03746000000000005  0.32839  0.84983  1.0000
  S   S1        1.0  0.64243  0.6919900000000004  0.38589  1.0000
  S   S2        1.0  0.69316  0.27571  0.39191999999999994  1.0000
  S   S3        1.0  0.2722200000000002  0.64673  0.38621  1.0000
  S   S4        1.0  0.7241900000000001  0.3069  0.60795  1.0000
  S   S5        1.0  0.35228  0.7286  0.61503  1.0000
  S   S6        1.0  0.3066199999999999  0.35813  0.61444  1.0000
  N   N1        1.0  0.46336000000000016  0.8398  0.18877  1.0000
  N   N2        1.0  0.83244  0.5060200000000002  0.18742  1.0000
  N   N3        1.0  0.5078900000000001  0.45644000000000023  0.19387999999999997  1.0000
  N   N4        1.0  0.49428000000000005  0.16505000000000003  0.81248  1.0000
  N   N5        1.0  0.5439  0.49056  0.80697  1.0000
  N   N6        1.0  0.15863999999999998  0.53618  0.81191  1.0000
  O   O1        1.0  0.7145700000000001  0.06741999999999998  0.16174  1.0000
  O   O2        1.0  0.7563600000000001  0.8631700000000002  0.08135  1.0000
  O   O3        1.0  0.07175000000000001  0.04712000000000004  0.16619999999999996  1.0000
  O   O4        1.0  0.8664  0.2902  0.08288  1.0000
  O   O5        1.0  0.05554999999999998  0.71139  0.16089  1.0000
  O   O6        1.0  0.30159  0.74993  0.08286  1.0000
  O   O7        1.0  0.9533600000000001  0.9262400000000001  0.83372  1.0000
  O   O8        1.0  0.71104  0.13352  0.91521  1.0000
  O   O9        1.0  0.2870300000000002  0.9432800000000001  0.8389399999999999  1.0000
  O   O10       1.0  0.25007000000000007  0.69636  0.9182  1.0000
  O   O11       1.0  0.9351600000000001  0.28265999999999997  0.83572  1.0000
  O   O12       1.0  0.13728000000000007  0.24104000000000003  0.91809  1.0000
