data_image0
_chemical_formula_structural       Ag4H28C32N20
_chemical_formula_sum              "Ag4 H28 C32 N20"
_cell_length_a       4.07027
_cell_length_b       9.52098
_cell_length_c       25.830499999999997
_cell_angle_alpha    88.83766999999999
_cell_angle_beta     85.37041
_cell_angle_gamma    77.02986

_space_group_name_H-M_alt    "P 1"
_space_group_IT_number       1

loop_
  _space_group_symop_operation_xyz
  'x, y, z'

loop_
  _atom_site_type_symbol
  _atom_site_label
  _atom_site_symmetry_multiplicity
  _atom_site_fract_x
  _atom_site_fract_y
  _atom_site_fract_z
  _atom_site_occupancy
  Ag  Ag1       1.0  0.15998999999999997  0.00018999999999999996  0.46036000000000005  1.0000
  Ag  Ag2       1.0  0.60862  0.02544  0.53481  1.0000
  Ag  Ag3       1.0  0.37370000000000014  0.49591  0.03919  1.0000
  Ag  Ag4       1.0  0.8975299999999999  0.52163  0.96482  1.0000
  H   H1        1.0  0.32513999999999993  0.92847  0.29257  1.0000
  H   H2        1.0  0.9668399999999999  0.21391  0.30499  1.0000
  H   H3        1.0  0.20097  0.10145  0.22082  1.0000
  H   H4        1.0  0.6794700000000001  0.9830799999999998  0.12331  1.0000
  H   H5        1.0  0.69944  0.06332999999999998  0.03149  1.0000
  H   H6        1.0  0.015840000000000007  0.25869  0.00512  1.0000
  H   H7        1.0  0.43043999999999993  0.20346  0.1467  1.0000
  H   H8        1.0  0.53159  0.06936  0.70424  1.0000
  H   H9        1.0  0.48757  0.78751  0.68931  1.0000
  H   H10       1.0  0.5166400000000002  0.8979799999999999  0.7743100000000003  1.0000
  H   H11       1.0  0.76378  0.01724  0.86926  1.0000
  H   H12       1.0  0.76643  0.94896  0.96213  1.0000
  H   H13       1.0  0.2606899999999999  0.75875  0.99183  1.0000
  H   H14       1.0  0.77162  0.79366  0.8495500000000001  1.0000
  H   H15       1.0  0.36083000000000004  0.4235299999999999  0.20816000000000004  1.0000
  H   H16       1.0  0.023620000000000033  0.70515  0.19457  1.0000
  H   H17       1.0  0.16587999999999992  0.59799  0.27885  1.0000
  H   H18       1.0  0.5494200000000004  0.48492  0.37799000000000005  1.0000
  H   H19       1.0  0.47675000000000006  0.56865  0.46910000000000013  1.0000
  H   H20       1.0  0.7783400000000004  0.76095  0.49421  1.0000
  H   H21       1.0  0.32627999999999996  0.7023  0.35221000000000013  1.0000
  H   H22       1.0  0.9878400000000003  0.56301  0.7983900000000002  1.0000
  H   H23       1.0  0.9269  0.27676  0.8097200000000002  1.0000
  H   H24       1.0  0.039549999999999974  0.39183  0.72572  1.0000
  H   H25       1.0  0.37906  0.51719  0.6315  1.0000
  H   H26       1.0  0.47599999999999987  0.45222  0.53806  1.0000
  H   H27       1.0  0.9934100000000001  0.25867  0.50849  1.0000
  H   H28       1.0  0.36718  0.29213  0.65023  1.0000
  C   C1        1.0  0.4445200000000001  0.0061  0.30899  1.0000
  C   C2        1.0  0.84467  0.12601999999999997  0.31439  1.0000
  C   C3        1.0  0.9478200000000001  0.10723999999999999  0.20269000000000006  1.0000
  C   C4        1.0  0.9712000000000001  0.13259999999999997  0.14759  1.0000
  C   C5        1.0  0.79901  0.07114  0.11168  1.0000
  C   C6        1.0  0.81335  0.11523  0.05991000000000001  1.0000
  C   C7        1.0  0.011640000000000005  0.21385999999999997  0.04429000000000001  1.0000
  C   C8        1.0  0.21296000000000004  0.20005  0.12488000000000003  1.0000
  C   C9        1.0  0.7492700000000001  0.9946399999999999  0.68683  1.0000
  C   C10       1.0  0.28087000000000023  0.8752299999999998  0.68071  1.0000
  C   C11       1.0  0.25133000000000005  0.8926499999999999  0.79244  1.0000
  C   C12       1.0  0.24197000000000007  0.8694399999999999  0.8477200000000003  1.0000
  C   C13       1.0  0.96667  0.9337499999999999  0.8825200000000002  1.0000
  C   C14       1.0  0.9688800000000004  0.89535  0.9348500000000001  1.0000
  C   C15       1.0  0.25255  0.79855  0.9520200000000002  1.0000
  C   C16       1.0  0.5275099999999999  0.80261  0.8714  1.0000
  C   C17       1.0  0.5037600000000001  0.49832999999999994  0.19181  1.0000
  C   C18       1.0  0.91039  0.61742  0.18533  1.0000
  C   C19       1.0  0.8970199999999999  0.60422  0.29733  1.0000
  C   C20       1.0  0.86522  0.63345  0.35222  1.0000
  C   C21       1.0  0.6578399999999999  0.57322  0.3888600000000001  1.0000
  C   C22       1.0  0.6228500000000001  0.6186099999999999  0.4403500000000001  1.0000
  C   C23       1.0  0.8098000000000004  0.71597  0.4552  1.0000
  C   C24       1.0  0.08623000000000001  0.70103  0.37422  1.0000
  C   C25       1.0  0.18813999999999997  0.48454  0.81436  1.0000
  C   C26       1.0  0.7133400000000003  0.36404  0.81976  1.0000
  C   C27       1.0  0.7918599999999999  0.38795  0.70765  1.0000
  C   C28       1.0  0.83512  0.36664  0.65227  1.0000
  C   C29       1.0  0.5923600000000002  0.43241  0.6179100000000001  1.0000
  C   C30       1.0  0.6476800000000001  0.39602999999999994  0.5654300000000001  1.0000
  C   C31       1.0  0.9482800000000005  0.29938  0.54813  1.0000
  C   C32       1.0  0.14462999999999995  0.30067  0.62837  1.0000
  N   N1        1.0  0.4988099999999999  0.01621  0.35951000000000005  1.0000
  N   N2        1.0  0.7359100000000004  0.09349  0.36294  1.0000
  N   N3        1.0  0.6619200000000002  0.0729  0.27993  1.0000
  N   N4        1.0  0.66237  0.09288  0.22622000000000006  1.0000
  N   N5        1.0  0.23645000000000005  0.23822  0.07506  1.0000
  N   N6        1.0  0.86492  0.98878  0.63634  1.0000
  N   N7        1.0  0.18719999999999984  0.91201  0.63253  1.0000
  N   N8        1.0  0.006820000000000129  0.9253  0.71536  1.0000
  N   N9        1.0  0.9751000000000001  0.90607  0.76889  1.0000
  N   N10       1.0  0.53625  0.76883  0.92175  1.0000
  N   N11       1.0  0.61032  0.5053499999999999  0.14128  1.0000
  N   N12       1.0  0.85322  0.58172  0.13713  1.0000
  N   N13       1.0  0.6911500000000002  0.56636  0.22034000000000004  1.0000
  N   N14       1.0  0.63629  0.5885499999999999  0.27386  1.0000
  N   N15       1.0  0.06347  0.74042  0.4238  1.0000
  N   N16       1.0  0.2528500000000001  0.47292999999999996  0.8648300000000002  1.0000
  N   N17       1.0  0.57026  0.39501  0.86823  1.0000
  N   N18       1.0  0.47499000000000036  0.41831  0.78533  1.0000
  N   N19       1.0  0.49298999999999993  0.40113  0.73179  1.0000
  N   N20       1.0  0.20288  0.26863  0.5779  1.0000
