data_image0
_chemical_formula_structural       Cd4H12C8N12
_chemical_formula_sum              "Cd4 H12 C8 N12"
_cell_length_a       8.73792
_cell_length_b       8.73793
_cell_length_c       14.76633
_cell_angle_alpha    90.78168
_cell_angle_beta     90.78151
_cell_angle_gamma    90.51528999999998

_symmetry_space_group_name_H-M    'P 1'
_symmetry_Int_Tables_number       1

loop_
  _symmetry_equiv_pos_as_xyz
  'x,y,z'

loop_
  _atom_site_type_symbol
  _atom_site_label
  _atom_site_symmetry_multiplicity
  _atom_site_fract_x
  _atom_site_fract_y
  _atom_site_fract_z
  _atom_site_occupancy
  Cd  Cd1       1.0  0.49233  0.50767  0.25  1.0000
  Cd  Cd2       1.0  0.50767  0.49232  0.75  1.0000
  Cd  Cd3       1.0  0.5  0.0  0.0  1.0000
  Cd  Cd4       1.0  7.941127755698413e-19  0.5  0.5  1.0000
  H   H1        1.0  0.81059  0.90927  0.04682  1.0000
  H   H2        1.0  0.8079799999999999  0.09901000000000003  0.050650000000000014  1.0000
  H   H3        1.0  0.82563  0.00794  0.95214  1.0000
  H   H4        1.0  0.09072  0.18941000000000005  0.45318000000000014  1.0000
  H   H5        1.0  0.90098  0.19201  0.44935000000000014  1.0000
  H   H6        1.0  0.99205  0.17436  0.5478600000000002  1.0000
  H   H7        1.0  0.18940999999999997  0.09072000000000001  0.9531800000000002  1.0000
  H   H8        1.0  0.19200999999999996  0.90098  0.94935  1.0000
  H   H9        1.0  0.17436  0.9920600000000002  0.04786  1.0000
  H   H10       1.0  0.9092699999999999  0.8105800000000002  0.54682  1.0000
  H   H11       1.0  0.09901000000000001  0.80798  0.5506500000000002  1.0000
  H   H12       1.0  0.007940000000000003  0.8256300000000001  0.4521400000000001  1.0000
  C   C1        1.0  0.49252  0.7137400000000002  0.16324  1.0000
  C   C2        1.0  0.69817  0.50842  0.3404400000000001  1.0000
  C   C3        1.0  0.28626  0.50747  0.3367600000000001  1.0000
  C   C4        1.0  0.49157999999999996  0.30183  0.15956000000000006  1.0000
  C   C5        1.0  0.50747  0.28626  0.8367700000000002  1.0000
  C   C6        1.0  0.30183  0.4915800000000001  0.65956  1.0000
  C   C7        1.0  0.71373  0.49252  0.6632400000000002  1.0000
  C   C8        1.0  0.50842  0.69816  0.8404400000000002  1.0000
  N   N1        1.0  0.49173999999999995  0.8171  0.11352000000000001  1.0000
  N   N2        1.0  0.50888  0.80208  0.89147  1.0000
  N   N3        1.0  0.77424  0.00453  0.01381  1.0000
  N   N4        1.0  0.1829  0.50826  0.38648  1.0000
  N   N5        1.0  0.19792  0.49111000000000005  0.60854  1.0000
  N   N6        1.0  0.99546  0.22575000000000003  0.48619  1.0000
  N   N7        1.0  0.5082599999999999  0.18290000000000006  0.8864800000000003  1.0000
  N   N8        1.0  0.49112  0.19792  0.10853000000000003  1.0000
  N   N9        1.0  0.22575  0.9954600000000001  0.9861900000000002  1.0000
  N   N10       1.0  0.8171  0.49173000000000006  0.61352  1.0000
  N   N11       1.0  0.80208  0.50888  0.3914700000000001  1.0000
  N   N12       1.0  0.004530000000000004  0.77424  0.5138100000000001  1.0000
