data_image0
_chemical_formula_structural       Zn8H16C32O36
_chemical_formula_sum              "Zn8 H16 C32 O36"
_cell_length_a       8.90487
_cell_length_b       11.199889999999998
_cell_length_c       10.85917
_cell_angle_alpha    93.49618
_cell_angle_beta     90.51732
_cell_angle_gamma    90.32652

_space_group_name_H-M_alt    "P 1"
_space_group_IT_number       1

loop_
  _space_group_symop_operation_xyz
  'x, y, z'

loop_
  _atom_site_type_symbol
  _atom_site_label
  _atom_site_symmetry_multiplicity
  _atom_site_fract_x
  _atom_site_fract_y
  _atom_site_fract_z
  _atom_site_occupancy
  Zn  Zn1       1.0  0.82955  0.11262999999999998  0.7476299999999999  1.0000
  Zn  Zn2       1.0  0.45078  0.22855  0.028829999999999995  1.0000
  Zn  Zn3       1.0  0.334  0.38517  0.75243  1.0000
  Zn  Zn4       1.0  0.9423  0.27483  0.47258  1.0000
  Zn  Zn5       1.0  0.17044  0.8873699999999999  0.25237  1.0000
  Zn  Zn6       1.0  0.54923  0.77146  0.97116  1.0000
  Zn  Zn7       1.0  0.66601  0.61483  0.24756  1.0000
  Zn  Zn8       1.0  0.05770999999999999  0.7251699999999999  0.5274099999999999  1.0000
  H   H1        1.0  0.6525  0.96868  0.07455  1.0000
  H   H2        1.0  0.60607  0.07734  0.33807  1.0000
  H   H3        1.0  0.9176099999999999  0.003569999999999998  0.10900999999999998  1.0000
  H   H4        1.0  0.85195  0.24224999999999997  0.16023  1.0000
  H   H5        1.0  0.14509  0.53147  0.42541  1.0000
  H   H6        1.0  0.09457  0.42116999999999993  0.16243  1.0000
  H   H7        1.0  0.40863  0.49569  0.39371999999999996  1.0000
  H   H8        1.0  0.33873  0.25678  0.34115  1.0000
  H   H9        1.0  0.34751  0.031309999999999984  0.9254399999999998  1.0000
  H   H10       1.0  0.39393  0.9226499999999999  0.6619099999999999  1.0000
  H   H11       1.0  0.08239999999999999  0.9964399999999999  0.8909899999999997  1.0000
  H   H12       1.0  0.14806  0.75776  0.83976  1.0000
  H   H13       1.0  0.85491  0.4685299999999999  0.57458  1.0000
  H   H14       1.0  0.90543  0.57883  0.83757  1.0000
  H   H15       1.0  0.59137  0.50431  0.60627  1.0000
  H   H16       1.0  0.66127  0.74321  0.65884  1.0000
  C   C1        1.0  0.76174  0.15726  0.9919799999999998  1.0000
  C   C2        1.0  0.68616  0.97814  0.17217999999999997  1.0000
  C   C3        1.0  0.42096  0.04764999999999999  0.21144999999999997  1.0000
  C   C4        1.0  0.58578  0.0731  0.23801999999999995  1.0000
  C   C5        1.0  0.83917  0.04547999999999999  0.17539999999999997  1.0000
  C   C6        1.0  0.78009  0.16535  0.132  1.0000
  C   C7        1.0  0.6857  0.8578199999999999  0.22716999999999996  1.0000
  C   C8        1.0  0.91444  0.062029999999999995  0.30307  1.0000
  C   C9        1.0  0.25457  0.3424199999999999  0.50986  1.0000
  C   C10       1.0  0.17742999999999998  0.52127  0.32812  1.0000
  C   C11       1.0  0.90937  0.45082  0.28633  1.0000
  C   C12       1.0  0.0745  0.42587999999999987  0.26225  1.0000
  C   C13       1.0  0.32897999999999994  0.45321999999999996  0.3268899999999999  1.0000
  C   C14       1.0  0.2686  0.33343  0.36971999999999994  1.0000
  C   C15       1.0  0.17884  0.64158  0.27219  1.0000
  C   C16       1.0  0.40435  0.4364099999999999  0.20088  1.0000
  C   C17       1.0  0.23825999999999997  0.8427499999999999  0.008009999999999998  1.0000
  C   C18       1.0  0.31384  0.02185999999999999  0.8278  1.0000
  C   C19       1.0  0.57904  0.95235  0.78852  1.0000
  C   C20       1.0  0.41422  0.9268999999999997  0.7619599999999999  1.0000
  C   C21       1.0  0.16082  0.9545199999999999  0.8245899999999999  1.0000
  C   C22       1.0  0.21991  0.83466  0.8679899999999998  1.0000
  C   C23       1.0  0.3143  0.14219999999999997  0.7728199999999997  1.0000
  C   C24       1.0  0.08556  0.93797  0.69692  1.0000
  C   C25       1.0  0.74543  0.65758  0.49013  1.0000
  C   C26       1.0  0.82258  0.47872999999999993  0.6718799999999999  1.0000
  C   C27       1.0  0.09063  0.54918  0.71367  1.0000
  C   C28       1.0  0.9254999999999999  0.57412  0.73774  1.0000
  C   C29       1.0  0.67102  0.54678  0.67311  1.0000
  C   C30       1.0  0.7313999999999999  0.66657  0.6302699999999999  1.0000
  C   C31       1.0  0.82116  0.35842  0.7278399999999999  1.0000
  C   C32       1.0  0.59565  0.5635899999999999  0.7991199999999998  1.0000
  O   O1        1.0  0.634  0.18380999999999997  0.18791  1.0000
  O   O2        1.0  0.85457  0.1413  0.37631  1.0000
  O   O3        1.0  0.63636  0.18183  0.9431099999999998  1.0000
  O   O4        1.0  0.87507  0.12198999999999997  0.93007  1.0000
  O   O5        1.0  0.65842  0.76292  0.14869  1.0000
  O   O6        1.0  0.35484  0.09352  0.12137999999999999  1.0000
  O   O7        1.0  0.030230000000000003  0.004589999999999996  0.33133999999999997  1.0000
  O   O8        1.0  0.71185  0.8493  0.33721  1.0000
  O   O9        1.0  0.36301  0.97539  0.2833899999999999  1.0000
  O   O10       1.0  0.12153  0.31511  0.3128  1.0000
  O   O11       1.0  0.34908  0.35238  0.12863999999999998  1.0000
  O   O12       1.0  0.1284  0.32675999999999994  0.5604199999999999  1.0000
  O   O13       1.0  0.37349  0.3706  0.57022  1.0000
  O   O14       1.0  0.1592  0.73777  0.35028999999999993  1.0000
  O   O15       1.0  0.8416  0.40543  0.3753699999999999  1.0000
  O   O16       1.0  0.51606  0.49893999999999994  0.17368999999999998  1.0000
  O   O17       1.0  0.19974  0.64816  0.16151999999999997  1.0000
  O   O18       1.0  0.85262  0.52199  0.21228  1.0000
  O   O19       1.0  0.36601  0.8161899999999999  0.81209  1.0000
  O   O20       1.0  0.14543  0.85869  0.6236899999999999  1.0000
  O   O21       1.0  0.36363999999999996  0.81817  0.05689  1.0000
  O   O22       1.0  0.12492000000000002  0.878  0.06992  1.0000
  O   O23       1.0  0.34158  0.23708999999999997  0.8513199999999997  1.0000
  O   O24       1.0  0.64516  0.9064899999999999  0.8785999999999999  1.0000
  O   O25       1.0  0.96976  0.9953999999999998  0.66866  1.0000
  O   O26       1.0  0.28817  0.15068999999999994  0.6628099999999999  1.0000
  O   O27       1.0  0.63699  0.024610000000000003  0.71657  1.0000
  O   O28       1.0  0.87847  0.68489  0.6871999999999999  1.0000
  O   O29       1.0  0.65092  0.64763  0.8713499999999997  1.0000
  O   O30       1.0  0.8716  0.67324  0.43957  1.0000
  O   O31       1.0  0.62651  0.6294099999999998  0.4297699999999999  1.0000
  O   O32       1.0  0.84081  0.26223  0.64971  1.0000
  O   O33       1.0  0.1584  0.59457  0.62463  1.0000
  O   O34       1.0  0.48395  0.50106  0.8263  1.0000
  O   O35       1.0  0.80027  0.35185  0.83844  1.0000
  O   O36       1.0  0.14738  0.4780099999999999  0.7877199999999998  1.0000
