data_image0
_chemical_formula_structural       Y4H12C36O24
_chemical_formula_sum              "Y4 H12 C36 O24"
_cell_length_a       10.28902
_cell_length_b       11.6687
_cell_length_c       16.073880000000003
_cell_angle_alpha    89.91393999999998
_cell_angle_beta     89.88592
_cell_angle_gamma    97.92271000000001

_symmetry_space_group_name_H-M    'P 1'
_symmetry_Int_Tables_number       1

loop_
  _symmetry_equiv_pos_as_xyz
  'x,y,z'

loop_
  _atom_site_type_symbol
  _atom_site_label
  _atom_site_symmetry_multiplicity
  _atom_site_fract_x
  _atom_site_fract_y
  _atom_site_fract_z
  _atom_site_occupancy
  Y   Y1        1.0  0.15604  0.44324  0.90468  1.0000
  Y   Y2        1.0  0.34301999999999994  0.05878999999999999  0.40303  1.0000
  Y   Y3        1.0  0.8439499999999999  0.55675  0.09531999999999997  1.0000
  Y   Y4        1.0  0.65698  0.9412  0.59697  1.0000
  H   H1        1.0  0.60047  0.41096999999999995  0.95597  1.0000
  H   H2        1.0  0.4151799999999999  0.17828  0.77037  1.0000
  H   H3        1.0  0.83255  0.20327  0.80985  1.0000
  H   H4        1.0  0.89876  0.08945999999999998  0.45723999999999987  1.0000
  H   H5        1.0  0.08182999999999999  0.31963  0.26859  1.0000
  H   H6        1.0  0.66522  0.29542  0.31053  1.0000
  H   H7        1.0  0.39952999999999994  0.58902  0.044029999999999986  1.0000
  H   H8        1.0  0.5848099999999999  0.8217099999999999  0.22963  1.0000
  H   H9        1.0  0.16744  0.79672  0.19015  1.0000
  H   H10       1.0  0.10122999999999996  0.9105299999999998  0.54276  1.0000
  H   H11       1.0  0.9181699999999999  0.68036  0.73141  1.0000
  H   H12       1.0  0.33478  0.70458  0.6894699999999998  1.0000
  C   C1        1.0  0.8501599999999998  0.36444  0.93327  1.0000
  C   C2        1.0  0.36739999999999995  0.33743  0.88725  1.0000
  C   C3        1.0  0.63444  0.09554999999999998  0.7167099999999997  1.0000
  C   C4        1.0  0.73003  0.31157  0.88875  1.0000
  C   C5        1.0  0.60817  0.34584  0.90849  1.0000
  C   C6        1.0  0.49482  0.29748  0.86617  1.0000
  C   C7        1.0  0.50299  0.21547  0.8036  1.0000
  C   C8        1.0  0.62493  0.18195  0.78346  1.0000
  C   C9        1.0  0.73834  0.22978  0.82589  1.0000
  C   C10       1.0  0.6491099999999999  0.13366  0.43505  1.0000
  C   C11       1.0  0.13123  0.16369  0.38623  1.0000
  C   C12       1.0  0.86356  0.40194  0.2153  1.0000
  C   C13       1.0  0.7684099999999999  0.18748  0.3897199999999999  1.0000
  C   C14       1.0  0.8905399999999999  0.15393  0.40921  1.0000
  C   C15       1.0  0.0031800000000000027  0.20213  0.36587  1.0000
  C   C16       1.0  0.99434  0.28311  0.30265  1.0000
  C   C17       1.0  0.8723599999999998  0.31648  0.283  1.0000
  C   C18       1.0  0.7594299999999999  0.26906  0.32652  1.0000
  C   C19       1.0  0.14983  0.63555  0.06673  1.0000
  C   C20       1.0  0.6326  0.66256  0.11275  1.0000
  C   C21       1.0  0.36556  0.90445  0.28329  1.0000
  C   C22       1.0  0.26996  0.68842  0.11125  1.0000
  C   C23       1.0  0.39183  0.65416  0.09151  1.0000
  C   C24       1.0  0.5051799999999999  0.7025199999999998  0.13383  1.0000
  C   C25       1.0  0.49700999999999995  0.78452  0.1964  1.0000
  C   C26       1.0  0.37505999999999995  0.81804  0.21654  1.0000
  C   C27       1.0  0.26166  0.7702199999999999  0.17411  1.0000
  C   C28       1.0  0.35089  0.8663299999999999  0.56495  1.0000
  C   C29       1.0  0.8687699999999999  0.8362999999999998  0.61377  1.0000
  C   C30       1.0  0.13644  0.59806  0.7847  1.0000
  C   C31       1.0  0.23159  0.8125199999999999  0.61028  1.0000
  C   C32       1.0  0.10944999999999999  0.84607  0.59079  1.0000
  C   C33       1.0  0.9968199999999999  0.79787  0.63413  1.0000
  C   C34       1.0  0.00565999999999998  0.7168799999999999  0.69735  1.0000
  C   C35       1.0  0.12764  0.68352  0.717  1.0000
  C   C36       1.0  0.24056999999999998  0.73094  0.67348  1.0000
  O   O1        1.0  0.9605299999999998  0.33141  0.91616  1.0000
  O   O2        1.0  0.83865  0.44261999999999996  0.98754  1.0000
  O   O3        1.0  0.36354999999999993  0.4116899999999999  0.9459  1.0000
  O   O4        1.0  0.2628  0.30091  0.84589  1.0000
  O   O5        1.0  0.53065  0.04666  0.67998  1.0000
  O   O6        1.0  0.74755  0.0692  0.6957  1.0000
  O   O7        1.0  0.53854  0.16709  0.41958  1.0000
  O   O8        1.0  0.6615  0.054179999999999985  0.4882  1.0000
  O   O9        1.0  0.13689  0.09126  0.44603  1.0000
  O   O10       1.0  0.23445999999999995  0.19971  0.3430699999999999  1.0000
  O   O11       1.0  0.96744  0.44576  0.17583  1.0000
  O   O12       1.0  0.7517799999999999  0.43256999999999995  0.19617  1.0000
  O   O13       1.0  0.039469999999999957  0.6685899999999999  0.08384  1.0000
  O   O14       1.0  0.16134  0.55738  0.01246  1.0000
  O   O15       1.0  0.63644  0.5883  0.0541  1.0000
  O   O16       1.0  0.7371999999999999  0.6990799999999999  0.15411  1.0000
  O   O17       1.0  0.46934  0.9533299999999999  0.32002  1.0000
  O   O18       1.0  0.25244  0.93079  0.3043  1.0000
  O   O19       1.0  0.46144999999999997  0.8329  0.58042  1.0000
  O   O20       1.0  0.33849  0.94582  0.5118  1.0000
  O   O21       1.0  0.86311  0.90874  0.55397  1.0000
  O   O22       1.0  0.76553  0.8002899999999998  0.65693  1.0000
  O   O23       1.0  0.03256000000000001  0.55423  0.82417  1.0000
  O   O24       1.0  0.24821999999999997  0.56743  0.80383  1.0000
