data_image0
_chemical_formula_structural       Mn4H16C16O20
_chemical_formula_sum              "Mn4 H16 C16 O20"
_cell_length_a       7.50363
_cell_length_b       7.53501
_cell_length_c       12.97367
_cell_angle_alpha    89.97698
_cell_angle_beta     89.96949
_cell_angle_gamma    89.75036

_symmetry_space_group_name_H-M    'P 1'
_symmetry_Int_Tables_number       1

loop_
  _symmetry_equiv_pos_as_xyz
  'x,y,z'

loop_
  _atom_site_type_symbol
  _atom_site_label
  _atom_site_symmetry_multiplicity
  _atom_site_fract_x
  _atom_site_fract_y
  _atom_site_fract_z
  _atom_site_occupancy
  Mn  Mn1       1.0  0.52967  0.11715000000000003  0.84166  1.0000
  Mn  Mn2       1.0  0.4704600000000001  0.88292  0.34156999999999993  1.0000
  Mn  Mn3       1.0  0.84989  0.56432  0.09512  1.0000
  Mn  Mn4       1.0  0.14998  0.4353500000000001  0.59498  1.0000
  H   H1        1.0  0.5972000000000002  0.12454  0.6403199999999998  1.0000
  H   H2        1.0  0.74047  0.8738200000000002  0.63164  1.0000
  H   H3        1.0  0.3797300000000001  0.73823  0.70821  1.0000
  H   H4        1.0  0.5520200000000002  0.5905800000000002  0.67329  1.0000
  H   H5        1.0  0.4025800000000001  0.87535  0.14045  1.0000
  H   H6        1.0  0.25939  0.12588  0.13158  1.0000
  H   H7        1.0  0.61996  0.2615000000000001  0.2081  1.0000
  H   H8        1.0  0.44807000000000013  0.40926  0.17310999999999996  1.0000
  H   H9        1.0  0.8994500000000002  0.60686  0.8860299999999998  1.0000
  H   H10       1.0  0.15476000000000006  0.7467500000000001  0.88707  1.0000
  H   H11       1.0  0.2627300000000001  0.3818300000000001  0.9705399999999997  1.0000
  H   H12       1.0  0.4219500000000001  0.54135  0.9344499999999999  1.0000
  H   H13       1.0  0.10088000000000003  0.39257  0.38587  1.0000
  H   H14       1.0  0.84532  0.2529500000000001  0.3872499999999999  1.0000
  H   H15       1.0  0.7373500000000002  0.6180700000000002  0.47057  1.0000
  H   H16       1.0  0.57844  0.4584100000000001  0.43471  1.0000
  C   C1        1.0  0.71432  0.8108300000000002  0.79264  1.0000
  C   C2        1.0  0.6334700000000002  0.8635100000000002  0.68929  1.0000
  C   C3        1.0  0.4971600000000001  0.72408  0.6582  1.0000
  C   C4        1.0  0.4339900000000001  0.7256600000000002  0.54776  1.0000
  C   C5        1.0  0.28559  0.18908  0.29261  1.0000
  C   C6        1.0  0.36636000000000013  0.13643  0.18916  1.0000
  C   C7        1.0  0.50273  0.27577  0.15803  1.0000
  C   C8        1.0  0.56619  0.27427  0.04766999999999999  1.0000
  C   C9        1.0  0.19454000000000002  0.72279  0.04957  1.0000
  C   C10       1.0  0.14986000000000002  0.64019  0.9450299999999998  1.0000
  C   C11       1.0  0.28533  0.49552  0.91933  1.0000
  C   C12       1.0  0.2782  0.42970000000000014  0.8100899999999999  1.0000
  C   C13       1.0  0.80535  0.27722000000000013  0.54972  1.0000
  C   C14       1.0  0.8502900000000002  0.3596900000000001  0.44506  1.0000
  C   C15       1.0  0.71489  0.50446  0.41935  1.0000
  C   C16       1.0  0.7216  0.57026  0.31006  1.0000
  O   O1        1.0  0.7994600000000002  0.66751  0.7964099999999998  1.0000
  O   O2        1.0  0.6842800000000002  0.91648  0.8697199999999998  1.0000
  O   O3        1.0  0.31673  0.61259  0.52075  1.0000
  O   O4        1.0  0.50748  0.83425  0.48488  1.0000
  O   O5        1.0  0.54917  0.03372  0.7009799999999999  1.0000
  O   O6        1.0  0.20051  0.3324  0.29642  1.0000
  O   O7        1.0  0.31578  0.08354000000000003  0.36973999999999996  1.0000
  O   O8        1.0  0.68355  0.38733  0.020669999999999994  1.0000
  O   O9        1.0  0.4926800000000001  0.16581  0.9848399999999998  1.0000
  O   O10       1.0  0.45105  0.96634  0.20068  1.0000
  O   O11       1.0  0.3521200000000001  0.78227  0.05737999999999999  1.0000
  O   O12       1.0  0.07544000000000002  0.72517  0.11967999999999997  1.0000
  O   O13       1.0  0.37964  0.30088  0.7815  1.0000
  O   O14       1.0  0.17575000000000002  0.50763  0.74618  1.0000
  O   O15       1.0  0.9750700000000002  0.5662700000000002  0.9493499999999998  1.0000
  O   O16       1.0  0.64769  0.21790000000000007  0.55759  1.0000
  O   O17       1.0  0.9244200000000002  0.27493  0.61975  1.0000
  O   O18       1.0  0.62006  0.69898  0.28137  1.0000
  O   O19       1.0  0.824  0.49211  0.24620999999999996  1.0000
  O   O20       1.0  0.025100000000000004  0.4335200000000001  0.4491999999999999  1.0000
