data_image0
_chemical_formula_structural       Cd6H12C36O24
_chemical_formula_sum              "Cd6 H12 C36 O24"
_cell_length_a       10.41452
_cell_length_b       6.432289999999999
_cell_length_c       19.130470000000003
_cell_angle_alpha    89.87969
_cell_angle_beta     97.19515999999999
_cell_angle_gamma    91.33594

_space_group_name_H-M_alt    "P 1"
_space_group_IT_number       1

loop_
  _space_group_symop_operation_xyz
  'x, y, z'

loop_
  _atom_site_type_symbol
  _atom_site_label
  _atom_site_symmetry_multiplicity
  _atom_site_fract_x
  _atom_site_fract_y
  _atom_site_fract_z
  _atom_site_occupancy
  Cd  Cd1       1.0  0.28028  0.29432  0.12047  1.0000
  Cd  Cd2       1.0  0.71801  0.7732300000000002  0.37612  1.0000
  Cd  Cd3       1.0  0.7198099999999998  0.70528  0.87964  1.0000
  Cd  Cd4       1.0  0.282  0.22659000000000004  0.62391  1.0000
  Cd  Cd5       1.0  0.99997  1.0000000000000003e-05  1e-05  1.0000
  Cd  Cd6       1.0  0.99982  0.49998  0.50001  1.0000
  H   H1        1.0  0.032449999999999986  0.37658  0.26332  1.0000
  H   H2        1.0  0.63397  0.34596000000000005  0.30396  1.0000
  H   H3        1.0  0.72396  0.34342000000000006  0.09073  1.0000
  H   H4        1.0  0.96709  0.88363  0.23736999999999997  1.0000
  H   H5        1.0  0.36321  0.8474300000000001  0.19442  1.0000
  H   H6        1.0  0.27578  0.82739  0.40822  1.0000
  H   H7        1.0  0.96753  0.62356  0.73675  1.0000
  H   H8        1.0  0.36599  0.65341  0.696  1.0000
  H   H9        1.0  0.27613000000000004  0.65633  0.90927  1.0000
  H   H10       1.0  0.03289000000000001  0.11638000000000001  0.76264  1.0000
  H   H11       1.0  0.63676  0.15246  0.80558  1.0000
  H   H12       1.0  0.72422  0.17259000000000005  0.59179  1.0000
  C   C1        1.0  0.9880100000000002  0.3562300000000001  0.12128  1.0000
  C   C2        1.0  0.88871  0.36088  0.1715  1.0000
  C   C3        1.0  0.92971  0.36762  0.24403999999999998  1.0000
  C   C4        1.0  0.83861  0.36429  0.2921  1.0000
  C   C5        1.0  0.70644  0.35183000000000003  0.26763  1.0000
  C   C6        1.0  0.66516  0.3447400000000001  0.19513  1.0000
  C   C7        1.0  0.75619  0.34937  0.14702  1.0000
  C   C8        1.0  0.52423  0.32944  0.17066  1.0000
  C   C9        1.0  0.8847699999999998  0.38643  0.36846  1.0000
  C   C10       1.0  0.011740000000000006  0.8552100000000002  0.37867  1.0000
  C   C11       1.0  0.11095999999999999  0.85876  0.32831  1.0000
  C   C12       1.0  0.06961  0.87109  0.25599  1.0000
  C   C13       1.0  0.15970999999999996  0.8688200000000001  0.20745999999999998  1.0000
  C   C14       1.0  0.29155999999999993  0.85125  0.23118999999999998  1.0000
  C   C15       1.0  0.33325999999999995  0.8349  0.30352  1.0000
  C   C16       1.0  0.24307999999999996  0.8394200000000003  0.35211  1.0000
  C   C17       1.0  0.47380999999999995  0.81213  0.32726  1.0000
  C   C18       1.0  0.11179000000000001  0.8936000000000002  0.13156  1.0000
  C   C19       1.0  0.012060000000000043  0.64385  0.8787500000000001  1.0000
  C   C20       1.0  0.11137000000000001  0.63919  0.82852  1.0000
  C   C21       1.0  0.0703  0.6325  0.75599  1.0000
  C   C22       1.0  0.16135999999999995  0.63557  0.7078999999999999  1.0000
  C   C23       1.0  0.29357  0.64753  0.73236  1.0000
  C   C24       1.0  0.33496  0.65436  0.80485  1.0000
  C   C25       1.0  0.24393  0.65021  0.85298  1.0000
  C   C26       1.0  0.47593  0.66977  0.82932  1.0000
  C   C27       1.0  0.11518  0.61333  0.63155  1.0000
  C   C28       1.0  0.9882300000000003  0.14476  0.62134  1.0000
  C   C29       1.0  0.8890200000000001  0.14121  0.6716999999999999  1.0000
  C   C30       1.0  0.9303700000000001  0.12886  0.74402  1.0000
  C   C31       1.0  0.84025  0.13106  0.79254  1.0000
  C   C32       1.0  0.7084  0.1486  0.7688  1.0000
  C   C33       1.0  0.66672  0.16498  0.69647  1.0000
  C   C34       1.0  0.75691  0.16052000000000002  0.64789  1.0000
  C   C35       1.0  0.52619  0.18781000000000003  0.67274  1.0000
  C   C36       1.0  0.88812  0.1063  0.8684399999999999  1.0000
  O   O1        1.0  0.10355  0.40749  0.14929  1.0000
  O   O2        1.0  0.9549899999999999  0.30145  0.058170000000000006  1.0000
  O   O3        1.0  0.44413000000000014  0.30111  0.21512  1.0000
  O   O4        1.0  0.48635  0.34368  0.1038  1.0000
  O   O5        1.0  0.8065499999999999  0.46244  0.40990999999999994  1.0000
  O   O6        1.0  0.99992  0.3442100000000001  0.39193  1.0000
  O   O7        1.0  0.89704  0.90524  0.35107  1.0000
  O   O8        1.0  0.04440999999999996  0.80215  0.44183999999999996  1.0000
  O   O9        1.0  0.55221  0.7919500000000002  0.28177  1.0000
  O   O10       1.0  0.5130199999999999  0.81303  0.39418  1.0000
  O   O11       1.0  0.18883  0.97786  0.08976  1.0000
  O   O12       1.0  0.9963400000000001  0.84395  0.10839  1.0000
  O   O13       1.0  0.8965399999999999  0.59252  0.85073  1.0000
  O   O14       1.0  0.04502999999999998  0.69856  0.9418600000000001  1.0000
  O   O15       1.0  0.55616  0.6981  0.78491  1.0000
  O   O16       1.0  0.51369  0.65601  0.89622  1.0000
  O   O17       1.0  0.19326000000000007  0.5368  0.59011  1.0000
  O   O18       1.0  7.000000000001108e-05  0.6558500000000003  0.60807  1.0000
  O   O19       1.0  0.10292  0.0947  0.64894  1.0000
  O   O20       1.0  0.9555499999999999  0.19781000000000004  0.55817  1.0000
  O   O21       1.0  0.4477900000000001  0.20796000000000006  0.71823  1.0000
  O   O22       1.0  0.48699  0.18703  0.60581  1.0000
  O   O23       1.0  0.81111  0.02197  0.9102399999999999  1.0000
  O   O24       1.0  0.003530000000000052  0.15608  0.8916300000000001  1.0000
