data_image0
_chemical_formula_structural       Zn2H24C48N4O20
_chemical_formula_sum              "Zn2 H24 C48 N4 O20"
_cell_length_a       10.34346
_cell_length_b       10.256730000000001
_cell_length_c       17.25187
_cell_angle_alpha    100.48420999999999
_cell_angle_beta     98.61994999999999
_cell_angle_gamma    97.66579

_symmetry_space_group_name_H-M    'P 1'
_symmetry_Int_Tables_number       1

loop_
  _symmetry_equiv_pos_as_xyz
  'x,y,z'

loop_
  _atom_site_type_symbol
  _atom_site_label
  _atom_site_symmetry_multiplicity
  _atom_site_fract_x
  _atom_site_fract_y
  _atom_site_fract_z
  _atom_site_occupancy
  Zn  Zn1       1.0  0.9407900000000002  0.45139  0.69294  1.0000
  Zn  Zn2       1.0  0.059210000000000006  0.54861  0.30705  1.0000
  H   H1        1.0  0.42705000000000004  0.44684  0.66599  1.0000
  H   H2        1.0  0.2973100000000001  0.60413  0.88468  1.0000
  H   H3        1.0  0.71513  0.5912  0.8821600000000003  1.0000
  H   H4        1.0  0.73802  0.7053399999999999  0.10383000000000003  1.0000
  H   H5        1.0  0.8365400000000001  0.8017199999999999  0.24241000000000001  1.0000
  H   H6        1.0  0.4561500000000002  0.8886100000000002  0.29256  1.0000
  H   H7        1.0  0.3528600000000001  0.78437  0.15011  1.0000
  H   H8        1.0  0.90211  0.67963  0.48295  1.0000
  H   H9        1.0  0.9852700000000002  0.9638099999999998  0.70954  1.0000
  H   H10       1.0  0.8321900000000001  0.09203  0.49616000000000005  1.0000
  H   H11       1.0  0.8091900000000001  0.74702  0.37138  1.0000
  H   H12       1.0  0.64655  0.68786  0.995  1.0000
  H   H13       1.0  0.57295  0.55316  0.33401  1.0000
  H   H14       1.0  0.7027000000000001  0.39586999999999994  0.11531  1.0000
  H   H15       1.0  0.28488  0.4088  0.11783  1.0000
  H   H16       1.0  0.26199  0.29467  0.89617  1.0000
  H   H17       1.0  0.16346000000000002  0.19828  0.75759  1.0000
  H   H18       1.0  0.54386  0.11139000000000004  0.70744  1.0000
  H   H19       1.0  0.6471500000000002  0.21563000000000004  0.8498900000000003  1.0000
  H   H20       1.0  0.09790000000000001  0.32038  0.51704  1.0000
  H   H21       1.0  0.014739999999999998  0.03619  0.29046  1.0000
  H   H22       1.0  0.16782  0.90797  0.50384  1.0000
  H   H23       1.0  0.1908200000000001  0.2529800000000001  0.6286200000000002  1.0000
  H   H24       1.0  0.35345  0.31215  0.005  1.0000
  C   C1        1.0  0.68953  0.48903  0.72262  1.0000
  C   C2        1.0  0.58255  0.51874  0.76975  1.0000
  C   C3        1.0  0.45005  0.49124  0.72968  1.0000
  C   C4        1.0  0.34814000000000006  0.5205199999999999  0.77162  1.0000
  C   C5        1.0  0.20702000000000004  0.4785800000000001  0.7295900000000002  1.0000
  C   C6        1.0  0.3768300000000001  0.58025  0.8529200000000001  1.0000
  C   C7        1.0  0.51013  0.6068199999999999  0.89335  1.0000
  C   C8        1.0  0.61276  0.57557  0.85112  1.0000
  C   C9        1.0  0.4662700000000002  0.67984  0.032860000000000014  1.0000
  C   C10       1.0  0.53749  0.74138  0.11629  1.0000
  C   C11       1.0  0.6739800000000001  0.74729  0.14314  1.0000
  C   C12       1.0  0.7309300000000001  0.80045  0.2232  1.0000
  C   C13       1.0  0.65147  0.8506  0.27698  1.0000
  C   C14       1.0  0.51561  0.84828  0.24994000000000002  1.0000
  C   C15       1.0  0.45876  0.79197  0.17085  1.0000
  C   C16       1.0  0.7020400000000001  0.9084999999999999  0.36342  1.0000
  C   C17       1.0  0.8559  0.88013  0.48016000000000003  1.0000
  C   C18       1.0  0.90587  0.7802  0.5179  1.0000
  C   C19       1.0  0.9498099999999999  0.81067  0.5999700000000002  1.0000
  C   C20       1.0  0.9995400000000001  0.70936  0.6447300000000002  1.0000
  C   C21       1.0  0.94935  0.94056  0.64519  1.0000
  C   C22       1.0  0.9040700000000002  0.040289999999999986  0.60799  1.0000
  C   C23       1.0  0.91314  0.17925  0.65699  1.0000
  C   C24       1.0  0.86128  0.013040000000000003  0.52562  1.0000
  C   C25       1.0  0.31048000000000003  0.51097  0.27738  1.0000
  C   C26       1.0  0.41745000000000004  0.48126  0.23025  1.0000
  C   C27       1.0  0.54995  0.5087599999999999  0.27032  1.0000
  C   C28       1.0  0.65187  0.47948  0.22837  1.0000
  C   C29       1.0  0.79299  0.52142  0.27041  1.0000
  C   C30       1.0  0.62318  0.41974999999999996  0.14708  1.0000
  C   C31       1.0  0.48988  0.39318  0.10665  1.0000
  C   C32       1.0  0.38725  0.42443  0.14888000000000004  1.0000
  C   C33       1.0  0.53373  0.32016  0.9671400000000001  1.0000
  C   C34       1.0  0.4625200000000001  0.25862  0.8837000000000002  1.0000
  C   C35       1.0  0.32602000000000003  0.25271  0.85685  1.0000
  C   C36       1.0  0.26908000000000004  0.1995500000000001  0.7768000000000003  1.0000
  C   C37       1.0  0.34854  0.14940999999999993  0.72302  1.0000
  C   C38       1.0  0.48440000000000005  0.15172000000000005  0.7500600000000001  1.0000
  C   C39       1.0  0.5412400000000002  0.20802999999999996  0.82914  1.0000
  C   C40       1.0  0.2979700000000002  0.09150000000000012  0.6365800000000003  1.0000
  C   C41       1.0  0.1441  0.11987  0.51984  1.0000
  C   C42       1.0  0.09414000000000002  0.2198  0.4821  1.0000
  C   C43       1.0  0.050189999999999985  0.18933  0.40003  1.0000
  C   C44       1.0  0.00046999999999998036  0.29063999999999995  0.35527  1.0000
  C   C45       1.0  0.05065000000000003  0.059440000000000034  0.3548100000000001  1.0000
  C   C46       1.0  0.09594000000000003  0.9597099999999998  0.392  1.0000
  C   C47       1.0  0.08687000000000004  0.8207499999999999  0.34300000000000014  1.0000
  C   C48       1.0  0.13873000000000002  0.9869599999999998  0.47438  1.0000
  N   N1        1.0  0.80036  0.8446199999999999  0.40061  1.0000
  N   N2        1.0  0.54713  0.66156  0.9751  1.0000
  N   N3        1.0  0.19964000000000004  0.15538000000000005  0.59939  1.0000
  N   N4        1.0  0.45287000000000005  0.33844  0.02489  1.0000
  O   O1        1.0  0.8041000000000001  0.48194999999999993  0.76182  1.0000
  O   O2        1.0  0.6623500000000001  0.47421  0.64801  1.0000
  O   O3        1.0  0.18298  0.41404  0.65744  1.0000
  O   O4        1.0  0.11602999999999998  0.50671  0.76949  1.0000
  O   O5        1.0  0.34472  0.64791  0.01618  1.0000
  O   O6        1.0  0.65681  0.00038999999999998514  0.40055  1.0000
  O   O7        1.0  0.9353300000000001  0.58926  0.62445  1.0000
  O   O8        1.0  0.09853000000000002  0.75365  0.69925  1.0000
  O   O9        1.0  0.9417200000000002  0.19778  0.73189  1.0000
  O   O10       1.0  0.8960100000000001  0.27259  0.61734  1.0000
  O   O11       1.0  0.19591  0.51805  0.23817  1.0000
  O   O12       1.0  0.33766  0.52579  0.35199  1.0000
  O   O13       1.0  0.81703  0.58596  0.3425600000000001  1.0000
  O   O14       1.0  0.88398  0.49328999999999995  0.23051  1.0000
  O   O15       1.0  0.6552900000000002  0.35209  0.98382  1.0000
  O   O16       1.0  0.3432  0.99961  0.59945  1.0000
  O   O17       1.0  0.06468000000000003  0.41074  0.3755500000000001  1.0000
  O   O18       1.0  0.9014800000000001  0.24635  0.30075  1.0000
  O   O19       1.0  0.058290000000000015  0.80222  0.26811  1.0000
  O   O20       1.0  0.10399000000000001  0.7274099999999999  0.3826600000000001  1.0000
