data_image0
_chemical_formula_structural       Cd2Ni2H42C26N12
_chemical_formula_sum              "Cd2 Ni2 H42 C26 N12"
_cell_length_a       7.3186
_cell_length_b       11.44841
_cell_length_c       13.97707
_cell_angle_alpha    113.59866
_cell_angle_beta     92.53407999999999
_cell_angle_gamma    105.55323000000001

_symmetry_space_group_name_H-M    'P 1'
_symmetry_Int_Tables_number       1

loop_
  _symmetry_equiv_pos_as_xyz
  'x,y,z'

loop_
  _atom_site_type_symbol
  _atom_site_label
  _atom_site_symmetry_multiplicity
  _atom_site_fract_x
  _atom_site_fract_y
  _atom_site_fract_z
  _atom_site_occupancy
  Cd  Cd1       1.0  0.9953899999999999  0.9990399999999999  0.9986  1.0000
  Cd  Cd2       1.0  0.99933  0.9990399999999999  0.50005  1.0000
  Ni  Ni1       1.0  0.50973  0.07010999999999998  0.26028  1.0000
  Ni  Ni2       1.0  0.48638  0.92222  0.7372099999999998  1.0000
  H   H1        1.0  0.22827000000000003  0.19279000000000004  0.93442  1.0000
  H   H2        1.0  0.12659999999999993  0.25245  0.04021  1.0000
  H   H3        1.0  0.021799999999999986  0.22901  0.82548  1.0000
  H   H4        1.0  0.69173  0.23130999999999985  0.8638599999999997  1.0000
  H   H5        1.0  0.71204  0.14751999999999996  0.9437699999999999  1.0000
  H   H6        1.0  0.88232  0.36174999999999996  0.0995  1.0000
  H   H7        1.0  0.87  0.45179  0.02469  1.0000
  H   H8        1.0  0.50174  0.3549399999999999  0.9886499999999999  1.0000
  H   H9        1.0  0.5211  0.27534  0.07185  1.0000
  H   H10       1.0  0.69712  0.49927999999999995  0.22209999999999994  1.0000
  H   H11       1.0  0.67624  0.57682  0.13904  1.0000
  H   H12       1.0  0.31072  0.4862699999999999  0.11259999999999999  1.0000
  H   H13       1.0  0.33394999999999997  0.41209  0.19854  1.0000
  H   H14       1.0  0.49957000000000007  0.6402800000000001  0.34741  1.0000
  H   H15       1.0  0.48862999999999995  0.71384  0.26031  1.0000
  H   H16       1.0  0.12041  0.61553  0.22219999999999995  1.0000
  H   H17       1.0  0.13599  0.5547  0.31822  1.0000
  H   H18       1.0  0.29878999999999994  0.8514599999999999  0.36201  1.0000
  H   H19       1.0  0.2937699999999999  0.78992  0.45852  1.0000
  H   H20       1.0  0.9466199999999999  0.7227999999999999  0.4271999999999999  1.0000
  H   H21       1.0  0.93849  0.75984  0.3247999999999999  1.0000
  H   H22       1.0  0.7755799999999999  0.8134199999999999  0.0646  1.0000
  H   H23       1.0  0.86606  0.7410199999999999  0.9567099999999997  1.0000
  H   H24       1.0  0.9789299999999997  0.7764799999999998  0.17357999999999996  1.0000
  H   H25       1.0  0.30760999999999994  0.7708799999999999  0.13683  1.0000
  H   H26       1.0  0.29327  0.85412  0.05571999999999999  1.0000
  H   H27       1.0  0.11992999999999993  0.6395699999999999  0.9006199999999998  1.0000
  H   H28       1.0  0.13169  0.5505  0.97642  1.0000
  H   H29       1.0  0.50004  0.64587  0.01155  1.0000
  H   H30       1.0  0.4809  0.72539  0.92831  1.0000
  H   H31       1.0  0.30289  0.50153  0.77834  1.0000
  H   H32       1.0  0.32404999999999995  0.42418999999999984  0.8615299999999998  1.0000
  H   H33       1.0  0.6892399999999999  0.51379  0.88713  1.0000
  H   H34       1.0  0.6659  0.5877399999999999  0.8009499999999998  1.0000
  H   H35       1.0  0.49987000000000004  0.35952  0.65242  1.0000
  H   H36       1.0  0.51116  0.2861  0.73975  1.0000
  H   H37       1.0  0.87932  0.3857  0.7781299999999998  1.0000
  H   H38       1.0  0.8635  0.4448099999999999  0.68104  1.0000
  H   H39       1.0  0.69707  0.14941999999999994  0.6395499999999998  1.0000
  H   H40       1.0  0.70946  0.20875999999999997  0.54167  1.0000
  H   H41       1.0  0.05143999999999999  0.2686  0.57104  1.0000
  H   H42       1.0  0.062059999999999976  0.24353999999999998  0.6790999999999999  1.0000
  C   C1        1.0  0.65012  0.97991  0.30697  1.0000
  C   C2        1.0  0.69008  0.09948999999999997  0.17396999999999999  1.0000
  C   C3        1.0  0.39387000000000005  0.12560000000000002  0.38823  1.0000
  C   C4        1.0  0.31794  0.09881  0.18633  1.0000
  C   C5        1.0  0.9747499999999999  0.22483999999999993  0.8988899999999997  1.0000
  C   C6        1.0  0.7853199999999999  0.23557999999999993  0.92994  1.0000
  C   C7        1.0  0.7951399999999998  0.35948  0.03201  1.0000
  C   C8        1.0  0.59453  0.36217  0.05691  1.0000
  C   C9        1.0  0.60293  0.49013999999999996  0.15407  1.0000
  C   C10       1.0  0.40472  0.49799  0.18190999999999993  1.0000
  C   C11       1.0  0.4109999999999999  0.62872  0.27624  1.0000
  C   C12       1.0  0.20851  0.63566  0.29649  1.0000
  C   C13       1.0  0.21450999999999995  0.77194  0.3824  1.0000
  C   C14       1.0  0.3198799999999998  0.9815399999999997  0.6787799999999999  1.0000
  C   C15       1.0  0.33273  0.9281  0.83952  1.0000
  C   C16       1.0  0.63922  0.91112  0.63512  1.0000
  C   C17       1.0  0.65923  0.8745799999999999  0.8027799999999999  1.0000
  C   C18       1.0  0.02667999999999998  0.77927  0.09974  1.0000
  C   C19       1.0  0.21638999999999994  0.7668  0.06985  1.0000
  C   C20       1.0  0.2067999999999999  0.6422099999999997  0.9683599999999998  1.0000
  C   C21       1.0  0.4072099999999999  0.6387699999999998  0.9434099999999999  1.0000
  C   C22       1.0  0.39749999999999996  0.5105299999999999  0.8461499999999998  1.0000
  C   C23       1.0  0.59511  0.50209  0.81787  1.0000
  C   C24       1.0  0.58854  0.37124  0.72361  1.0000
  C   C25       1.0  0.79126  0.36455  0.70351  1.0000
  C   C26       1.0  0.78502  0.2275  0.61886  1.0000
  N   N1        1.0  0.76774  0.9614299999999998  0.35454  1.0000
  N   N2        1.0  0.76859  0.07432999999999998  0.10001  1.0000
  N   N3        1.0  0.28106  0.11093999999999993  0.4439999999999999  1.0000
  N   N4        1.0  0.22289  0.13666999999999999  0.14281  1.0000
  N   N5        1.0  0.09913999999999992  0.1937699999999999  0.9597599999999997  1.0000
  N   N6        1.0  0.019259999999999947  0.78678  0.39686999999999995  1.0000
  N   N7        1.0  0.21336999999999998  0.021389999999999937  0.6440299999999999  1.0000
  N   N8        1.0  0.23221999999999995  0.9302199999999999  0.9033299999999999  1.0000
  N   N9        1.0  0.7392  0.90124  0.5707599999999999  1.0000
  N   N10       1.0  0.7730699999999999  0.84942  0.8469999999999998  1.0000
  N   N11       1.0  0.90034  0.8056499999999999  0.03615  1.0000
  N   N12       1.0  0.97982  0.21051000000000003  0.60606  1.0000
