data_image0
_chemical_formula_structural       Zn3H12C24O12
_chemical_formula_sum              "Zn3 H12 C24 O12"
_cell_length_a       9.61137
_cell_length_b       10.299490000000002
_cell_length_c       9.84448
_cell_angle_alpha    97.97786
_cell_angle_beta     114.00532999999999
_cell_angle_gamma    110.87408

_symmetry_space_group_name_H-M    'P 1'
_symmetry_Int_Tables_number       1

loop_
  _symmetry_equiv_pos_as_xyz
  'x,y,z'

loop_
  _atom_site_type_symbol
  _atom_site_label
  _atom_site_symmetry_multiplicity
  _atom_site_fract_x
  _atom_site_fract_y
  _atom_site_fract_z
  _atom_site_occupancy
  Zn  Zn1       1.0  0.43224999999999997  0.5925399999999998  0.7806200000000001  1.0000
  Zn  Zn2       1.0  0.56775  0.40745999999999993  0.21938000000000005  1.0000
  Zn  Zn3       1.0  0.5  0.5  0.5  1.0000
  H   H1        1.0  0.20219  0.07327999999999998  0.39584  1.0000
  H   H2        1.0  0.008960000000000013  0.19115  0.69246  1.0000
  H   H3        1.0  0.8554599999999999  0.55205  0.14479  1.0000
  H   H4        1.0  0.91503  0.52485  0.73369  1.0000
  H   H5        1.0  0.36569  0.73955  0.32991  1.0000
  H   H6        1.0  0.57214  0.05552000000000006  0.7815800000000003  1.0000
  H   H7        1.0  0.79781  0.92672  0.60416  1.0000
  H   H8        1.0  0.99104  0.80885  0.30754  1.0000
  H   H9        1.0  0.14453999999999997  0.44795  0.85521  1.0000
  H   H10       1.0  0.08497  0.47515  0.2663  1.0000
  H   H11       1.0  0.63431  0.26044999999999996  0.67009  1.0000
  H   H12       1.0  0.42785999999999996  0.9444799999999999  0.21842  1.0000
  C   C1        1.0  0.24768999999999997  0.30457  0.60411  1.0000
  C   C2        1.0  0.11856999999999998  0.14781  0.54962  1.0000
  C   C3        1.0  0.11342999999999995  0.03996999999999998  0.4407  1.0000
  C   C4        1.0  0.004229999999999972  0.10702  0.60833  1.0000
  C   C5        1.0  0.7280199999999999  0.5787899999999998  0.85463  1.0000
  C   C6        1.0  0.87141  0.54209  0.9319800000000003  1.0000
  C   C7        1.0  0.91822  0.52758  0.08188  1.0000
  C   C8        1.0  0.9540199999999999  0.51467  0.85038  1.0000
  C   C9        1.0  0.43377000000000004  0.7645999999999998  0.62795  1.0000
  C   C10       1.0  0.4648100000000001  0.8859799999999999  0.5617200000000002  1.0000
  C   C11       1.0  0.42367000000000005  0.85362  0.40276  1.0000
  C   C12       1.0  0.54119  0.03270999999999996  0.65884  1.0000
  C   C13       1.0  0.75231  0.69543  0.39589  1.0000
  C   C14       1.0  0.88143  0.8521899999999999  0.45038  1.0000
  C   C15       1.0  0.8865699999999999  0.9600299999999999  0.5593  1.0000
  C   C16       1.0  0.99577  0.89298  0.39167  1.0000
  C   C17       1.0  0.27198  0.4212199999999999  0.14537  1.0000
  C   C18       1.0  0.12859  0.45791  0.06801  1.0000
  C   C19       1.0  0.08178  0.4724199999999999  0.9181200000000003  1.0000
  C   C20       1.0  0.04597999999999997  0.48532999999999993  0.14962  1.0000
  C   C21       1.0  0.56623  0.23539999999999997  0.37205  1.0000
  C   C22       1.0  0.53519  0.11403000000000003  0.4382700000000001  1.0000
  C   C23       1.0  0.57633  0.14638  0.59724  1.0000
  C   C24       1.0  0.45881000000000005  0.96729  0.34116  1.0000
  O   O1        1.0  0.36250999999999994  0.33518999999999993  0.56453  1.0000
  O   O2        1.0  0.23603000000000018  0.4006200000000001  0.6933700000000003  1.0000
  O   O3        1.0  0.70092  0.6071699999999999  0.7272800000000003  1.0000
  O   O4        1.0  0.63615  0.57737  0.9209000000000003  1.0000
  O   O5        1.0  0.3800799999999999  0.6322099999999998  0.54436  1.0000
  O   O6        1.0  0.46289999999999987  0.7923899999999999  0.77146  1.0000
  O   O7        1.0  0.63749  0.6648099999999999  0.43547000000000013  1.0000
  O   O8        1.0  0.76397  0.59939  0.30663  1.0000
  O   O9        1.0  0.29908  0.39282999999999996  0.2727100000000001  1.0000
  O   O10       1.0  0.36385  0.42263  0.07909000000000001  1.0000
  O   O11       1.0  0.6199199999999999  0.36779  0.45563  1.0000
  O   O12       1.0  0.5371  0.20761999999999997  0.22854000000000005  1.0000
