data_image0
_chemical_formula_structural       Mn3H24C38N12O8
_chemical_formula_sum              "Mn3 H24 C38 N12 O8"
_cell_length_a       11.72883
_cell_length_b       11.76714
_cell_length_c       11.89647
_cell_angle_alpha    65.30313
_cell_angle_beta     80.11565
_cell_angle_gamma    72.31253

_symmetry_space_group_name_H-M    'P 1'
_symmetry_Int_Tables_number       1

loop_
  _symmetry_equiv_pos_as_xyz
  'x,y,z'

loop_
  _atom_site_type_symbol
  _atom_site_label
  _atom_site_symmetry_multiplicity
  _atom_site_fract_x
  _atom_site_fract_y
  _atom_site_fract_z
  _atom_site_occupancy
  Mn  Mn1       1.0  0.99918  0.0013499999999999515  0.99988  1.0000
  Mn  Mn2       1.0  0.00014000000000000254  0.49961999999999995  0.50055  1.0000
  Mn  Mn3       1.0  0.99988  0.9995499999999999  0.50039  1.0000
  H   H1        1.0  0.25770999999999983  0.8022900000000001  0.04214  1.0000
  H   H2        1.0  0.4703199999999999  0.79332  0.04157  1.0000
  H   H3        1.0  0.35747  0.20396  0.9693000000000002  1.0000
  H   H4        1.0  0.15025999999999995  0.19441000000000003  0.97146  1.0000
  H   H5        1.0  0.76971  0.46130999999999994  0.6716  1.0000
  H   H6        1.0  0.5505099999999998  0.56142  0.67049  1.0000
  H   H7        1.0  0.5882  0.72842  0.27032  1.0000
  H   H8        1.0  0.80622  0.62231  0.28871  1.0000
  H   H9        1.0  0.36506  0.58722  0.64088  1.0000
  H   H10       1.0  0.15561999999999998  0.72291  0.63797  1.0000
  H   H11       1.0  0.22214  0.0042599999999999956  0.29938  1.0000
  H   H12       1.0  0.4351400000000001  0.8835  0.28855  1.0000
  H   H13       1.0  0.74114  0.19913  0.95666  1.0000
  H   H14       1.0  0.5288299999999999  0.20695  0.9585500000000001  1.0000
  H   H15       1.0  0.64283  0.7961900000000001  0.03138  1.0000
  H   H16       1.0  0.8500800000000002  0.80689  0.02753  1.0000
  H   H17       1.0  0.22999  0.5384500000000001  0.32889  1.0000
  H   H18       1.0  0.4492  0.43873000000000006  0.32964  1.0000
  H   H19       1.0  0.4120699999999999  0.27147  0.7298800000000001  1.0000
  H   H20       1.0  0.19409999999999997  0.3774700000000001  0.71184  1.0000
  H   H21       1.0  0.6351999999999998  0.4129  0.35933  1.0000
  H   H22       1.0  0.8442700000000001  0.2763399999999999  0.36175  1.0000
  H   H23       1.0  0.7775499999999999  0.99535  0.70049  1.0000
  H   H24       1.0  0.56482  0.11673999999999993  0.7116600000000001  1.0000
  C   C1        1.0  0.98243  0.8871600000000001  0.27022  1.0000
  C   C2        1.0  0.9770899999999999  0.77917  0.37941  1.0000
  C   C3        1.0  0.9634799999999999  0.028190000000000007  0.23458  1.0000
  C   C4        1.0  0.94784  0.75329  0.51303  1.0000
  C   C5        1.0  0.28435  0.88929  0.02536  1.0000
  C   C6        1.0  0.4037  0.8853200000000001  0.02511  1.0000
  C   C7        1.0  0.4376199999999999  0.99934  0.00235  1.0000
  C   C8        1.0  0.34139  0.11228999999999999  0.98433  1.0000
  C   C9        1.0  0.22443000000000002  0.10798999999999995  0.9857700000000001  1.0000
  C   C10       1.0  0.72563  0.51978  0.58452  1.0000
  C   C11       1.0  0.6027899999999999  0.57553  0.5831400000000001  1.0000
  C   C12       1.0  0.5485699999999999  0.65492  0.46964  1.0000
  C   C13       1.0  0.62389  0.66976  0.36155  1.0000
  C   C14       1.0  0.74599  0.61029  0.37104000000000004  1.0000
  C   C15       1.0  0.42062000000000027  0.7245399999999999  0.46593  1.0000
  C   C16       1.0  0.33826000000000006  0.67979  0.56388  1.0000
  C   C17       1.0  0.22067999999999996  0.75398  0.5623  1.0000
  C   C18       1.0  0.2576000000000001  0.91113  0.37287  1.0000
  C   C19       1.0  0.37671  0.8425599999999999  0.3673  1.0000
  C   C20       1.0  0.018109999999999994  0.11218000000000002  0.7297  1.0000
  C   C21       1.0  0.023089999999999975  0.22021  0.62056  1.0000
  C   C22       1.0  0.03689999999999994  0.9711500000000001  0.7656  1.0000
  C   C23       1.0  0.05220999999999997  0.24617999999999998  0.48680000000000007  1.0000
  C   C24       1.0  0.71494  0.11180999999999996  0.97373  1.0000
  C   C25       1.0  0.5956799999999999  0.11511999999999989  0.9749300000000002  1.0000
  C   C26       1.0  0.5621600000000001  0.0007100000000000091  0.99808  1.0000
  C   C27       1.0  0.6586599999999999  0.88807  0.01602  1.0000
  C   C28       1.0  0.77562  0.89303  0.01349  1.0000
  C   C29       1.0  0.27420999999999995  0.48007000000000005  0.41589000000000004  1.0000
  C   C30       1.0  0.39707999999999993  0.42451  0.4171000000000001  1.0000
  C   C31       1.0  0.4515  0.34518  0.5304900000000001  1.0000
  C   C32       1.0  0.37626999999999994  0.3301400000000001  0.63871  1.0000
  C   C33       1.0  0.25419  0.38952  0.6294  1.0000
  C   C34       1.0  0.5794099999999999  0.2755500000000001  0.53414  1.0000
  C   C35       1.0  0.6618399999999998  0.32019  0.43621000000000004  1.0000
  C   C36       1.0  0.7792099999999998  0.24553999999999995  0.43753000000000003  1.0000
  C   C37       1.0  0.7421699999999998  0.08854  0.62703  1.0000
  C   C38       1.0  0.62325  0.15750999999999998  0.63282  1.0000
  N   N1        1.0  0.012510000000000007  0.84308  0.17672  1.0000
  N   N2        1.0  0.02588000000000003  0.7150899999999999  0.22248000000000007  1.0000
  N   N3        1.0  0.0040299999999999555  0.67618  0.34540000000000004  1.0000
  N   N4        1.0  0.19402  0.99874  0.00473  1.0000
  N   N5        1.0  0.79778  0.53683  0.48055  1.0000
  N   N6        1.0  0.18023  0.8691800000000001  0.46907000000000004  1.0000
  N   N7        1.0  0.98855  0.15609  0.82324  1.0000
  N   N8        1.0  0.97502  0.2840899999999999  0.7777600000000001  1.0000
  N   N9        1.0  0.99632  0.32310999999999995  0.65477  1.0000
  N   N10       1.0  0.8056699999999999  0.0028299999999999025  0.9936000000000001  1.0000
  N   N11       1.0  0.20219000000000004  0.46302999999999994  0.52001  1.0000
  N   N12       1.0  0.81938  0.13002000000000002  0.5305  1.0000
  O   O1        1.0  0.9542899999999999  0.0985  0.11835  1.0000
  O   O2        1.0  0.9588  0.07471999999999998  0.31437  1.0000
  O   O3        1.0  0.94839  0.63574  0.58377  1.0000
  O   O4        1.0  0.9243699999999998  0.8435600000000002  0.55204  1.0000
  O   O5        1.0  0.04579  0.90111  0.8815800000000001  1.0000
  O   O6        1.0  0.041569999999999996  0.92505  0.68526  1.0000
  O   O7        1.0  0.05154000000000001  0.36376  0.41628000000000004  1.0000
  O   O8        1.0  0.07574000000000006  0.15578999999999996  0.44797  1.0000
