data_image0
_chemical_formula_structural       V4H16C32O20
_chemical_formula_sum              "V4 H16 C32 O20"
_cell_length_a       12.16253
_cell_length_b       12.3265
_cell_length_c       12.32274
_cell_angle_alpha    75.86777
_cell_angle_beta     60.36702
_cell_angle_gamma    60.37107

_symmetry_space_group_name_H-M    'P 1'
_symmetry_Int_Tables_number       1

loop_
  _symmetry_equiv_pos_as_xyz
  'x,y,z'

loop_
  _atom_site_type_symbol
  _atom_site_label
  _atom_site_symmetry_multiplicity
  _atom_site_fract_x
  _atom_site_fract_y
  _atom_site_fract_z
  _atom_site_occupancy
  V   V1        1.0  0.19000000000000006  5e-05  0.62016  1.0000
  V   V2        1.0  0.8100100000000002  0.9999899999999999  0.37993999999999994  1.0000
  V   V3        1.0  0.93988  0.12039  0.50013  1.0000
  V   V4        1.0  0.5601699999999998  0.87962  0.50008  1.0000
  H   H1        1.0  0.6444199999999999  0.05884000000000001  0.80728  1.0000
  H   H2        1.0  0.5102799999999995  0.9412800000000001  0.19304  1.0000
  H   H3        1.0  0.4533599999999999  0.30723  0.44138  1.0000
  H   H4        1.0  0.20162000000000005  0.69312  0.55831  1.0000
  H   H5        1.0  0.10557000000000004  0.69279  0.44124  1.0000
  H   H6        1.0  0.23998000000000008  0.30713  0.5585  1.0000
  H   H7        1.0  0.29664  0.05896  0.19284000000000004  1.0000
  H   H8        1.0  0.5485399999999998  0.9413300000000001  0.80699  1.0000
  H   H9        1.0  0.18825999999999993  0.93579  0.43689000000000006  1.0000
  H   H10       1.0  0.56044  0.06438  0.56313  1.0000
  H   H11       1.0  0.87581  0.93603  0.5634  1.0000
  H   H12       1.0  0.37509  0.0639  0.43649  1.0000
  H   H13       1.0  0.8830199999999999  0.9997800000000001  0.99974  1.0000
  H   H14       1.0  0.6329199999999999  0.49976000000000004  0.50006  1.0000
  H   H15       1.0  0.8670000000000005  0.50031  0.50032  1.0000
  H   H16       1.0  0.11704999999999999  5e-05  0.00045000000000000004  1.0000
  C   C1        1.0  0.88408  0.04974  0.77094  1.0000
  C   C2        1.0  0.77621  0.02732  0.89065  1.0000
  C   C3        1.0  0.65856  0.03092  0.8920300000000001  1.0000
  C   C4        1.0  0.7047199999999999  0.9505200000000001  0.22915000000000002  1.0000
  C   C5        1.0  0.69422  0.9726  0.10944  1.0000
  C   C6        1.0  0.5814799999999997  0.96901  0.10815000000000001  1.0000
  C   C7        1.0  0.68385  0.27092  0.45016  1.0000
  C   C8        1.0  0.55363  0.3907  0.47256  1.0000
  C   C9        1.0  0.4395299999999999  0.39205  0.46915  1.0000
  C   C10       1.0  0.40494  0.72903  0.54992  1.0000
  C   C11       1.0  0.41684  0.60944  0.52729  1.0000
  C   C12       1.0  0.30056  0.60819  0.53074  1.0000
  C   C13       1.0  0.8663200000000003  0.72911  0.44976000000000005  1.0000
  C   C14       1.0  0.9739699999999999  0.60938  0.47242  1.0000
  C   C15       1.0  0.09144  0.60806  0.46911  1.0000
  C   C16       1.0  0.04503999999999998  0.27108  0.55016  1.0000
  C   C17       1.0  0.05577  0.3907  0.5276  1.0000
  C   C18       1.0  0.16864  0.392  0.53093  1.0000
  C   C19       1.0  0.0661  0.04974  0.22922  1.0000
  C   C20       1.0  0.19633999999999996  0.027560000000000005  0.10943  1.0000
  C   C21       1.0  0.31042  0.03105  0.10808000000000001  1.0000
  C   C22       1.0  0.3448199999999999  0.95044  0.7709500000000001  1.0000
  C   C23       1.0  0.3331700000000001  0.9727299999999999  0.89059  1.0000
  C   C24       1.0  0.4495499999999997  0.9690500000000001  0.8919  1.0000
  C   C25       1.0  0.79347  0.99998  0.99995  1.0000
  C   C26       1.0  0.5608800000000002  0.99979  0.0001  1.0000
  C   C27       1.0  0.5435399999999999  0.4999700000000001  0.49991  1.0000
  C   C28       1.0  0.31076  0.50014  0.50006  1.0000
  C   C29       1.0  0.9565500000000001  0.50013  0.50013  1.0000
  C   C30       1.0  0.18921  0.50003  0.5001  1.0000
  C   C31       1.0  0.20650999999999997  0.00015  0.00011000000000000002  1.0000
  C   C32       1.0  0.4392399999999999  0.99995  0.9999600000000001  1.0000
  O   O1        1.0  0.8451699999999999  0.10758  0.6852  1.0000
  O   O2        1.0  0.007719999999999968  0.00622  0.7619200000000002  1.0000
  O   O3        1.0  0.63829  0.89237  0.31493  1.0000
  O   O4        1.0  0.7756699999999997  0.99417  0.23804  1.0000
  O   O5        1.0  0.7024799999999999  0.18511  0.39268  1.0000
  O   O6        1.0  0.7642  0.26211  0.49318000000000006  1.0000
  O   O7        1.0  0.2801600000000001  0.81483  0.60793  1.0000
  O   O8        1.0  0.51964  0.7378  0.50671  1.0000
  O   O9        1.0  0.9054899999999998  0.81463  0.39143999999999995  1.0000
  O   O10       1.0  0.74268  0.73821  0.49329  1.0000
  O   O11       1.0  0.11172999999999998  0.18527  0.60812  1.0000
  O   O12       1.0  0.9735500000000001  0.26235  0.50705  1.0000
  O   O13       1.0  0.047020000000000006  0.10768  0.31496  1.0000
  O   O14       1.0  0.98612  0.00624  0.23816  1.0000
  O   O15       1.0  0.4695399999999998  0.89218  0.68515  1.0000
  O   O16       1.0  0.23017  0.9941500000000001  0.7620099999999999  1.0000
  O   O17       1.0  0.12502  0.00091  0.50002  1.0000
  O   O18       1.0  0.6254100000000001  0.99926  0.49999  1.0000
  O   O19       1.0  0.8747799999999999  0.00061  0.49976  1.0000
  O   O20       1.0  0.37513  0.99926  0.50008  1.0000
