data_image0
_chemical_formula_structural       Cu8H4C24N36
_chemical_formula_sum              "Cu8 H4 C24 N36"
_cell_length_a       9.25905
_cell_length_b       12.94517
_cell_length_c       15.900709999999998
_cell_angle_alpha    68.63867
_cell_angle_beta     72.85299
_cell_angle_gamma    68.98741

_space_group_name_H-M_alt    "P 1"
_space_group_IT_number       1

loop_
  _space_group_symop_operation_xyz
  'x, y, z'

loop_
  _atom_site_type_symbol
  _atom_site_label
  _atom_site_symmetry_multiplicity
  _atom_site_fract_x
  _atom_site_fract_y
  _atom_site_fract_z
  _atom_site_occupancy
  Cu  Cu1       1.0  0.86372  0.9518900000000001  0.9570999999999997  1.0000
  Cu  Cu2       1.0  0.66942  0.29204  0.6249399999999998  1.0000
  Cu  Cu3       1.0  0.7714899999999999  0.54857  0.54246  1.0000
  Cu  Cu4       1.0  0.58613  0.20826  0.8752999999999999  1.0000
  Cu  Cu5       1.0  0.13631000000000001  0.048059999999999985  0.04292999999999999  1.0000
  Cu  Cu6       1.0  0.33048000000000005  0.7080199999999999  0.37505  1.0000
  Cu  Cu7       1.0  0.22845000000000007  0.45152000000000003  0.4575399999999999  1.0000
  Cu  Cu8       1.0  0.41385999999999995  0.7917300000000002  0.12475999999999997  1.0000
  H   H1        1.0  0.9087699999999999  0.8577400000000001  0.6404199999999998  1.0000
  H   H2        1.0  0.4069500000000001  0.64242  0.8600999999999999  1.0000
  H   H3        1.0  0.09122  0.14232  0.35959  1.0000
  H   H4        1.0  0.59311  0.3575800000000001  0.13996999999999996  1.0000
  C   C1        1.0  0.94894  0.9204499999999999  0.57863  1.0000
  C   C2        1.0  0.9387  0.028529999999999958  0.58423  1.0000
  C   C3        1.0  0.99085  0.11012999999999999  0.50355  1.0000
  C   C4        1.0  0.9939399999999999  0.22454  0.4994899999999999  1.0000
  C   C5        1.0  0.8812299999999998  0.04476000000000001  0.67643  1.0000
  C   C6        1.0  0.6873199999999999  0.89732  0.024579999999999994  1.0000
  C   C7        1.0  0.44807000000000013  0.57961  0.9216699999999998  1.0000
  C   C8        1.0  0.55162  0.47159999999999996  0.9157699999999998  1.0000
  C   C9        1.0  0.60461  0.38994999999999996  0.9962099999999998  1.0000
  C   C10       1.0  0.71803  0.27553  0.00019  1.0000
  C   C11       1.0  0.60237  0.45552000000000004  0.82355  1.0000
  C   C12       1.0  0.60941  0.60272  0.47454  1.0000
  C   C13       1.0  0.05104000000000002  0.07962999999999999  0.42139  1.0000
  C   C14       1.0  0.06125000000000001  0.9715600000000001  0.4157899999999999  1.0000
  C   C15       1.0  0.009129999999999958  0.88995  0.49646999999999997  1.0000
  C   C16       1.0  0.005999999999999982  0.77554  0.50052  1.0000
  C   C17       1.0  0.11863999999999998  0.95534  0.32358  1.0000
  C   C18       1.0  0.31305000000000005  0.10229999999999997  0.97568  1.0000
  C   C19       1.0  0.5519599999999999  0.42035  0.07839999999999998  1.0000
  C   C20       1.0  0.44836  0.52835  0.08431  1.0000
  C   C21       1.0  0.39541  0.61  0.00387  1.0000
  C   C22       1.0  0.2819800000000001  0.72443  0.9999  1.0000
  C   C23       1.0  0.39755000000000007  0.54443  0.17652999999999994  1.0000
  C   C24       1.0  0.39064000000000004  0.39757  0.52536  1.0000
  N   N1        1.0  0.11798999999999994  0.26715000000000005  0.45512999999999987  1.0000
  N   N2        1.0  0.07302000000000007  0.37261999999999995  0.4657999999999999  1.0000
  N   N3        1.0  0.9252899999999998  0.39550999999999986  0.51418  1.0000
  N   N4        1.0  0.8744599999999999  0.3033799999999999  0.5354699999999999  1.0000
  N   N5        1.0  0.7682700000000003  0.13643999999999998  0.69978  1.0000
  N   N6        1.0  0.74671  0.1099200000000001  0.7913199999999998  1.0000
  N   N7        1.0  0.8434700000000003  0.006330000000000096  0.8218399999999998  1.0000
  N   N8        1.0  0.9287700000000001  0.96271  0.75219  1.0000
  N   N9        1.0  0.5786200000000001  0.8603899999999999  0.06385  1.0000
  N   N10       1.0  0.8394999999999999  0.23264999999999997  0.044869999999999986  1.0000
  N   N11       1.0  0.9105899999999999  0.12703  0.03447  1.0000
  N   N12       1.0  0.8348599999999998  0.10437000000000013  0.9859199999999998  1.0000
  N   N13       1.0  0.71373  0.19676000000000007  0.9642499999999998  1.0000
  N   N14       1.0  0.6042900000000002  0.36385999999999996  0.8004399999999998  1.0000
  N   N15       1.0  0.6470099999999999  0.39063  0.70881  1.0000
  N   N16       1.0  0.6702800000000001  0.49441  0.6779899999999998  1.0000
  N   N17       1.0  0.6428599999999998  0.53787  0.74755  1.0000
  N   N18       1.0  0.50393  0.63948  0.43492  1.0000
  N   N19       1.0  0.8819700000000003  0.73292  0.5449099999999999  1.0000
  N   N20       1.0  0.92691  0.6274599999999999  0.5342199999999999  1.0000
  N   N21       1.0  0.07463  0.60457  0.48583  1.0000
  N   N22       1.0  0.12548  0.69669  0.4645499999999999  1.0000
  N   N23       1.0  0.2315300000000001  0.8636399999999999  0.30021  1.0000
  N   N24       1.0  0.2530899999999999  0.89018  0.20867  1.0000
  N   N25       1.0  0.15639999999999996  0.99381  0.17816999999999997  1.0000
  N   N26       1.0  0.07116  0.03744  0.24782  1.0000
  N   N27       1.0  0.4217500000000001  0.13918000000000005  0.9363999999999998  1.0000
  N   N28       1.0  0.16058000000000025  0.7673299999999996  0.95516  1.0000
  N   N29       1.0  0.08947999999999998  0.87296  0.96553  1.0000
  N   N30       1.0  0.16516  0.8956199999999999  0.0141  1.0000
  N   N31       1.0  0.28627000000000014  0.8032399999999997  0.03581  1.0000
  N   N32       1.0  0.3954300000000002  0.6361599999999997  0.19963999999999996  1.0000
  N   N33       1.0  0.35279999999999995  0.6093499999999998  0.29127  1.0000
  N   N34       1.0  0.3297900000000002  0.50549  0.3220899999999999  1.0000
  N   N35       1.0  0.35729  0.46201  0.25254  1.0000
  N   N36       1.0  0.49613000000000007  0.3608999999999999  0.56496  1.0000
