data_image0
_chemical_formula_structural       Co2H2C10O8
_chemical_formula_sum              "Co2 H2 C10 O8"
_cell_length_a       6.63731
_cell_length_b       7.32992
_cell_length_c       8.16845
_cell_angle_alpha    90.44084
_cell_angle_beta     109.03331
_cell_angle_gamma    92.76187999999999

_symmetry_space_group_name_H-M    'P 1'
_symmetry_Int_Tables_number       1

loop_
  _symmetry_equiv_pos_as_xyz
  'x,y,z'

loop_
  _atom_site_type_symbol
  _atom_site_label
  _atom_site_symmetry_multiplicity
  _atom_site_fract_x
  _atom_site_fract_y
  _atom_site_fract_z
  _atom_site_occupancy
  Co  Co1       1.0  0.9979100000000001  0.9962  0.5001  1.0000
  Co  Co2       1.0  0.49588000000000004  0.49939  0.49950000000000006  1.0000
  H   H1        1.0  0.56857  0.6756  0.95717  1.0000
  H   H2        1.0  0.43224  0.32282  0.04348  1.0000
  C   C1        1.0  0.63967  0.75665  0.2915500000000001  1.0000
  C   C2        1.0  0.5761300000000001  0.88741  0.14524000000000006  1.0000
  C   C3        1.0  0.5377200000000001  0.07201  0.16835  1.0000
  C   C4        1.0  0.57513  0.1619  0.34207  1.0000
  C   C5        1.0  0.53896  0.81754  0.97752  1.0000
  C   C6        1.0  0.35534  0.24005  0.70801  1.0000
  C   C7        1.0  0.42294000000000004  0.11075  0.8552000000000002  1.0000
  C   C8        1.0  0.4621400000000001  0.9264  0.83227  1.0000
  C   C9        1.0  0.4246500000000002  0.8368000000000002  0.6586100000000003  1.0000
  C   C10       1.0  0.46165  0.18092  0.02301  1.0000
  O   O1        1.0  0.82333  0.77064  0.4074  1.0000
  O   O2        1.0  0.49977999999999995  0.62984  0.28701  1.0000
  O   O3        1.0  0.7388600000000002  0.1293  0.47112  1.0000
  O   O4        1.0  0.43933  0.27605  0.34944000000000003  1.0000
  O   O5        1.0  0.17250000000000004  0.22173000000000004  0.5919800000000002  1.0000
  O   O6        1.0  0.49122000000000016  0.37049  0.7121800000000003  1.0000
  O   O7        1.0  0.2607900000000002  0.8693  0.5296700000000002  1.0000
  O   O8        1.0  0.5606900000000002  0.72297  0.6509900000000002  1.0000
