data_image0
_chemical_formula_structural       Nd4H16C20O32
_chemical_formula_sum              "Nd4 H16 C20 O32"
_cell_length_a       6.02211
_cell_length_b       7.6249199999999995
_cell_length_c       22.37147
_cell_angle_alpha    90.00116000000001
_cell_angle_beta     91.80985
_cell_angle_gamma    90.02004000000001

_space_group_name_H-M_alt    "P 1"
_space_group_IT_number       1

loop_
  _space_group_symop_operation_xyz
  'x, y, z'

loop_
  _atom_site_type_symbol
  _atom_site_label
  _atom_site_symmetry_multiplicity
  _atom_site_fract_x
  _atom_site_fract_y
  _atom_site_fract_z
  _atom_site_occupancy
  Nd  Nd1       1.0  0.46859  0.50585  0.85595  1.0000
  Nd  Nd2       1.0  0.5317  0.00482  0.64318  1.0000
  Nd  Nd3       1.0  0.53204  0.49455  0.14377  1.0000
  Nd  Nd4       1.0  0.46832  0.99403  0.35620999999999997  1.0000
  H   H1        1.0  0.32338  0.74534  0.75731  1.0000
  H   H2        1.0  0.45433  0.6208200000000003  0.60824  1.0000
  H   H3        1.0  0.02660000000000001  0.46825  0.72063  1.0000
  H   H4        1.0  0.10478  0.55251  0.62253  1.0000
  H   H5        1.0  0.67722  0.24541  0.7423899999999999  1.0000
  H   H6        1.0  0.5466700000000001  0.12313  0.8925199999999999  1.0000
  H   H7        1.0  0.97343  0.96869  0.77947  1.0000
  H   H8        1.0  0.89477  0.05214  0.8775  1.0000
  H   H9        1.0  0.6772800000000002  0.25434  0.24239  1.0000
  H   H10       1.0  0.54666  0.3778  0.39192  1.0000
  H   H11       1.0  0.97401  0.5312100000000002  0.27916  1.0000
  H   H12       1.0  0.8958600000000002  0.44817  0.37746  1.0000
  H   H13       1.0  0.32288  0.7543900000000002  0.25752  1.0000
  H   H14       1.0  0.4530800000000001  0.87771  0.1078  1.0000
  H   H15       1.0  0.026310000000000007  0.03168  0.22077  1.0000
  H   H16       1.0  0.10581000000000003  0.94811  0.12242  1.0000
  C   C1        1.0  0.37185000000000007  0.3990400000000001  0.7119499999999999  1.0000
  C   C2        1.0  0.18648000000000006  0.53673  0.71616  1.0000
  C   C3        1.0  0.17865  0.63951  0.65688  1.0000
  C   C4        1.0  0.04302  0.81018  0.65869  1.0000
  C   C5        1.0  0.57518  0.58228  0.99922  1.0000
  C   C6        1.0  0.62784  0.8991100000000002  0.78796  1.0000
  C   C7        1.0  0.81335  0.03686  0.7838499999999999  1.0000
  C   C8        1.0  0.8209300000000002  0.13937  0.8432  1.0000
  C   C9        1.0  0.95678  0.31007  0.84133  1.0000
  C   C10       1.0  0.42519000000000007  0.08233  0.5004  1.0000
  C   C11       1.0  0.62812  0.60089  0.2881  1.0000
  C   C12       1.0  0.8137400000000002  0.46336  0.28377  1.0000
  C   C13       1.0  0.82247  0.36082  0.34311  1.0000
  C   C14       1.0  0.9589300000000001  0.19043  0.34125  1.0000
  C   C15       1.0  0.42469000000000007  0.4173  0.00044999999999999993  1.0000
  C   C16       1.0  0.37182000000000004  0.10088  0.21189  1.0000
  C   C17       1.0  0.18621000000000001  0.9634100000000002  0.21614  1.0000
  C   C18       1.0  0.17861  0.86079  0.15681  1.0000
  C   C19       1.0  0.04281000000000001  0.69026  0.15861  1.0000
  C   C20       1.0  0.5755400000000002  0.91718  0.4992599999999999  1.0000
  O   O1        1.0  0.52308  0.40113  0.7535  1.0000
  O   O2        1.0  0.36826000000000003  0.29399  0.6685699999999999  1.0000
  O   O3        1.0  0.22178000000000006  0.64341  0.76803  1.0000
  O   O4        1.0  0.4027100000000001  0.68828  0.64206  1.0000
  O   O5        1.0  0.15077000000000002  0.95243  0.65397  1.0000
  O   O6        1.0  0.83528  0.79852  0.66358  1.0000
  O   O7        1.0  0.60642  0.65044  0.9485599999999998  1.0000
  O   O8        1.0  0.65389  0.63541  0.049400000000000006  1.0000
  O   O9        1.0  0.4774  0.9010000000000002  0.7461799999999998  1.0000
  O   O10       1.0  0.63053  0.7942700000000003  0.83135  1.0000
  O   O11       1.0  0.77877  0.14347  0.7319099999999998  1.0000
  O   O12       1.0  0.59684  0.18781  0.8579399999999999  1.0000
  O   O13       1.0  0.8491300000000002  0.4523800000000001  0.8460699999999999  1.0000
  O   O14       1.0  0.16447  0.29867  0.83632  1.0000
  O   O15       1.0  0.39341  0.15071000000000004  0.55099  1.0000
  O   O16       1.0  0.34683  0.1351  0.45014999999999994  1.0000
  O   O17       1.0  0.4767700000000001  0.599  0.24641  1.0000
  O   O18       1.0  0.63131  0.70591  0.33144  1.0000
  O   O19       1.0  0.77856  0.3566100000000001  0.23187  1.0000
  O   O20       1.0  0.59872  0.31128  0.35794999999999993  1.0000
  O   O21       1.0  0.8527100000000002  0.047630000000000006  0.34612  1.0000
  O   O22       1.0  0.16671  0.20249  0.33621  1.0000
  O   O23       1.0  0.3937  0.34887  0.05124  1.0000
  O   O24       1.0  0.34591  0.36475  0.95035  1.0000
  O   O25       1.0  0.52299  0.09867000000000001  0.25344  1.0000
  O   O26       1.0  0.36856000000000005  0.20606  0.16847  1.0000
  O   O27       1.0  0.22194  0.8567600000000002  0.26808  1.0000
  O   O28       1.0  0.4027000000000001  0.81226  0.14219  1.0000
  O   O29       1.0  0.15008000000000002  0.5479  0.15378  1.0000
  O   O30       1.0  0.8352000000000003  0.70214  0.16377  1.0000
  O   O31       1.0  0.60673  0.84829  0.44863  1.0000
  O   O32       1.0  0.6539800000000002  0.86483  0.54945  1.0000
