data_image0
_chemical_formula_structural       Eu4H20C36N4O32
_chemical_formula_sum              "Eu4 H20 C36 N4 O32"
_cell_length_a       13.75499
_cell_length_b       13.956870000000002
_cell_length_c       15.39227
_cell_angle_alpha    95.97142
_cell_angle_beta     90.85957
_cell_angle_gamma    118.16824

_space_group_name_H-M_alt    "P 1"
_space_group_IT_number       1

loop_
  _space_group_symop_operation_xyz
  'x, y, z'

loop_
  _atom_site_type_symbol
  _atom_site_label
  _atom_site_symmetry_multiplicity
  _atom_site_fract_x
  _atom_site_fract_y
  _atom_site_fract_z
  _atom_site_occupancy
  Eu  Eu1       1.0  0.48911999999999983  0.8582099999999999  0.47485  1.0000
  Eu  Eu2       1.0  0.13797999999999996  0.14196  0.01777  1.0000
  Eu  Eu3       1.0  0.51147  0.14158  0.52371  1.0000
  Eu  Eu4       1.0  0.8624299999999997  0.8581599999999998  0.98154  1.0000
  H   H1        1.0  0.7804399999999998  0.28039  0.37285  1.0000
  H   H2        1.0  0.9966999999999998  0.26921  0.17469  1.0000
  H   H3        1.0  0.7134899999999997  0.9722299999999998  0.22943  1.0000
  H   H4        1.0  0.9429799999999998  0.4294699999999999  0.4214100000000001  1.0000
  H   H5        1.0  0.86364  0.45596  0.34377  1.0000
  H   H6        1.0  0.029460000000000014  0.62379  0.42717  1.0000
  H   H7        1.0  0.11741999999999995  0.58454  0.3660000000000001  1.0000
  H   H8        1.0  0.9794  0.72138  0.17404000000000006  1.0000
  H   H9        1.0  0.25042  0.04234  0.26136  1.0000
  H   H10       1.0  0.20125000000000007  0.76987  0.39695  1.0000
  H   H11       1.0  0.21968000000000001  0.71932  0.62697  1.0000
  H   H12       1.0  0.003919999999999987  0.73129  0.8253500000000003  1.0000
  H   H13       1.0  0.28742999999999996  0.027809999999999998  0.77026  1.0000
  H   H14       1.0  0.056829999999999985  0.57043  0.57895  1.0000
  H   H15       1.0  0.13637999999999995  0.54371  0.65633  1.0000
  H   H16       1.0  0.9703299999999998  0.37604999999999994  0.57351  1.0000
  H   H17       1.0  0.8825499999999997  0.41566  0.6345800000000003  1.0000
  H   H18       1.0  0.020389999999999967  0.27813999999999994  0.82595  1.0000
  H   H19       1.0  0.7492599999999999  0.95742  0.7384800000000002  1.0000
  H   H20       1.0  0.7987799999999998  0.23031  0.6031500000000002  1.0000
  C   C1        1.0  0.6420199999999999  0.06757000000000002  0.36128000000000005  1.0000
  C   C2        1.0  0.73921  0.12167  0.30748  1.0000
  C   C3        1.0  0.8045999999999998  0.23546999999999998  0.32389  1.0000
  C   C4        1.0  0.8983499999999998  0.28831  0.27691  1.0000
  C   C5        1.0  0.9245099999999998  0.22741999999999998  0.2114  1.0000
  C   C6        1.0  0.85689  0.11437  0.19400000000000006  1.0000
  C   C7        1.0  0.7648399999999997  0.06056999999999999  0.2428  1.0000
  C   C8        1.0  0.88019  0.04848999999999999  0.12218  1.0000
  C   C9        1.0  0.9446999999999995  0.46154  0.3588000000000001  1.0000
  C   C10       1.0  0.034849999999999985  0.57871  0.36583000000000004  1.0000
  C   C11       1.0  0.08177999999999988  0.7332899999999999  0.28713  1.0000
  C   C12       1.0  0.05135999999999999  0.77553  0.21844  1.0000
  C   C13       1.0  0.11305999999999983  0.8861199999999999  0.20842  1.0000
  C   C14       1.0  0.2035899999999999  0.95563  0.26787  1.0000
  C   C15       1.0  0.23376999999999992  0.91287  0.33569  1.0000
  C   C16       1.0  0.17456  0.80154  0.34525  1.0000
  C   C17       1.0  0.3288599999999999  0.9884899999999998  0.3991900000000001  1.0000
  C   C18       1.0  0.08142000000000005  0.93129  0.13482000000000005  1.0000
  C   C19       1.0  0.35744  0.93219  0.6373  1.0000
  C   C20       1.0  0.2612  0.87824  0.6920800000000001  1.0000
  C   C21       1.0  0.19584999999999994  0.7644  0.67608  1.0000
  C   C22       1.0  0.10222999999999988  0.7118199999999998  0.7232400000000002  1.0000
  C   C23       1.0  0.07619  0.77291  0.78866  1.0000
  C   C24       1.0  0.1439099999999999  0.88595  0.80588  1.0000
  C   C25       1.0  0.23595999999999995  0.93949  0.7569600000000002  1.0000
  C   C26       1.0  0.12065999999999993  0.9519999999999997  0.87759  1.0000
  C   C27       1.0  0.05536  0.53835  0.64151  1.0000
  C   C28       1.0  0.9650399999999998  0.42131999999999986  0.63482  1.0000
  C   C29       1.0  0.9179399999999998  0.26668  0.71316  1.0000
  C   C30       1.0  0.9483799999999998  0.2242  0.78159  1.0000
  C   C31       1.0  0.8866899999999999  0.11357  0.79143  1.0000
  C   C32       1.0  0.7961999999999999  0.04414999999999999  0.73197  1.0000
  C   C33       1.0  0.7661599999999997  0.08705  0.66418  1.0000
  C   C34       1.0  0.8253499999999997  0.19851999999999997  0.6548500000000003  1.0000
  C   C35       1.0  0.67108  0.01144999999999999  0.60063  1.0000
  C   C36       1.0  0.91841  0.06859000000000001  0.8649900000000003  1.0000
  N   N1        1.0  0.32346  0.62957  0.48676000000000014  1.0000
  N   N2        1.0  0.27461999999999986  0.37482999999999994  0.9982500000000001  1.0000
  N   N3        1.0  0.67693  0.3701499999999999  0.51131  1.0000
  N   N4        1.0  0.72815  0.62528  0.00022  1.0000
  O   O1        1.0  0.4200399999999999  0.6657299999999998  0.52362  1.0000
  O   O2        1.0  0.3136  0.68555  0.42778  1.0000
  O   O3        1.0  0.24176999999999996  0.54728  0.50619  1.0000
  O   O4        1.0  0.60422  0.96583  0.36782  1.0000
  O   O5        1.0  0.60511  0.12838999999999998  0.39815  1.0000
  O   O6        1.0  0.8051599999999998  0.95212  0.09548  1.0000
  O   O7        1.0  0.9753999999999998  0.09347  0.09091  1.0000
  O   O8        1.0  0.30045  0.30168  0.96569  1.0000
  O   O9        1.0  0.19682999999999995  0.34295  0.05164000000000001  1.0000
  O   O10       1.0  0.32032999999999995  0.4685799999999999  0.97875  1.0000
  O   O11       1.0  0.9685499999999999  0.39811  0.29034  1.0000
  O   O12       1.0  0.01507999999999993  0.62496  0.29195  1.0000
  O   O13       1.0  0.98602  0.8714799999999998  0.09549  1.0000
  O   O14       1.0  0.15132  0.025569999999999996  0.11689  1.0000
  O   O15       1.0  0.38420999999999983  0.9492399999999998  0.43731  1.0000
  O   O16       1.0  0.35241  0.08813  0.41547  1.0000
  O   O17       1.0  0.57899  0.33406  0.47703  1.0000
  O   O18       1.0  0.68977  0.31405  0.56873  1.0000
  O   O19       1.0  0.75731  0.45267  0.49067  1.0000
  O   O20       1.0  0.39619  0.03431  0.63195  1.0000
  O   O21       1.0  0.39213999999999993  0.8705999999999998  0.59825  1.0000
  O   O22       1.0  0.19574000000000003  0.04825999999999999  0.90438  1.0000
  O   O23       1.0  0.025470000000000024  0.9072699999999999  0.90897  1.0000
  O   O24       1.0  0.69939  0.6971999999999999  0.03023  1.0000
  O   O25       1.0  0.80659  0.65764  0.94753  1.0000
  O   O26       1.0  0.68473  0.5323  0.02129  1.0000
  O   O27       1.0  0.031929999999999986  0.60204  0.7100100000000003  1.0000
  O   O28       1.0  0.9846299999999998  0.3751999999999999  0.70888  1.0000
  O   O29       1.0  0.013729999999999997  0.12854  0.90437  1.0000
  O   O30       1.0  0.8485099999999998  0.9742999999999999  0.883  1.0000
  O   O31       1.0  0.6159299999999998  0.05076999999999999  0.56227  1.0000
  O   O32       1.0  0.6472299999999997  0.9117299999999998  0.58446  1.0000
