data_image0
_chemical_formula_structural       Er2H14C30O14
_chemical_formula_sum              "Er2 H14 C30 O14"
_cell_length_a       9.58013
_cell_length_b       9.65812
_cell_length_c       11.51506
_cell_angle_alpha    93.10019
_cell_angle_beta     100.71478
_cell_angle_gamma    111.71394

_space_group_name_H-M_alt    "P 1"
_space_group_IT_number       1

loop_
  _space_group_symop_operation_xyz
  'x, y, z'

loop_
  _atom_site_type_symbol
  _atom_site_label
  _atom_site_symmetry_multiplicity
  _atom_site_fract_x
  _atom_site_fract_y
  _atom_site_fract_z
  _atom_site_occupancy
  Er  Er1       1.0  0.73258  0.46199  0.03381000000000001  1.0000
  Er  Er2       1.0  0.26747000000000004  0.53805  0.9662200000000002  1.0000
  H   H1        1.0  0.71739  0.7737  0.36727000000000004  1.0000
  H   H2        1.0  0.81399  0.9076999999999998  0.5761800000000001  1.0000
  H   H3        1.0  0.16909000000000002  0.73037  0.6324300000000002  1.0000
  H   H4        1.0  0.07184999999999991  0.5972099999999999  0.42201000000000005  1.0000
  H   H5        1.0  0.09063000000000002  0.15811999999999998  0.8345400000000002  1.0000
  H   H6        1.0  0.6715099999999999  0.9940299999999999  0.96571  1.0000
  H   H7        1.0  0.8093600000000001  0.68575  0.7764900000000002  1.0000
  H   H8        1.0  0.28262  0.22631  0.63273  1.0000
  H   H9        1.0  0.18601999999999996  0.09231  0.42382  1.0000
  H   H10       1.0  0.83092  0.26964  0.3675700000000001  1.0000
  H   H11       1.0  0.92816  0.4028  0.57799  1.0000
  H   H12       1.0  0.90938  0.8418899999999999  0.16547  1.0000
  H   H13       1.0  0.32851  0.005979999999999999  0.03429  1.0000
  H   H14       1.0  0.19065  0.31425  0.22351  1.0000
  C   C1        1.0  0.82501  0.5911599999999999  0.26169  1.0000
  C   C2        1.0  0.88712  0.6752999999999998  0.38312  1.0000
  C   C3        1.0  0.8154699999999999  0.7643599999999999  0.42619000000000007  1.0000
  C   C4        1.0  0.8690200000000001  0.8387899999999999  0.5423500000000001  1.0000
  C   C5        1.0  0.99615  0.8245199999999999  0.6155100000000001  1.0000
  C   C6        1.0  0.07224  0.74053  0.57271  1.0000
  C   C7        1.0  0.017079999999999897  0.6659799999999998  0.45662  1.0000
  C   C8        1.0  0.9540999999999998  0.9207499999999998  0.79367  1.0000
  C   C9        1.0  0.98685  0.06671000000000002  0.8441200000000002  1.0000
  C   C10       1.0  0.88303  0.09308000000000002  0.9047700000000001  1.0000
  C   C11       1.0  0.75132  0.97332  0.9181800000000001  1.0000
  C   C12       1.0  0.72762  0.8258  0.8758  1.0000
  C   C13       1.0  0.82823  0.79954  0.81156  1.0000
  C   C14       1.0  0.91234  0.24969  0.95428  1.0000
  C   C15       1.0  0.60236  0.69592  0.90587  1.0000
  C   C16       1.0  0.17500000000000004  0.40884  0.7383100000000002  1.0000
  C   C17       1.0  0.11289000000000003  0.32471  0.6168800000000001  1.0000
  C   C18       1.0  0.18454000000000004  0.23564999999999997  0.57381  1.0000
  C   C19       1.0  0.13099  0.16121999999999995  0.45765  1.0000
  C   C20       1.0  0.003860000000000009  0.17549  0.38449  1.0000
  C   C21       1.0  0.92776  0.25948  0.4273  1.0000
  C   C22       1.0  0.9829300000000001  0.33402000000000004  0.5433800000000001  1.0000
  C   C23       1.0  0.04591000000000001  0.07926  0.20634  1.0000
  C   C24       1.0  0.013159999999999963  0.9332999999999999  0.15588000000000002  1.0000
  C   C25       1.0  0.11698000000000001  0.90693  0.09524000000000003  1.0000
  C   C26       1.0  0.24870000000000003  0.026690000000000002  0.08183000000000001  1.0000
  C   C27       1.0  0.27239  0.17421  0.1242  1.0000
  C   C28       1.0  0.17178  0.20046  0.18845  1.0000
  C   C29       1.0  0.08767000000000001  0.75032  0.045720000000000004  1.0000
  C   C30       1.0  0.39764  0.30409  0.09413  1.0000
  O   O1        1.0  0.8742999999999999  0.4920399999999999  0.22715  1.0000
  O   O2        1.0  0.7219099999999998  0.6182199999999999  0.1883  1.0000
  O   O3        1.0  0.48741  0.71556  0.933  1.0000
  O   O4        1.0  0.61771  0.56916  0.9050900000000002  1.0000
  O   O5        1.0  0.7959099999999999  0.27653999999999995  0.97158  1.0000
  O   O6        1.0  0.04876  0.34840999999999994  0.9774400000000002  1.0000
  O   O7        1.0  0.05657000000000012  0.89638  0.7318200000000002  1.0000
  O   O8        1.0  0.12571000000000002  0.50797  0.7728500000000003  1.0000
  O   O9        1.0  0.27809999999999996  0.3817899999999999  0.8117  1.0000
  O   O10       1.0  0.51261  0.28446  0.06701  1.0000
  O   O11       1.0  0.3822999999999999  0.4308499999999999  0.09491  1.0000
  O   O12       1.0  0.2041  0.7234599999999999  0.02843  1.0000
  O   O13       1.0  0.95124  0.6515899999999999  0.022570000000000007  1.0000
  O   O14       1.0  0.94343  0.10363  0.26819  1.0000
