data_image0
_chemical_formula_structural       Eu2H16C20N2O14
_chemical_formula_sum              "Eu2 H16 C20 N2 O14"
_cell_length_a       8.29637
_cell_length_b       9.667
_cell_length_c       10.54995
_cell_angle_alpha    94.73019999999998
_cell_angle_beta     112.62369999999999
_cell_angle_gamma    112.63567

_symmetry_space_group_name_H-M    'P 1'
_symmetry_Int_Tables_number       1

loop_
  _symmetry_equiv_pos_as_xyz
  'x,y,z'

loop_
  _atom_site_type_symbol
  _atom_site_label
  _atom_site_symmetry_multiplicity
  _atom_site_fract_x
  _atom_site_fract_y
  _atom_site_fract_z
  _atom_site_occupancy
  Eu  Eu1       1.0  0.2872  0.05252  0.01298  1.0000
  Eu  Eu2       1.0  0.71211  0.9474900000000002  0.9871  1.0000
  H   H1        1.0  0.84029  0.77866  0.6563  1.0000
  H   H2        1.0  0.72877  0.79406  0.39792  1.0000
  H   H3        1.0  0.74137  0.23155000000000003  0.53815  1.0000
  H   H4        1.0  0.87896  0.20670999999999995  0.79388  1.0000
  H   H5        1.0  0.48434  0.61676  0.1389  1.0000
  H   H6        1.0  0.2723  0.53764  0.16658  1.0000
  H   H7        1.0  0.26792999999999995  0.53896  0.87225  1.0000
  H   H8        1.0  0.05818000000000008  0.47361000000000003  0.9049700000000002  1.0000
  H   H9        1.0  0.16044  0.22117  0.34416  1.0000
  H   H10       1.0  0.2707999999999998  0.20556  0.60246  1.0000
  H   H11       1.0  0.25842  0.76823  0.46237000000000006  1.0000
  H   H12       1.0  0.12231000000000002  0.79336  0.20658  1.0000
  H   H13       1.0  0.51573  0.3830799999999999  0.86145  1.0000
  H   H14       1.0  0.72811  0.46199  0.8339  1.0000
  H   H15       1.0  0.73245  0.46109000000000006  0.12828  1.0000
  H   H16       1.0  0.9421799999999998  0.52598  0.0952  1.0000
  C   C1        1.0  0.82052  0.87575  0.62077  1.0000
  C   C2        1.0  0.75738  0.88665  0.48182  1.0000
  C   C3        1.0  0.7291500000000001  0.015740000000000007  0.4493400000000001  1.0000
  C   C4        1.0  0.76658  0.13178  0.56029  1.0000
  C   C5        1.0  0.83865  0.12141000000000002  0.6993  1.0000
  C   C6        1.0  0.6616  0.02907000000000002  0.29808000000000007  1.0000
  C   C7        1.0  0.32856  0.37195  0.06942  1.0000
  C   C8        1.0  0.32966  0.52894  0.08976000000000002  1.0000
  C   C9        1.0  0.2136299999999999  0.55654  0.94903  1.0000
  C   C10       1.0  0.23787000000000008  0.72165  0.9740100000000002  1.0000
  C   C11       1.0  0.18001  0.12404999999999998  0.37968  1.0000
  C   C12       1.0  0.24309000000000003  0.1133  0.51868  1.0000
  C   C13       1.0  0.27131000000000005  0.9842400000000001  0.55118  1.0000
  C   C14       1.0  0.23399  0.86828  0.44018  1.0000
  C   C15       1.0  0.1620999999999999  0.87853  0.3011  1.0000
  C   C16       1.0  0.33875  0.97065  0.70234  1.0000
  C   C17       1.0  0.6713699999999999  0.6278399999999998  0.9302999999999999  1.0000
  C   C18       1.0  0.6703999999999999  0.47094999999999987  0.9104199999999999  1.0000
  C   C19       1.0  0.7865299999999998  0.44357  0.05132  1.0000
  C   C20       1.0  0.76174  0.27835  0.025530000000000004  1.0000
  N   N1        1.0  0.86423  0.99418  0.72708  1.0000
  N   N2        1.0  0.13607  0.005600000000000002  0.27328  1.0000
  O   O1        1.0  0.9337300000000001  0.9852700000000001  0.86053  1.0000
  O   O2        1.0  0.52096  0.06403  0.25141  1.0000
  O   O3        1.0  0.7533400000000001  0.0038000000000000087  0.23408000000000004  1.0000
  O   O4        1.0  0.38572999999999996  0.31971  0.17597  1.0000
  O   O5        1.0  0.27405999999999986  0.29202999999999996  0.94405  1.0000
  O   O6        1.0  0.109  0.75039  0.9901400000000001  1.0000
  O   O7        1.0  0.39200999999999997  0.8314399999999998  0.98025  1.0000
  O   O8        1.0  0.06602  0.014369999999999999  0.13979  1.0000
  O   O9        1.0  0.47942000000000007  0.9357600000000001  0.7487  1.0000
  O   O10       1.0  0.24661999999999998  0.9951499999999999  0.76637  1.0000
  O   O11       1.0  0.61434  0.68013  0.82374  1.0000
  O   O12       1.0  0.72562  0.70771  0.05562  1.0000
  O   O13       1.0  0.88919  0.2494  0.007230000000000001  1.0000
  O   O14       1.0  0.60837  0.16873  0.02044  1.0000
