data_image0
_chemical_formula_structural       Mg2H16C36O16
_chemical_formula_sum              "Mg2 H16 C36 O16"
_cell_length_a       9.2809
_cell_length_b       10.51621
_cell_length_c       13.2799
_cell_angle_alpha    66.62325999999999
_cell_angle_beta     83.93062
_cell_angle_gamma    74.12399

_symmetry_space_group_name_H-M    'P 1'
_symmetry_Int_Tables_number       1

loop_
  _symmetry_equiv_pos_as_xyz
  'x,y,z'

loop_
  _atom_site_type_symbol
  _atom_site_label
  _atom_site_symmetry_multiplicity
  _atom_site_fract_x
  _atom_site_fract_y
  _atom_site_fract_z
  _atom_site_occupancy
  Mg  Mg1       1.0  0.24887999999999985  0.6789800000000004  0.64284  1.0000
  Mg  Mg2       1.0  0.75113  0.3210200000000001  0.35717  1.0000
  H   H1        1.0  0.18820000000000003  0.97692  0.46484  1.0000
  H   H2        1.0  0.08201  0.003159999999999989  0.21153  1.0000
  H   H3        1.0  0.92625  0.6688200000000001  0.47249  1.0000
  H   H4        1.0  0.8592499999999998  0.73904  0.13711  1.0000
  H   H5        1.0  0.31127000000000005  0.55788  0.46475  1.0000
  H   H6        1.0  0.41667999999999994  0.7850200000000002  0.21214  1.0000
  H   H7        1.0  0.57308  0.85823  0.47309  1.0000
  H   H8        1.0  0.63787  0.12470999999999999  0.13784  1.0000
  H   H9        1.0  0.8117999999999999  0.023080000000000007  0.53514  1.0000
  H   H10       1.0  0.91798  0.9968100000000001  0.78848  1.0000
  H   H11       1.0  0.07374999999999997  0.33118000000000003  0.52751  1.0000
  H   H12       1.0  0.14077000000000003  0.26096  0.86291  1.0000
  H   H13       1.0  0.6887299999999998  0.44212000000000007  0.53524  1.0000
  H   H14       1.0  0.5833300000000001  0.21499  0.7878699999999998  1.0000
  H   H15       1.0  0.42691999999999997  0.14177  0.52691  1.0000
  H   H16       1.0  0.36213  0.8752599999999999  0.86218  1.0000
  C   C1        1.0  0.07673999999999999  0.86495  0.43447  1.0000
  C   C2        1.0  0.010860000000000036  0.8387499999999999  0.35042  1.0000
  C   C3        1.0  0.026370000000000022  0.91669  0.23855  1.0000
  C   C4        1.0  0.9720899999999998  0.88148  0.16035  1.0000
  C   C5        1.0  0.8838799999999998  0.69232  0.30875  1.0000
  C   C6        1.0  0.9388499999999999  0.72793  0.38542  1.0000
  C   C7        1.0  0.9017800000000001  0.7673500000000001  0.1965  1.0000
  C   C8        1.0  0.80722  0.57256  0.35286  1.0000
  C   C9        1.0  0.9901299999999998  0.96234  0.04755  1.0000
  C   C10       1.0  0.42082  0.7013500000000003  0.43441  1.0000
  C   C11       1.0  0.4871099999999998  0.8113600000000002  0.35079  1.0000
  C   C12       1.0  0.4719799999999999  0.84494  0.23892  1.0000
  C   C13       1.0  0.5262499999999999  0.9582400000000002  0.16073  1.0000
  C   C14       1.0  0.61407  0.9994000000000001  0.30942  1.0000
  C   C15       1.0  0.5593399999999998  0.8869399999999998  0.3860100000000001  1.0000
  C   C16       1.0  0.59592  0.036600000000000014  0.19712  1.0000
  C   C17       1.0  0.69127  0.07522  0.3533  1.0000
  C   C18       1.0  0.5093299999999998  0.98984  0.04773000000000001  1.0000
  C   C19       1.0  0.9232699999999999  0.13505000000000003  0.56553  1.0000
  C   C20       1.0  0.98914  0.16126000000000001  0.64956  1.0000
  C   C21       1.0  0.97363  0.08329999999999999  0.76144  1.0000
  C   C22       1.0  0.02790999999999999  0.11852000000000001  0.83965  1.0000
  C   C23       1.0  0.11612000000000003  0.30769  0.69124  1.0000
  C   C24       1.0  0.061149999999999996  0.27207000000000003  0.61457  1.0000
  C   C25       1.0  0.09824  0.23266000000000003  0.8035  1.0000
  C   C26       1.0  0.19278  0.4274200000000001  0.64714  1.0000
  C   C27       1.0  0.009869999999999952  0.03766000000000005  0.9524600000000001  1.0000
  C   C28       1.0  0.57918  0.29863000000000006  0.5656  1.0000
  C   C29       1.0  0.51288  0.18864000000000003  0.64919  1.0000
  C   C30       1.0  0.52803  0.1550799999999999  0.7610600000000001  1.0000
  C   C31       1.0  0.4737500000000001  0.04175999999999993  0.83926  1.0000
  C   C32       1.0  0.38593999999999995  0.0006099999999999615  0.6905600000000001  1.0000
  C   C33       1.0  0.4406600000000001  0.11307000000000003  0.61397  1.0000
  C   C34       1.0  0.40406999999999993  0.9633900000000002  0.80288  1.0000
  C   C35       1.0  0.30874  0.92479  0.64671  1.0000
  C   C36       1.0  0.4906800000000001  0.010150000000000034  0.95228  1.0000
  O   O1        1.0  0.13526  0.97514  0.39913000000000004  1.0000
  O   O2        1.0  0.07986999999999993  0.7811200000000003  0.53365  1.0000
  O   O3        1.0  0.7712300000000001  0.53515  0.45327  1.0000
  O   O4        1.0  0.7858700000000001  0.51501  0.28799  1.0000
  O   O5        1.0  0.36432999999999993  0.6250800000000002  0.39919  1.0000
  O   O6        1.0  0.41529999999999967  0.68742  0.53323  1.0000
  O   O7        1.0  0.72789  0.012299999999999997  0.45379  1.0000
  O   O8        1.0  0.71322  0.19732000000000002  0.28804  1.0000
  O   O9        1.0  0.8647600000000001  0.024870000000000038  0.60087  1.0000
  O   O10       1.0  0.92013  0.21886999999999998  0.46634  1.0000
  O   O11       1.0  0.22878999999999988  0.46486000000000005  0.54674  1.0000
  O   O12       1.0  0.21413  0.48500000000000004  0.712  1.0000
  O   O13       1.0  0.63565  0.3749000000000001  0.60081  1.0000
  O   O14       1.0  0.58472  0.3125900000000001  0.46677  1.0000
  O   O15       1.0  0.27211  0.98768  0.54622  1.0000
  O   O16       1.0  0.28678000000000003  0.8027000000000001  0.7119399999999999  1.0000
