data_image0
_chemical_formula_structural       Cd2H34C40N6O8
_chemical_formula_sum              "Cd2 H34 C40 N6 O8"
_cell_length_a       10.09972
_cell_length_b       10.72137
_cell_length_c       10.72393
_cell_angle_alpha    99.04096
_cell_angle_beta     104.74936
_cell_angle_gamma    104.73564

_space_group_name_H-M_alt    "P 1"
_space_group_IT_number       1

loop_
  _space_group_symop_operation_xyz
  'x, y, z'

loop_
  _atom_site_type_symbol
  _atom_site_label
  _atom_site_symmetry_multiplicity
  _atom_site_fract_x
  _atom_site_fract_y
  _atom_site_fract_z
  _atom_site_occupancy
  Cd  Cd1       1.0  0.22114999999999999  0.9524200000000002  0.029859999999999994  1.0000
  Cd  Cd2       1.0  0.7213  0.02976999999999999  0.95252  1.0000
  H   H1        1.0  0.09064999999999997  0.20078  0.06120999999999999  1.0000
  H   H2        1.0  0.11775000000000004  0.41884000000000005  0.9954499999999998  1.0000
  H   H3        1.0  0.3255299999999999  0.50829  0.9135999999999997  1.0000
  H   H4        1.0  0.46091999999999994  0.80658  0.01973  1.0000
  H   H5        1.0  0.56495  0.64384  0.12016  1.0000
  H   H6        1.0  0.27642  0.63068  0.35721  1.0000
  H   H7        1.0  0.18701999999999996  0.7940400000000001  0.25226999999999994  1.0000
  H   H8        1.0  0.41368999999999995  0.46702  0.3513699999999999  1.0000
  H   H9        1.0  0.5317500000000001  0.47189  0.25346  1.0000
  H   H10       1.0  0.7032799999999999  0.68122  0.41065999999999997  1.0000
  H   H11       1.0  0.58756  0.6812400000000002  0.50869  1.0000
  H   H12       1.0  0.7293599999999999  0.46514  0.45701  1.0000
  H   H13       1.0  0.61615  0.4650500000000001  0.55925  1.0000
  H   H14       1.0  0.94303  0.70893  0.5184  1.0000
  H   H15       1.0  0.13643999999999995  0.86317  0.7102199999999999  1.0000
  H   H16       1.0  0.94977  0.70091  0.9771099999999999  1.0000
  H   H17       1.0  0.74353  0.54314  0.7946899999999999  1.0000
  H   H18       1.0  0.59079  0.06131  0.20069  1.0000
  H   H19       1.0  0.6176800000000001  0.9956500000000001  0.41875  1.0000
  H   H20       1.0  0.8255199999999999  0.9138299999999999  0.50846  1.0000
  H   H21       1.0  0.9609699999999999  0.01968  0.80666  1.0000
  H   H22       1.0  0.06493999999999991  0.12004999999999993  0.6439699999999998  1.0000
  H   H23       1.0  0.77639  0.35717999999999994  0.6307399999999999  1.0000
  H   H24       1.0  0.68708  0.25231999999999993  0.7941199999999999  1.0000
  H   H25       1.0  0.91359  0.35126  0.4670699999999999  1.0000
  H   H26       1.0  0.031719999999999984  0.25339  0.47202  1.0000
  H   H27       1.0  0.20329000000000003  0.41070000000000007  0.68121  1.0000
  H   H28       1.0  0.08748999999999998  0.50872  0.68122  1.0000
  H   H29       1.0  0.22915999999999997  0.4570600000000001  0.46509999999999996  1.0000
  H   H30       1.0  0.11602000000000004  0.55939  0.46513  1.0000
  H   H31       1.0  0.4429399999999999  0.51831  0.7088799999999998  1.0000
  H   H32       1.0  0.63642  0.71008  0.8631199999999999  1.0000
  H   H33       1.0  0.4498599999999999  0.97718  0.70104  1.0000
  H   H34       1.0  0.24353999999999984  0.79482  0.5432299999999998  1.0000
  C   C1        1.0  0.17977  0.24514  0.02669  1.0000
  C   C2        1.0  0.19568999999999995  0.36599  0.9898899999999998  1.0000
  C   C3        1.0  0.31077999999999995  0.4150400000000001  0.9443  1.0000
  C   C4        1.0  0.41218999999999995  0.3469700000000001  0.9396  1.0000
  C   C5        1.0  0.5381900000000001  0.41261  0.89358  1.0000
  C   C6        1.0  0.3861999999999999  0.22465  0.9760399999999999  1.0000
  C   C7        1.0  0.48373999999999995  0.13980000000000004  0.9738499999999999  1.0000
  C   C8        1.0  0.42526  0.76633  0.09675999999999997  1.0000
  C   C9        1.0  0.48397  0.67737  0.15451  1.0000
  C   C10       1.0  0.43185  0.62593  0.2512  1.0000
  C   C11       1.0  0.32283999999999996  0.66846  0.28469999999999995  1.0000
  C   C12       1.0  0.27109  0.75995  0.22508999999999998  1.0000
  C   C13       1.0  0.49533  0.53375  0.321  1.0000
  C   C14       1.0  0.62333  0.61597  0.44381999999999994  1.0000
  C   C15       1.0  0.69413  0.52979  0.52345  1.0000
  C   C16       1.0  0.82198  0.61527  0.63929  1.0000
  C   C17       1.0  0.9375699999999999  0.70455  0.6180699999999999  1.0000
  C   C18       1.0  0.04893999999999998  0.7906  0.7261999999999997  1.0000
  C   C19       1.0  0.9444799999999998  0.70044  0.8741899999999998  1.0000
  C   C20       1.0  0.82858  0.61224  0.77104  1.0000
  C   C21       1.0  0.67991  0.02684999999999998  0.24516999999999994  1.0000
  C   C22       1.0  0.69566  0.99001  0.36597  1.0000
  C   C23       1.0  0.8107799999999998  0.9445000000000001  0.4152  1.0000
  C   C24       1.0  0.9123  0.93986  0.3472699999999999  1.0000
  C   C25       1.0  0.03828999999999996  0.89378  0.41313999999999995  1.0000
  C   C26       1.0  0.8863199999999999  0.97609  0.22483999999999996  1.0000
  C   C27       1.0  0.9837499999999999  0.97358  0.13992  1.0000
  C   C28       1.0  0.92531  0.09675000000000002  0.76646  1.0000
  C   C29       1.0  0.9840099999999999  0.15449999999999994  0.6775099999999998  1.0000
  C   C30       1.0  0.93188  0.25119  0.6260499999999999  1.0000
  C   C31       1.0  0.82286  0.28469  0.66856  1.0000
  C   C32       1.0  0.7711499999999999  0.22510999999999998  0.7600599999999998  1.0000
  C   C33       1.0  0.9953  0.32097  0.5338399999999999  1.0000
  C   C34       1.0  0.12327999999999997  0.4438500000000001  0.61597  1.0000
  C   C35       1.0  0.194  0.52351  0.5298  1.0000
  C   C36       1.0  0.3219199999999999  0.63932  0.6152799999999998  1.0000
  C   C37       1.0  0.4374999999999998  0.6180199999999999  0.7045299999999998  1.0000
  C   C38       1.0  0.5488999999999998  0.7261099999999999  0.7905999999999997  1.0000
  C   C39       1.0  0.4445200000000001  0.87423  0.70054  1.0000
  C   C40       1.0  0.32857999999999987  0.7711200000000001  0.6123  1.0000
  N   N1        1.0  0.27068  0.1748  0.016479999999999998  1.0000
  N   N2        1.0  0.32173  0.80891  0.13183999999999998  1.0000
  N   N3        1.0  0.05279000000000001  0.7902700000000001  0.8530899999999999  1.0000
  N   N4        1.0  0.7708  0.016540000000000003  0.17487  1.0000
  N   N5        1.0  0.8218200000000001  0.13185999999999995  0.80907  1.0000
  N   N6        1.0  0.55281  0.85307  0.79035  1.0000
  O   O1        1.0  0.4371  0.018229999999999996  0.9774099999999999  1.0000
  O   O2        1.0  0.6097699999999999  0.19371000000000002  0.9704399999999999  1.0000
  O   O3        1.0  0.62762  0.5163899999999999  0.9748899999999998  1.0000
  O   O4        1.0  0.5321899999999999  0.36384999999999995  0.7759799999999998  1.0000
  O   O5        1.0  0.93644  0.97597  0.01809  1.0000
  O   O6        1.0  0.11014000000000006  0.97102  0.19387999999999997  1.0000
  O   O7        1.0  0.12711999999999996  0.9746100000000001  0.5175499999999998  1.0000
  O   O8        1.0  0.03254000000000002  0.7763800000000001  0.36383  1.0000
