data_image0
_chemical_formula_structural       Al2H8C16O8F2
_chemical_formula_sum              "Al2 H8 C16 O8 F2"
_cell_length_a       6.53396
_cell_length_b       10.97615
_cell_length_c       10.9754
_cell_angle_alpha    74.35302
_cell_angle_beta     73.56806
_cell_angle_gamma    73.55849

_symmetry_space_group_name_H-M    'P 1'
_symmetry_Int_Tables_number       1

loop_
  _symmetry_equiv_pos_as_xyz
  'x,y,z'

loop_
  _atom_site_type_symbol
  _atom_site_label
  _atom_site_symmetry_multiplicity
  _atom_site_fract_x
  _atom_site_fract_y
  _atom_site_fract_z
  _atom_site_occupancy
  Al  Al1       1.0  0.0002599999999999331  0.9997800000000001  0.50007  1.0000
  Al  Al2       1.0  0.49975  0.99997  0.50022  1.0000
  H   H1        1.0  0.6811899999999997  0.90635  0.13248000000000001  1.0000
  H   H2        1.0  0.8144699999999999  0.9005  0.89521  1.0000
  H   H3        1.0  0.31576999999999994  0.09602999999999996  0.8674100000000001  1.0000
  H   H4        1.0  0.18245  0.10176  0.10469  1.0000
  H   H5        1.0  0.31712999999999975  0.39534  0.39872  1.0000
  H   H6        1.0  0.8185300000000001  0.3674  0.5941600000000001  1.0000
  H   H7        1.0  0.6854499999999999  0.60467  0.59992  1.0000
  H   H8        1.0  0.18397999999999998  0.63263  0.40442  1.0000
  C   C1        1.0  0.17791999999999988  0.05461999999999998  0.9264200000000001  1.0000
  C   C2        1.0  0.07349999999999997  0.9971800000000001  0.86839  1.0000
  C   C3        1.0  0.15325999999999992  0.99343  0.72799  1.0000
  C   C4        1.0  0.3961200000000001  0.4421600000000001  0.44227  1.0000
  C   C5        1.0  0.32182999999999995  0.57356  0.4458400000000001  1.0000
  C   C6        1.0  0.42638000000000004  0.6315799999999999  0.5032  1.0000
  C   C7        1.0  0.34677  0.77203  0.5067200000000001  1.0000
  C   C8        1.0  0.10351999999999993  0.058230000000000004  0.05781000000000001  1.0000
  C   C9        1.0  0.81905  0.9477400000000001  0.07342  1.0000
  C   C10       1.0  0.9239399999999998  0.004759999999999997  0.13155000000000003  1.0000
  C   C11       1.0  0.84583  0.007140000000000008  0.27229  1.0000
  C   C12       1.0  0.60638  0.55788  0.55635  1.0000
  C   C13       1.0  0.68066  0.42648  0.55277  1.0000
  C   C14       1.0  0.5757799999999998  0.36839  0.49570000000000003  1.0000
  C   C15       1.0  0.6540800000000001  0.2277  0.49307  1.0000
  C   C16       1.0  0.8934299999999998  0.9441  0.94204  1.0000
  O   O1        1.0  0.029849999999999873  0.96331  0.6741500000000001  1.0000
  O   O2        1.0  0.84063  0.17088  0.5195800000000002  1.0000
  O   O3        1.0  0.47023  0.82589  0.5367500000000001  1.0000
  O   O4        1.0  0.65939  0.9805200000000002  0.32911  1.0000
  O   O5        1.0  0.97025  0.03656  0.32598  1.0000
  O   O6        1.0  0.15987  0.8286000000000001  0.48054  1.0000
  O   O7        1.0  0.5298300000000001  0.17405  0.46347  1.0000
  O   O8        1.0  0.3402299999999999  0.019490000000000007  0.67143  1.0000
  F   F1        1.0  0.2500000000000001  0.061709999999999994  0.43829  1.0000
  F   F2        1.0  0.7500099999999998  0.9382600000000001  0.5617400000000001  1.0000
