data_image0
_chemical_formula_structural       Mg2H8C16O12
_chemical_formula_sum              "Mg2 H8 C16 O12"
_cell_length_a       6.79921
_cell_length_b       10.494119999999999
_cell_length_c       10.47358
_cell_angle_alpha    95.41248
_cell_angle_beta     106.82101
_cell_angle_gamma    107.18878999999998

_symmetry_space_group_name_H-M    'P 1'
_symmetry_Int_Tables_number       1

loop_
  _symmetry_equiv_pos_as_xyz
  'x,y,z'

loop_
  _atom_site_type_symbol
  _atom_site_label
  _atom_site_symmetry_multiplicity
  _atom_site_fract_x
  _atom_site_fract_y
  _atom_site_fract_z
  _atom_site_occupancy
  Mg  Mg1       1.0  0.7501  0.45204  0.54794  1.0000
  Mg  Mg2       1.0  0.25049999999999994  0.5480799999999999  0.45234  1.0000
  H   H1        1.0  0.2617300000000001  0.24807  0.39220000000000005  1.0000
  H   H2        1.0  0.73654  0.08236  0.57618  1.0000
  H   H3        1.0  0.22319000000000003  0.60551  0.75691  1.0000
  H   H4        1.0  0.7671000000000001  0.4355899999999999  0.9113800000000001  1.0000
  H   H5        1.0  0.7374700000000001  0.7514900000000001  0.60777  1.0000
  H   H6        1.0  0.26417  0.9175799999999998  0.42447  1.0000
  H   H7        1.0  0.7768400000000001  0.39459  0.24319000000000005  1.0000
  H   H8        1.0  0.23295000000000002  0.5644  0.08864  1.0000
  C   C1        1.0  0.005600000000000032  0.27451  0.4924900000000001  1.0000
  C   C2        1.0  0.0026100000000000446  0.13336  0.49466000000000004  1.0000
  C   C3        1.0  0.8495600000000001  0.04566999999999999  0.54128  1.0000
  C   C4        1.0  0.1555  0.08727  0.45283  1.0000
  C   C5        1.0  0.48829000000000006  0.5124  0.72468  1.0000
  C   C6        1.0  0.49389  0.50858  0.8662  1.0000
  C   C7        1.0  0.6499000000000001  0.46283  0.95028  1.0000
  C   C8        1.0  0.34156  0.54625  0.9164  1.0000
  C   C9        1.0  0.9949  0.7254399999999998  0.50788  1.0000
  C   C10       1.0  0.9974800000000001  0.86649  0.50543  1.0000
  C   C11       1.0  0.15062999999999996  0.9541899999999999  0.45881000000000005  1.0000
  C   C12       1.0  0.84488  0.9126699999999999  0.54756  1.0000
  C   C13       1.0  0.51175  0.48760999999999993  0.27536  1.0000
  C   C14       1.0  0.50621  0.49142  0.13385  1.0000
  C   C15       1.0  0.35021  0.5372199999999999  0.04979000000000001  1.0000
  C   C16       1.0  0.65859  0.4538  0.08367  1.0000
  O   O1        1.0  0.90687  0.32367  0.55972  1.0000
  O   O2        1.0  0.11269000000000004  0.34414  0.42328  1.0000
  O   O3        1.0  0.30837  0.16772  0.4077200000000001  1.0000
  O   O4        1.0  0.59019  0.44887999999999995  0.67417  1.0000
  O   O5        1.0  0.37679999999999997  0.5792199999999998  0.65602  1.0000
  O   O6        1.0  0.18263  0.58816  0.83889  1.0000
  O   O7        1.0  0.09323999999999993  0.6761099999999998  0.44044  1.0000
  O   O8        1.0  0.88867  0.6559299999999999  0.5774800000000001  1.0000
  O   O9        1.0  0.6927200000000001  0.8326699999999999  0.59351  1.0000
  O   O10       1.0  0.40973  0.55106  0.32577  1.0000
  O   O11       1.0  0.62358  0.42101999999999995  0.34416  1.0000
  O   O12       1.0  0.8175199999999999  0.41192999999999996  0.16124  1.0000
