data_image0
_chemical_formula_structural       Cd4H16C32O16
_chemical_formula_sum              "Cd4 H16 C32 O16"
_cell_length_a       7.70347
_cell_length_b       11.57546
_cell_length_c       15.626579999999999
_cell_angle_alpha    85.66293
_cell_angle_beta     75.95988
_cell_angle_gamma    70.43522

_space_group_name_H-M_alt    "P 1"
_space_group_IT_number       1

loop_
  _space_group_symop_operation_xyz
  'x, y, z'

loop_
  _atom_site_type_symbol
  _atom_site_label
  _atom_site_symmetry_multiplicity
  _atom_site_fract_x
  _atom_site_fract_y
  _atom_site_fract_z
  _atom_site_occupancy
  Cd  Cd1       1.0  0.2767500000000001  0.74877  0.77415  1.0000
  Cd  Cd2       1.0  0.7990500000000003  0.75596  0.7227  1.0000
  Cd  Cd3       1.0  0.20094999999999996  0.24404  0.2773  1.0000
  Cd  Cd4       1.0  0.72325  0.25124  0.22585  1.0000
  H   H1        1.0  0.54799  0.6335  0.23437  1.0000
  H   H2        1.0  0.452  0.3665  0.76563  1.0000
  H   H3        1.0  0.010730000000000012  0.36606  0.76086  1.0000
  H   H4        1.0  0.86423  0.86296  0.26107  1.0000
  H   H5        1.0  0.4972299999999999  0.56367  0.64806  1.0000
  H   H6        1.0  0.5027700000000002  0.43632999999999994  0.35195  1.0000
  H   H7        1.0  0.42069999999999996  0.86078  0.26331  1.0000
  H   H8        1.0  0.9892600000000001  0.63394  0.23914000000000005  1.0000
  H   H9        1.0  0.19651999999999997  0.55075  0.4525400000000001  1.0000
  H   H10       1.0  0.5793  0.13921999999999998  0.7367  1.0000
  H   H11       1.0  0.2917199999999999  0.0607  0.14824000000000007  1.0000
  H   H12       1.0  0.7976399999999998  0.05220999999999999  0.9540600000000002  1.0000
  H   H13       1.0  0.20236  0.94779  0.04594  1.0000
  H   H14       1.0  0.13576999999999995  0.13704  0.7389400000000003  1.0000
  H   H15       1.0  0.7082799999999996  0.9393  0.8517600000000002  1.0000
  H   H16       1.0  0.80348  0.44925999999999994  0.54747  1.0000
  C   C1        1.0  0.4996899999999999  0.53699  0.58264  1.0000
  C   C2        1.0  0.61852  0.96487  0.9171200000000003  1.0000
  C   C3        1.0  0.6706800000000002  0.4714  0.52711  1.0000
  C   C4        1.0  0.67198  0.43371  0.44352  1.0000
  C   C5        1.0  0.60458  0.13247  0.11840000000000003  1.0000
  C   C6        1.0  0.08224000000000002  0.68505  0.24321  1.0000
  C   C7        1.0  0.3282  0.8103699999999999  0.25713000000000014  1.0000
  C   C8        1.0  0.60124  0.31541  0.7590000000000002  1.0000
  C   C9        1.0  0.06342999999999994  0.011109999999999998  0.2761500000000001  1.0000
  C   C10       1.0  0.33206  0.97087  0.026140000000000007  1.0000
  C   C11       1.0  0.13512999999999983  0.87442  0.2645200000000001  1.0000
  C   C12       1.0  0.012759999999999973  0.81149  0.25637  1.0000
  C   C13       1.0  0.8556500000000004  0.36513  0.38355  1.0000
  C   C14       1.0  0.9365700000000001  0.9889  0.72385  1.0000
  C   C15       1.0  0.7243200000000002  0.37883  0.7650000000000002  1.0000
  C   C16       1.0  0.4510199999999997  0.9350300000000001  0.9422900000000002  1.0000
  C   C17       1.0  0.3499399999999999  0.48402  0.22624  1.0000
  C   C18       1.0  0.86487  0.12558  0.73548  1.0000
  C   C19       1.0  0.6718  0.18964000000000003  0.7428700000000003  1.0000
  C   C20       1.0  0.39542  0.86753  0.88161  1.0000
  C   C21       1.0  0.54898  0.06498  0.057720000000000014  1.0000
  C   C22       1.0  0.38148  0.03514  0.08288  1.0000
  C   C23       1.0  0.5003099999999999  0.46302  0.4173600000000001  1.0000
  C   C24       1.0  0.6679400000000003  0.02914  0.9738700000000002  1.0000
  C   C25       1.0  0.98724  0.18850999999999998  0.7436300000000002  1.0000
  C   C26       1.0  0.39876000000000006  0.6845999999999999  0.241  1.0000
  C   C27       1.0  0.32932000000000006  0.5286  0.4728900000000001  1.0000
  C   C28       1.0  0.27568000000000004  0.62118  0.23501  1.0000
  C   C29       1.0  0.1443500000000001  0.63487  0.6164500000000003  1.0000
  C   C30       1.0  0.32802000000000003  0.56629  0.55648  1.0000
  C   C31       1.0  0.9177600000000005  0.31495  0.75679  1.0000
  C   C32       1.0  0.65005  0.51599  0.77376  1.0000
  O   O1        1.0  0.7497500000000002  0.16503  0.09095000000000003  1.0000
  O   O2        1.0  0.13850000000000007  0.6575899999999999  0.69793  1.0000
  O   O3        1.0  0.77303  0.57076  0.7537100000000001  1.0000
  O   O4        1.0  0.006289999999999997  0.33207  0.41123  1.0000
  O   O5        1.0  0.9018400000000003  0.06753  0.25995  1.0000
  O   O6        1.0  0.17480000000000004  0.05813  0.2982300000000001  1.0000
  O   O7        1.0  0.47012  0.56491  0.7966  1.0000
  O   O8        1.0  0.5074400000000002  0.15479  0.19985  1.0000
  O   O9        1.0  0.8251999999999998  0.9418799999999999  0.70177  1.0000
  O   O10       1.0  0.2502499999999999  0.8349799999999999  0.9090500000000002  1.0000
  O   O11       1.0  0.49256000000000016  0.84522  0.80015  1.0000
  O   O12       1.0  0.52988  0.4351  0.20340000000000005  1.0000
  O   O13       1.0  0.9937100000000001  0.6679299999999999  0.58877  1.0000
  O   O14       1.0  0.09816000000000001  0.9324699999999999  0.74005  1.0000
  O   O15       1.0  0.22697  0.42924  0.24629000000000006  1.0000
  O   O16       1.0  0.8614999999999999  0.34242  0.30207  1.0000
