data_image0
_chemical_formula_structural       Cd4H6C18N8O10
_chemical_formula_sum              "Cd4 H6 C18 N8 O10"
_cell_length_a       7.23636
_cell_length_b       10.42936
_cell_length_c       13.605220000000001
_cell_angle_alpha    112.63908
_cell_angle_beta     90.0
_cell_angle_gamma    90.0

_symmetry_space_group_name_H-M    'P 1'
_symmetry_Int_Tables_number       1

loop_
  _symmetry_equiv_pos_as_xyz
  'x,y,z'

loop_
  _atom_site_type_symbol
  _atom_site_label
  _atom_site_symmetry_multiplicity
  _atom_site_fract_x
  _atom_site_fract_y
  _atom_site_fract_z
  _atom_site_occupancy
  Cd  Cd1       1.0  0.7499999999999998  0.13501  0.2593  1.0000
  Cd  Cd2       1.0  0.25  0.865  0.7407  1.0000
  Cd  Cd3       1.0  0.0  0.0  0.0  1.0000
  Cd  Cd4       1.0  0.5  0.0  0.0  1.0000
  H   H1        1.0  0.7499999999999998  0.56472  0.53281  1.0000
  H   H2        1.0  0.7499999999999998  0.9878999999999999  0.5509  1.0000
  H   H3        1.0  0.7499999999999998  0.64672  0.24611  1.0000
  H   H4        1.0  0.25  0.43528000000000006  0.46719  1.0000
  H   H5        1.0  0.25  0.012109999999999968  0.44911  1.0000
  H   H6        1.0  0.25  0.3532799999999999  0.7538999999999999  1.0000
  C   C1        1.0  0.7499999999999998  0.43685  0.31919  1.0000
  C   C2        1.0  0.7499999999999998  0.59026  0.38322  1.0000
  C   C3        1.0  0.7499999999999998  0.6392299999999999  0.49470999999999987  1.0000
  C   C4        1.0  0.7499999999999998  0.7822900000000002  0.5556  1.0000
  C   C5        1.0  0.7499999999999998  0.87641  0.50495  1.0000
  C   C6        1.0  0.7499999999999998  0.82742  0.3935699999999999  1.0000
  C   C7        1.0  0.7499999999999998  0.68437  0.33252  1.0000
  C   C8        1.0  0.7499999999999998  0.92888  0.34115  1.0000
  C   C9        1.0  0.7499999999999998  0.83407  0.67286  1.0000
  C   C10       1.0  0.25  0.56316  0.68081  1.0000
  C   C11       1.0  0.25  0.40973999999999994  0.6167799999999999  1.0000
  C   C12       1.0  0.25  0.36078000000000005  0.50529  1.0000
  C   C13       1.0  0.25  0.21771  0.4444  1.0000
  C   C14       1.0  0.25  0.12359999999999993  0.49504999999999993  1.0000
  C   C15       1.0  0.25  0.17258999999999997  0.60643  1.0000
  C   C16       1.0  0.25  0.31564  0.66748  1.0000
  C   C17       1.0  0.25  0.07111999999999988  0.6588599999999999  1.0000
  C   C18       1.0  0.25  0.16593  0.32714  1.0000
  N   N1        1.0  0.90346  0.86177  0.73433  1.0000
  N   N2        1.0  0.84172  0.90683  0.83447  1.0000
  N   N3        1.0  0.40346  0.13824  0.26567  1.0000
  N   N4        1.0  0.3417199999999999  0.09318  0.16553  1.0000
  N   N5        1.0  0.09654  0.13824  0.26567  1.0000
  N   N6        1.0  0.15828  0.09318  0.16553  1.0000
  N   N7        1.0  0.59654  0.86177  0.73433  1.0000
  N   N8        1.0  0.65828  0.90683  0.83447  1.0000
  O   O1        1.0  0.7499999999999998  0.35721  0.37205  1.0000
  O   O2        1.0  0.7499999999999998  0.38927000000000006  0.21889  1.0000
  O   O3        1.0  0.7499999999999998  0.8883599999999999  0.24002999999999994  1.0000
  O   O4        1.0  0.7499999999999998  0.05922000000000003  0.39947  1.0000
  O   O5        1.0  0.7499999999999998  0.05597  0.08412  1.0000
  O   O6        1.0  0.25  0.6428  0.62795  1.0000
  O   O7        1.0  0.25  0.61074  0.78111  1.0000
  O   O8        1.0  0.25  0.11165000000000001  0.75998  1.0000
  O   O9        1.0  0.25  0.9407900000000001  0.60053  1.0000
  O   O10       1.0  0.25  0.94404  0.91588  1.0000
