data_image0
_chemical_formula_structural       Cu4H12C28N4O16
_chemical_formula_sum              "Cu4 H12 C28 N4 O16"
_cell_length_a       7.25871
_cell_length_b       12.449559999999998
_cell_length_c       10.74496
_cell_angle_alpha    89.7294
_cell_angle_beta     70.50873999999999
_cell_angle_gamma    90.28906

_symmetry_space_group_name_H-M    'P 1'
_symmetry_Int_Tables_number       1

loop_
  _symmetry_equiv_pos_as_xyz
  'x,y,z'

loop_
  _atom_site_type_symbol
  _atom_site_label
  _atom_site_symmetry_multiplicity
  _atom_site_fract_x
  _atom_site_fract_y
  _atom_site_fract_z
  _atom_site_occupancy
  Cu  Cu1       1.0  0.82689  0.94417  0.8708800000000002  1.0000
  Cu  Cu2       1.0  0.16960999999999998  0.44277  0.62749  1.0000
  Cu  Cu3       1.0  0.17309  0.05583  0.12912  1.0000
  Cu  Cu4       1.0  0.8303199999999998  0.55725  0.37256000000000006  1.0000
  H   H1        1.0  0.2879999999999999  0.7629999999999999  0.89335  1.0000
  H   H2        1.0  0.5746100000000001  0.46205  0.60194  1.0000
  H   H3        1.0  0.08530999999999993  0.63455  0.8148100000000003  1.0000
  H   H4        1.0  0.7098900000000001  0.26505  0.6049  1.0000
  H   H5        1.0  0.41747999999999996  0.9643799999999998  0.90273  1.0000
  H   H6        1.0  0.9104099999999998  0.13428  0.68141  1.0000
  H   H7        1.0  0.7119799999999997  0.23702  0.10665000000000001  1.0000
  H   H8        1.0  0.42535000000000006  0.5379399999999999  0.39809  1.0000
  H   H9        1.0  0.91467  0.36546  0.18520000000000006  1.0000
  H   H10       1.0  0.2900299999999999  0.73494  0.39510000000000006  1.0000
  H   H11       1.0  0.5824599999999998  0.03562  0.09729000000000003  1.0000
  H   H12       1.0  0.08954  0.8657199999999999  0.31859  1.0000
  C   C1        1.0  0.6924799999999999  0.7679699999999998  0.8156400000000003  1.0000
  C   C2        1.0  0.5613599999999997  0.6863999999999999  0.78377  1.0000
  C   C3        1.0  0.6430099999999997  0.6022199999999999  0.6971900000000001  1.0000
  C   C4        1.0  0.35756  0.69773  0.82786  1.0000
  C   C5        1.0  0.51807  0.53086  0.66452  1.0000
  C   C6        1.0  0.8569599999999999  0.58171  0.63259  1.0000
  C   C7        1.0  0.2426899999999999  0.62591  0.7860400000000001  1.0000
  C   C8        1.0  0.30580999999999997  0.27176  0.68636  1.0000
  C   C9        1.0  0.4345699999999998  0.19075999999999996  0.72008  1.0000
  C   C10       1.0  0.35154  0.10683999999999999  0.80879  1.0000
  C   C11       1.0  0.63873  0.20037  0.67243  1.0000
  C   C12       1.0  0.47511999999999976  0.03391  0.8397800000000001  1.0000
  C   C13       1.0  0.13675  0.08613  0.87203  1.0000
  C   C14       1.0  0.7526499999999999  0.12716999999999998  0.7126  1.0000
  C   C15       1.0  0.30749  0.23202999999999993  0.18437  1.0000
  C   C16       1.0  0.43861  0.3136  0.21625000000000003  1.0000
  C   C17       1.0  0.35696  0.39779  0.30283  1.0000
  C   C18       1.0  0.6424099999999998  0.30228  0.17215000000000005  1.0000
  C   C19       1.0  0.48189  0.4691299999999999  0.3355000000000001  1.0000
  C   C20       1.0  0.1430099999999999  0.41837  0.36736  1.0000
  C   C21       1.0  0.75728  0.37409999999999993  0.21399000000000004  1.0000
  C   C22       1.0  0.69416  0.72824  0.31364  1.0000
  C   C23       1.0  0.56538  0.8092499999999998  0.27991  1.0000
  C   C24       1.0  0.64842  0.8931599999999997  0.19121000000000002  1.0000
  C   C25       1.0  0.36121999999999993  0.7996199999999998  0.3275800000000001  1.0000
  C   C26       1.0  0.52483  0.96609  0.16023  1.0000
  C   C27       1.0  0.8632099999999999  0.9138799999999998  0.12798  1.0000
  C   C28       1.0  0.24729999999999985  0.8728299999999998  0.2874  1.0000
  N   N1        1.0  0.3229799999999999  0.54259  0.70642  1.0000
  N   N2        1.0  0.67079  0.04397999999999999  0.79405  1.0000
  N   N3        1.0  0.6769700000000001  0.45740999999999987  0.29362  1.0000
  N   N4        1.0  0.32916999999999996  0.9560199999999998  0.20595  1.0000
  O   O1        1.0  0.6104799999999999  0.83598  0.9091200000000003  1.0000
  O   O2        1.0  0.9408300000000002  0.60783  0.51294  1.0000
  O   O3        1.0  0.9345099999999998  0.52738  0.70324  1.0000
  O   O4        1.0  0.8694999999999999  0.77281  0.74833  1.0000
  O   O5        1.0  0.38704  0.3344999999999999  0.58662  1.0000
  O   O6        1.0  0.0534799999999999  0.10781  0.99282  1.0000
  O   O7        1.0  0.05822999999999996  0.03649  0.7985100000000002  1.0000
  O   O8        1.0  0.13045  0.28015999999999996  0.75767  1.0000
  O   O9        1.0  0.3895  0.16402  0.09089000000000001  1.0000
  O   O10       1.0  0.05909999999999993  0.39215  0.48717000000000005  1.0000
  O   O11       1.0  0.06553999999999999  0.4726999999999999  0.29687  1.0000
  O   O12       1.0  0.13047  0.22719999999999996  0.25168  1.0000
  O   O13       1.0  0.6129399999999998  0.6655099999999999  0.41339  1.0000
  O   O14       1.0  0.9464999999999998  0.89217  0.0071600000000000006  1.0000
  O   O15       1.0  0.94174  0.9635099999999999  0.20149  1.0000
  O   O16       1.0  0.8695299999999998  0.71986  0.24231  1.0000
