data_image0
_chemical_formula_structural       Cd6H16C24O28
_chemical_formula_sum              "Cd6 H16 C24 O28"
_cell_length_a       11.23525
_cell_length_b       11.80545
_cell_length_c       13.052439999999999
_cell_angle_alpha    85.27824
_cell_angle_beta     68.24929999999999
_cell_angle_gamma    67.35185

_symmetry_space_group_name_H-M    'P 1'
_symmetry_Int_Tables_number       1

loop_
  _symmetry_equiv_pos_as_xyz
  'x,y,z'

loop_
  _atom_site_type_symbol
  _atom_site_label
  _atom_site_symmetry_multiplicity
  _atom_site_fract_x
  _atom_site_fract_y
  _atom_site_fract_z
  _atom_site_occupancy
  Cd  Cd1       1.0  0.8758200000000002  0.05294  0.16278  1.0000
  Cd  Cd2       1.0  0.24417000000000005  0.9468399999999999  0.11512  1.0000
  Cd  Cd3       1.0  0.6035300000000001  0.8511099999999999  0.02528  1.0000
  Cd  Cd4       1.0  0.12417000000000004  0.9470399999999999  0.8372199999999999  1.0000
  Cd  Cd5       1.0  0.75582  0.05317  0.88487  1.0000
  Cd  Cd6       1.0  0.39647000000000004  0.1489  0.9747  1.0000
  H   H1        1.0  0.8416000000000001  0.04329999999999998  0.5280499999999999  1.0000
  H   H2        1.0  0.84538  0.3082  0.90397  1.0000
  H   H3        1.0  0.3856800000000001  0.51452  0.11519999999999997  1.0000
  H   H4        1.0  0.8334400000000001  0.32936  0.1156  1.0000
  H   H5        1.0  0.93169  0.39536  0.007749999999999998  1.0000
  H   H6        1.0  0.28968000000000005  0.07529  0.28339  1.0000
  H   H7        1.0  0.43054  0.16716999999999999  0.31103  1.0000
  H   H8        1.0  0.39465000000000006  0.22892  0.19277  1.0000
  H   H9        1.0  0.1584  0.9566999999999999  0.47195  1.0000
  H   H10       1.0  0.15460000000000002  0.6917999999999999  0.09603  1.0000
  H   H11       1.0  0.61433  0.48547999999999997  0.88479  1.0000
  H   H12       1.0  0.16656000000000007  0.67062  0.8843999999999997  1.0000
  H   H13       1.0  0.06830000000000001  0.6046299999999999  0.99226  1.0000
  H   H14       1.0  0.7103200000000003  0.9246999999999997  0.7166099999999999  1.0000
  H   H15       1.0  0.5694400000000002  0.8328499999999999  0.6889799999999999  1.0000
  H   H16       1.0  0.6053100000000001  0.7711099999999999  0.80725  1.0000
  C   C1        1.0  0.9517200000000001  0.01259  0.4775  1.0000
  C   C2        1.0  0.05510000000000001  0.22427  0.06008  1.0000
  C   C3        1.0  0.89602  0.24788  0.95728  1.0000
  C   C4        1.0  0.4779999999999999  0.92544  0.26838  1.0000
  C   C5        1.0  0.44741  0.66917  0.04710999999999999  1.0000
  C   C6        1.0  0.45729000000000003  0.54002  0.04402  1.0000
  C   C7        1.0  0.9895400000000001  0.0008599999999999955  0.35581999999999997  1.0000
  C   C8        1.0  0.60519  0.11254  0.16146999999999997  1.0000
  C   C9        1.0  0.9251900000000001  0.30736  0.03742999999999999  1.0000
  C   C10       1.0  0.3967  0.04384999999999999  0.22268  1.0000
  C   C11       1.0  0.45125  0.14433  0.22459  1.0000
  C   C12       1.0  0.20927000000000004  0.24422  0.75005  1.0000
  C   C13       1.0  0.048280000000000045  0.98741  0.5225  1.0000
  C   C14       1.0  0.94489  0.77571  0.9399299999999999  1.0000
  C   C15       1.0  0.10398  0.75212  0.04270999999999999  1.0000
  C   C16       1.0  0.5220500000000003  0.07457999999999997  0.7315899999999997  1.0000
  C   C17       1.0  0.5526000000000001  0.33083  0.9528799999999998  1.0000
  C   C18       1.0  0.5427100000000001  0.4599899999999999  0.9559699999999999  1.0000
  C   C19       1.0  0.010460000000000034  0.9991499999999999  0.64418  1.0000
  C   C20       1.0  0.3947800000000001  0.8874899999999998  0.83852  1.0000
  C   C21       1.0  0.07481000000000006  0.69263  0.9625699999999999  1.0000
  C   C22       1.0  0.6032900000000002  0.9561699999999997  0.7773099999999997  1.0000
  C   C23       1.0  0.54872  0.8557  0.7754199999999999  1.0000
  C   C24       1.0  0.7907  0.75561  0.24998999999999993  1.0000
  O   O1        1.0  0.0544  0.12109999999999994  0.10173  1.0000
  O   O2        1.0  0.6778  0.029719999999999993  0.08129999999999998  1.0000
  O   O3        1.0  0.5622299999999999  0.82806  0.20078  1.0000
  O   O4        1.0  0.3285  0.7434  0.11136999999999997  1.0000
  O   O5        1.0  0.4591200000000001  0.9324699999999999  0.36753  1.0000
  O   O6        1.0  0.11664000000000008  0.9661499999999997  0.29391999999999996  1.0000
  O   O7        1.0  0.8857300000000001  0.027899999999999998  0.32566  1.0000
  O   O8        1.0  0.15283  0.25997  0.03433  1.0000
  O   O9        1.0  0.19474000000000005  0.34819999999999995  0.74699  1.0000
  O   O10       1.0  0.92224  0.13593  0.94969  1.0000
  O   O11       1.0  0.39596  0.023339999999999996  0.11535  1.0000
  O   O12       1.0  0.21149000000000015  0.14324  0.7542899999999998  1.0000
  O   O13       1.0  0.5498399999999999  0.69572  0.98631  1.0000
  O   O14       1.0  0.65988  0.17107999999999998  0.19668  1.0000
  O   O15       1.0  0.9455800000000004  0.8788899999999997  0.89828  1.0000
  O   O16       1.0  0.3221500000000002  0.9703299999999998  0.9186899999999999  1.0000
  O   O17       1.0  0.4378  0.17197  0.79918  1.0000
  O   O18       1.0  0.6715  0.25660999999999995  0.88862  1.0000
  O   O19       1.0  0.541  0.06755999999999998  0.63243  1.0000
  O   O20       1.0  0.8833600000000001  0.03384999999999998  0.7060799999999999  1.0000
  O   O21       1.0  0.11427000000000016  0.9721199999999999  0.6743399999999998  1.0000
  O   O22       1.0  0.8471700000000003  0.7399999999999998  0.96567  1.0000
  O   O23       1.0  0.80485  0.65172  0.25291  1.0000
  O   O24       1.0  0.07779000000000008  0.8640699999999998  0.050279999999999984  1.0000
  O   O25       1.0  0.6040100000000003  0.9766799999999999  0.8846499999999999  1.0000
  O   O26       1.0  0.7890600000000001  0.85639  0.24583  1.0000
  O   O27       1.0  0.45016999999999996  0.30428  0.013679999999999998  1.0000
  O   O28       1.0  0.34011000000000036  0.8289199999999994  0.80333  1.0000
