data_image0
_chemical_formula_structural       La2H6C14N20O4
_chemical_formula_sum              "La2 H6 C14 N20 O4"
_cell_length_a       7.29329
_cell_length_b       12.205480000000001
_cell_length_c       12.26088
_cell_angle_alpha    93.66999
_cell_angle_beta     57.80962999999999
_cell_angle_gamma    57.802229999999994

_space_group_name_H-M_alt    "P 1"
_space_group_IT_number       1

loop_
  _space_group_symop_operation_xyz
  'x, y, z'

loop_
  _atom_site_type_symbol
  _atom_site_label
  _atom_site_symmetry_multiplicity
  _atom_site_fract_x
  _atom_site_fract_y
  _atom_site_fract_z
  _atom_site_occupancy
  La  La1       1.0  0.75481  0.40451999999999994  0.09584  1.0000
  La  La2       1.0  0.25744  0.07022000000000002  0.42572  1.0000
  H   H1        1.0  0.5866599999999998  0.67183  0.38306999999999997  1.0000
  H   H2        1.0  0.8961400000000003  0.12605999999999995  0.8324199999999998  1.0000
  H   H3        1.0  0.7043400000000001  0.48187  0.65074  1.0000
  H   H4        1.0  0.8026800000000003  0.84862  0.01459  1.0000
  H   H5        1.0  0.5111300000000002  0.7061799999999999  0.61418  1.0000
  H   H6        1.0  0.9808299999999998  0.89135  0.79466  1.0000
  C   C1        1.0  0.65946  0.58186  0.4082299999999999  1.0000
  C   C2        1.0  0.8341000000000002  0.09709999999999998  0.9198599999999999  1.0000
  C   C3        1.0  0.7256300000000001  0.47676  0.55514  1.0000
  C   C4        1.0  0.7797000000000002  0.9451599999999998  0.02087  1.0000
  C   C5        1.0  0.04494  0.19434  0.22952  1.0000
  C   C6        1.0  0.8949700000000002  0.33691  0.33666  1.0000
  C   C7        1.0  0.6184200000000001  0.59998  0.53515  1.0000
  C   C8        1.0  0.46442000000000017  0.26962  0.30352  1.0000
  C   C9        1.0  0.6126099999999999  0.1632  0.16153  1.0000
  C   C10       1.0  0.8782500000000002  0.9687099999999998  0.90002  1.0000
  C   C11       1.0  0.14085999999999999  0.77242  0.27677  1.0000
  C   C12       1.0  0.35031  0.7660399999999999  0.27466  1.0000
  C   C13       1.0  0.3494300000000004  0.22562  0.72662  1.0000
  C   C14       1.0  0.12771  0.23586  0.73964  1.0000
  N   N1        1.0  0.08026  0.16864  0.10878  1.0000
  N   N2        1.0  0.22328000000000003  0.022999999999999996  0.043359999999999996  1.0000
  N   N3        1.0  0.7943  0.45065999999999995  0.30923  1.0000
  N   N4        1.0  0.22009000000000004  0.64295  0.20966  1.0000
  N   N5        1.0  0.99218  0.67966  0.22983999999999996  1.0000
  N   N6        1.0  0.4256499999999999  0.39193  0.33027  1.0000
  N   N7        1.0  0.28104999999999997  0.4574  0.47556  1.0000
  N   N8        1.0  0.7063999999999999  0.19367  0.04983  1.0000
  N   N9        1.0  0.28996999999999995  0.28411  0.85145  1.0000
  N   N10       1.0  0.52903  0.25621  0.80666  1.0000
  N   N11       1.0  0.16140000000000015  0.07093999999999998  0.24071999999999996  1.0000
  N   N12       1.0  0.27326000000000006  0.9647299999999999  0.12246999999999998  1.0000
  N   N13       1.0  0.8714500000000004  0.34308  0.45405  1.0000
  N   N14       1.0  0.6180500000000003  0.16275999999999993  0.60568  1.0000
  N   N15       1.0  0.7245100000000001  0.18373999999999996  0.6580499999999999  1.0000
  N   N16       1.0  0.34905000000000014  0.25742  0.42579  1.0000
  N   N17       1.0  0.23343999999999998  0.3769  0.53252  1.0000
  N   N18       1.0  0.63857  0.044499999999999984  0.15386  1.0000
  N   N19       1.0  0.8695700000000001  0.88887  0.33779  1.0000
  N   N20       1.0  0.7829800000000002  0.8284599999999999  0.30649999999999994  1.0000
  O   O1        1.0  0.6149900000000004  0.64077  0.18151  1.0000
  O   O2        1.0  0.8678200000000004  0.32915  0.8666699999999999  1.0000
  O   O3        1.0  0.2003100000000002  0.14929999999999993  0.63215  1.0000
  O   O4        1.0  0.2649400000000001  0.87556  0.36605  1.0000
