data_image0
_chemical_formula_structural       Ni3H6C18O13
_chemical_formula_sum              "Ni3 H6 C18 O13"
_cell_length_a       9.80579
_cell_length_b       10.93062
_cell_length_c       10.93349
_cell_angle_alpha    67.03175
_cell_angle_beta     61.95822
_cell_angle_gamma    62.05502

_symmetry_space_group_name_H-M    'P 1'
_symmetry_Int_Tables_number       1

loop_
  _symmetry_equiv_pos_as_xyz
  'x,y,z'

loop_
  _atom_site_type_symbol
  _atom_site_label
  _atom_site_symmetry_multiplicity
  _atom_site_fract_x
  _atom_site_fract_y
  _atom_site_fract_z
  _atom_site_occupancy
  Ni  Ni1       1.0  0.1261000000000001  0.8716899999999999  0.87182  1.0000
  Ni  Ni2       1.0  0.78431  0.05366  0.05383  1.0000
  Ni  Ni3       1.0  0.10298  0.05616  0.05525999999999999  1.0000
  H   H1        1.0  0.52405  0.49055  0.0252  1.0000
  H   H2        1.0  0.96938  0.02233999999999998  0.48396  1.0000
  H   H3        1.0  0.5243100000000004  0.025529999999999962  0.4905  1.0000
  H   H4        1.0  0.9688300000000001  0.48400999999999994  0.022539999999999998  1.0000
  H   H5        1.0  0.5357700000000003  0.8608399999999998  0.06679  1.0000
  H   H6        1.0  0.53525  0.06729000000000002  0.8609199999999999  1.0000
  C   C1        1.0  0.5114000000000002  0.68552  0.04412  1.0000
  C   C2        1.0  0.5888900000000002  0.5437099999999999  0.032749999999999994  1.0000
  C   C3        1.0  0.3437500000000001  0.77323  0.03475  1.0000
  C   C4        1.0  0.7622600000000002  0.043250000000000004  0.68151  1.0000
  C   C5        1.0  0.8405900000000002  0.03141000000000001  0.53964  1.0000
  C   C6        1.0  0.8488400000000001  0.035870000000000006  0.76812  1.0000
  C   C7        1.0  0.51152  0.04457999999999996  0.68528  1.0000
  C   C8        1.0  0.5892799999999999  0.03309000000000001  0.54348  1.0000
  C   C9        1.0  0.3438  0.03504999999999999  0.77262  1.0000
  C   C10       1.0  0.7621800000000002  0.6814099999999998  0.04312  1.0000
  C   C11       1.0  0.84018  0.5396  0.03146999999999999  1.0000
  C   C12       1.0  0.84889  0.76787  0.03586  1.0000
  C   C13       1.0  0.59655  0.75192  0.054389999999999994  1.0000
  C   C14       1.0  0.7509600000000002  0.46941999999999995  0.03187  1.0000
  C   C15       1.0  0.8260000000000001  0.31482  0.03089  1.0000
  C   C16       1.0  0.5963600000000001  0.05485  0.75193  1.0000
  C   C17       1.0  0.7515300000000001  0.03196  0.46928999999999993  1.0000
  C   C18       1.0  0.8267100000000001  0.030809999999999997  0.31464  1.0000
  O   O1        1.0  0.2968000000000003  0.7404499999999999  0.9659199999999999  1.0000
  O   O2        1.0  0.26672999999999997  0.87939  0.09642999999999999  1.0000
  O   O3        1.0  0.7378  0.25934  0.0313  1.0000
  O   O4        1.0  0.0030600000000000813  0.96391  0.7356  1.0000
  O   O5        1.0  0.7548500000000001  0.09843000000000002  0.8718399999999998  1.0000
  O   O6        1.0  0.9765700000000003  0.03028  0.25268  1.0000
  O   O7        1.0  0.2979900000000001  0.9646899999999998  0.74061  1.0000
  O   O8        1.0  0.26561000000000007  0.09818000000000006  0.8778399999999998  1.0000
  O   O9        1.0  0.7384399999999999  0.0313  0.25932  1.0000
  O   O10       1.0  0.0032000000000001663  0.7354999999999998  0.9639099999999999  1.0000
  O   O11       1.0  0.7549200000000005  0.8715099999999999  0.09858  1.0000
  O   O12       1.0  0.9756199999999999  0.25306  0.030509999999999995  1.0000
  O   O13       1.0  0.006060000000000172  0.9919799999999998  0.99188  1.0000
