data_image0
_chemical_formula_structural       Sr4H24C48O16
_chemical_formula_sum              "Sr4 H24 C48 O16"
_cell_length_a       6.6326
_cell_length_b       14.74121
_cell_length_c       15.151029999999999
_cell_angle_alpha    90.01004
_cell_angle_beta     89.7427
_cell_angle_gamma    90.03937

_space_group_name_H-M_alt    "P 1"
_space_group_IT_number       1

loop_
  _space_group_symop_operation_xyz
  'x, y, z'

loop_
  _atom_site_type_symbol
  _atom_site_label
  _atom_site_symmetry_multiplicity
  _atom_site_fract_x
  _atom_site_fract_y
  _atom_site_fract_z
  _atom_site_occupancy
  Sr  Sr1       1.0  0.8517400000000002  0.19349000000000005  0.54257  1.0000
  Sr  Sr2       1.0  0.64514  0.80633  0.04182  1.0000
  Sr  Sr3       1.0  0.14647  0.6939900000000002  0.9567799999999997  1.0000
  Sr  Sr4       1.0  0.35331999999999997  0.30669  0.45727  1.0000
  H   H1        1.0  0.8414500000000001  0.33556  0.24653999999999995  1.0000
  H   H2        1.0  0.88773  0.45379000000000014  0.1294  1.0000
  H   H3        1.0  0.8800600000000001  0.49888  0.51969  1.0000
  H   H4        1.0  0.89102  0.66101  0.56096  1.0000
  H   H5        1.0  0.8946900000000001  0.78022  0.44427  1.0000
  H   H6        1.0  0.88755  0.73647  0.28627  1.0000
  H   H7        1.0  0.65749  0.66405  0.7467699999999998  1.0000
  H   H8        1.0  0.61028  0.54595  0.6297599999999999  1.0000
  H   H9        1.0  0.62128  0.50038  0.01988  1.0000
  H   H10       1.0  0.61044  0.33821000000000007  0.06109  1.0000
  H   H11       1.0  0.6045200000000001  0.21913  0.94431  1.0000
  H   H12       1.0  0.6094600000000001  0.26289  0.78638  1.0000
  H   H13       1.0  0.15575000000000006  0.8361100000000002  0.25253  1.0000
  H   H14       1.0  0.11126  0.95402  0.36999  1.0000
  H   H15       1.0  0.1196  0.0004000000000000001  0.9799699999999998  1.0000
  H   H16       1.0  0.10985  0.16263000000000005  0.93917  1.0000
  H   H17       1.0  0.10529  0.28146  0.056269999999999994  1.0000
  H   H18       1.0  0.11133000000000003  0.23727000000000004  0.2141  1.0000
  H   H19       1.0  0.33977  0.16501000000000005  0.75317  1.0000
  H   H20       1.0  0.38876000000000005  0.04705  0.8701899999999998  1.0000
  H   H21       1.0  0.3787100000000001  0.00114  0.4802099999999999  1.0000
  H   H22       1.0  0.39022000000000007  0.83896  0.43913  1.0000
  H   H23       1.0  0.39508  0.71996  0.55601  1.0000
  H   H24       1.0  0.38989  0.76397  0.71396  1.0000
  C   C1        1.0  0.85491  0.35513  0.41828  1.0000
  C   C2        1.0  0.9002700000000002  0.6298  0.14323  1.0000
  C   C3        1.0  0.8622700000000002  0.43059  0.35281  1.0000
  C   C4        1.0  0.8573500000000001  0.40672  0.26431  1.0000
  C   C5        1.0  0.87912  0.47318  0.19856  1.0000
  C   C6        1.0  0.8882900000000002  0.5646800000000002  0.21985  1.0000
  C   C7        1.0  0.8836100000000001  0.59238  0.3106899999999999  1.0000
  C   C8        1.0  0.87894  0.52365  0.37858  1.0000
  C   C9        1.0  0.88213  0.55078  0.46877  1.0000
  C   C10       1.0  0.88851  0.64135  0.49171  1.0000
  C   C11       1.0  0.8913200000000001  0.7089300000000001  0.4254699999999999  1.0000
  C   C12       1.0  0.8890800000000002  0.6849600000000002  0.33739  1.0000
  C   C13       1.0  0.64526  0.64451  0.91847  1.0000
  C   C14       1.0  0.59545  0.37049  0.64333  1.0000
  C   C15       1.0  0.6377700000000001  0.56888  0.85311  1.0000
  C   C16       1.0  0.64189  0.5929  0.76462  1.0000
  C   C17       1.0  0.61906  0.5266  0.69891  1.0000
  C   C18       1.0  0.60901  0.4351300000000001  0.7200999999999999  1.0000
  C   C19       1.0  0.61455  0.40712  0.81083  1.0000
  C   C20       1.0  0.62068  0.47575000000000006  0.8788  1.0000
  C   C21       1.0  0.6181900000000001  0.44849  0.96896  1.0000
  C   C22       1.0  0.6118000000000001  0.35791  0.99185  1.0000
  C   C23       1.0  0.6077700000000001  0.29043000000000013  0.92552  1.0000
  C   C24       1.0  0.60888  0.31447  0.8374499999999999  1.0000
  C   C25       1.0  0.14263  0.85632  0.08041  1.0000
  C   C26       1.0  0.0995  0.12989  0.35662  1.0000
  C   C27       1.0  0.13536  0.93148  0.14639  1.0000
  C   C28       1.0  0.14026  0.9072900000000002  0.23482  1.0000
  C   C29       1.0  0.11930000000000004  0.97354  0.3008299999999999  1.0000
  C   C30       1.0  0.11047  0.06509  0.2798599999999999  1.0000
  C   C31       1.0  0.11482  0.0932  0.18919  1.0000
  C   C32       1.0  0.11935000000000001  0.024720000000000006  0.12107  1.0000
  C   C33       1.0  0.11701  0.052170000000000015  0.031019999999999992  1.0000
  C   C34       1.0  0.11136000000000003  0.14279  0.00836  1.0000
  C   C35       1.0  0.10814000000000001  0.21012  0.07484  1.0000
  C   C36       1.0  0.10975000000000003  0.1859  0.16284999999999994  1.0000
  C   C37       1.0  0.3523000000000001  0.14501  0.58148  1.0000
  C   C38       1.0  0.4046  0.8718300000000002  0.85685  1.0000
  C   C39       1.0  0.36049  0.06968  0.6469999999999998  1.0000
  C   C40       1.0  0.35613000000000006  0.09386  0.73541  1.0000
  C   C41       1.0  0.37954  0.02767  0.8011  1.0000
  C   C42       1.0  0.38984  0.9361900000000002  0.77995  1.0000
  C   C43       1.0  0.3843  0.90805  0.6893  1.0000
  C   C44       1.0  0.37822  0.9765900000000002  0.62131  1.0000
  C   C45       1.0  0.38129  0.9492900000000002  0.53116  1.0000
  C   C46       1.0  0.3880200000000001  0.8587  0.50836  1.0000
  C   C47       1.0  0.39165  0.79127  0.57472  1.0000
  C   C48       1.0  0.39031000000000005  0.8154  0.66277  1.0000
  O   O1        1.0  0.9903800000000003  0.35015  0.4778999999999999  1.0000
  O   O2        1.0  0.71596  0.29536  0.4108  1.0000
  O   O3        1.0  0.9994600000000001  0.60345  0.07575  1.0000
  O   O4        1.0  0.8077300000000001  0.70543  0.1483  1.0000
  O   O5        1.0  0.50808  0.64995  0.97791  1.0000
  O   O6        1.0  0.7852600000000001  0.70396  0.9107899999999998  1.0000
  O   O7        1.0  0.49655000000000005  0.39752  0.57635  1.0000
  O   O8        1.0  0.6868400000000002  0.29455000000000003  0.6479299999999998  1.0000
  O   O9        1.0  0.0054  0.8506800000000001  0.02172  1.0000
  O   O10       1.0  0.28332  0.7972800000000002  0.08649  1.0000
  O   O11       1.0  0.0010400000000000008  0.10337000000000003  0.42421999999999993  1.0000
  O   O12       1.0  0.19205000000000005  0.20558000000000007  0.35143  1.0000
  O   O13       1.0  0.48857000000000006  0.15013000000000007  0.5217  1.0000
  O   O14       1.0  0.21259000000000003  0.20442000000000005  0.58911  1.0000
  O   O15       1.0  0.5039  0.89963  0.92344  1.0000
  O   O16       1.0  0.31384  0.79553  0.85257  1.0000
