data_image0
_chemical_formula_structural       Zn4H18C48O24
_chemical_formula_sum              "Zn4 H18 C48 O24"
_cell_length_a       8.42569
_cell_length_b       10.36352
_cell_length_c       18.32477
_cell_angle_alpha    104.52257
_cell_angle_beta     91.63095999999999
_cell_angle_gamma    109.53905

_space_group_name_H-M_alt    "P 1"
_space_group_IT_number       1

loop_
  _space_group_symop_operation_xyz
  'x, y, z'

loop_
  _atom_site_type_symbol
  _atom_site_label
  _atom_site_symmetry_multiplicity
  _atom_site_fract_x
  _atom_site_fract_y
  _atom_site_fract_z
  _atom_site_occupancy
  Zn  Zn1       1.0  0.67328  0.81049  0.21957  1.0000
  Zn  Zn2       1.0  0.96421  0.12775000000000003  0.30768000000000006  1.0000
  Zn  Zn3       1.0  0.32672  0.18950999999999998  0.78043  1.0000
  Zn  Zn4       1.0  0.03579  0.87225  0.69232  1.0000
  H   H1        1.0  0.96806  0.41387999999999997  0.40402  1.0000
  H   H2        1.0  0.71474  0.36181  0.24918  1.0000
  H   H3        1.0  0.31947000000000003  0.9686099999999999  0.13109  1.0000
  H   H4        1.0  0.2517  0.17898999999999998  0.9714300000000001  1.0000
  H   H5        1.0  0.24957000000000001  0.60812  0.42576  1.0000
  H   H6        1.0  0.5599900000000001  0.34775  0.3804  1.0000
  H   H7        1.0  0.3084400000000001  0.37034  0.10533000000000002  1.0000
  H   H8        1.0  0.79969  0.8022500000000001  0.4639400000000001  1.0000
  H   H9        1.0  0.29875  0.79473  0.53652  1.0000
  H   H10       1.0  0.03195000000000003  0.58612  0.59598  1.0000
  H   H11       1.0  0.28526999999999997  0.6381899999999999  0.75082  1.0000
  H   H12       1.0  0.68054  0.03138999999999996  0.86891  1.0000
  H   H13       1.0  0.74831  0.8210199999999999  0.02858  1.0000
  H   H14       1.0  0.75044  0.39188  0.57424  1.0000
  H   H15       1.0  0.4400200000000001  0.6522500000000001  0.6196100000000002  1.0000
  H   H16       1.0  0.6915700000000002  0.62966  0.89468  1.0000
  H   H17       1.0  0.20032  0.19776  0.53606  1.0000
  H   H18       1.0  0.70126  0.20528  0.46348  1.0000
  C   C1        1.0  0.5963300000000001  0.54043  0.20008  1.0000
  C   C2        1.0  0.51647  0.38196  0.18045  1.0000
  C   C3        1.0  0.23936000000000002  0.33064  0.37125  1.0000
  C   C4        1.0  0.52232  0.72171  0.44776  1.0000
  C   C5        1.0  0.72373  0.9617199999999999  0.3861900000000001  1.0000
  C   C6        1.0  0.52493  0.15605999999999998  0.1929  1.0000
  C   C7        1.0  0.5956200000000003  0.3053  0.21194  1.0000
  C   C8        1.0  0.8696999999999999  0.5619499999999998  0.42372  1.0000
  C   C9        1.0  0.50739  0.8618999999999999  0.47132  1.0000
  C   C10       1.0  0.3717  0.08439  0.14545  1.0000
  C   C11       1.0  0.13825  0.08226999999999998  0.05800000000000001  1.0000
  C   C12       1.0  0.13966999999999996  0.10347999999999996  0.98507  1.0000
  C   C13       1.0  0.37412000000000006  0.59756  0.42587  1.0000
  C   C14       1.0  0.61893  0.07377  0.21996  1.0000
  C   C15       1.0  0.5511400000000001  0.45286  0.3999  1.0000
  C   C16       1.0  0.96306  0.9653399999999999  0.15133  1.0000
  C   C17       1.0  0.36777  0.30965  0.12974  1.0000
  C   C18       1.0  0.6212400000000001  0.9812599999999999  0.45129  1.0000
  C   C19       1.0  0.6843400000000002  0.7086500000000001  0.4456500000000001  1.0000
  C   C20       1.0  0.3898800000000001  0.46446999999999994  0.40014  1.0000
  C   C21       1.0  0.99384  0.9780399999999999  0.07268  1.0000
  C   C22       1.0  0.2919  0.16028999999999996  0.11309  1.0000
  C   C23       1.0  0.6984400000000001  0.57498  0.42323  1.0000
  C   C24       1.0  0.3835500000000001  0.88339  0.51875  1.0000
  C   C25       1.0  0.40368  0.45957  0.79993  1.0000
  C   C26       1.0  0.4835400000000001  0.61804  0.81955  1.0000
  C   C27       1.0  0.7606400000000001  0.66936  0.62876  1.0000
  C   C28       1.0  0.47769000000000006  0.27829  0.55225  1.0000
  C   C29       1.0  0.27627  0.03828000000000002  0.6138100000000001  1.0000
  C   C30       1.0  0.47508  0.84395  0.8071  1.0000
  C   C31       1.0  0.40439000000000014  0.69471  0.78807  1.0000
  C   C32       1.0  0.13031  0.43805  0.57628  1.0000
  C   C33       1.0  0.4926200000000001  0.1381  0.52868  1.0000
  C   C34       1.0  0.6282999999999999  0.9156099999999999  0.85455  1.0000
  C   C35       1.0  0.8617599999999999  0.91773  0.94201  1.0000
  C   C36       1.0  0.86034  0.89653  0.01493  1.0000
  C   C37       1.0  0.62589  0.40244  0.57413  1.0000
  C   C38       1.0  0.3810800000000001  0.9262300000000002  0.7800500000000002  1.0000
  C   C39       1.0  0.44886000000000004  0.5471400000000001  0.6001000000000002  1.0000
  C   C40       1.0  0.03695  0.034669999999999986  0.84868  1.0000
  C   C41       1.0  0.63224  0.69036  0.87026  1.0000
  C   C42       1.0  0.3787600000000001  0.018740000000000003  0.54872  1.0000
  C   C43       1.0  0.31567  0.29135  0.55436  1.0000
  C   C44       1.0  0.61012  0.53553  0.59986  1.0000
  C   C45       1.0  0.0061599999999999815  0.021959999999999952  0.92732  1.0000
  C   C46       1.0  0.7081100000000002  0.83971  0.88691  1.0000
  C   C47       1.0  0.30156  0.42502  0.57677  1.0000
  C   C48       1.0  0.6164500000000003  0.11662000000000007  0.48125000000000007  1.0000
  O   O1        1.0  0.51568  0.6100699999999999  0.17447  1.0000
  O   O2        1.0  0.09294999999999998  0.3416  0.35647  1.0000
  O   O3        1.0  0.8584700000000001  0.42704999999999993  0.41781  1.0000
  O   O4        1.0  0.6437899999999999  0.8590199999999999  0.32869  1.0000
  O   O5        1.0  0.73963  0.144  0.27356  1.0000
  O   O6        1.0  0.7379900000000001  0.6035999999999999  0.2404  1.0000
  O   O7        1.0  0.8646300000000001  0.8458799999999999  0.15691  1.0000
  O   O8        1.0  0.2546600000000001  0.21104000000000006  0.35916000000000003  1.0000
  O   O9        1.0  0.5720399999999999  0.9409099999999999  0.18598  1.0000
  O   O10       1.0  0.87305  0.051520000000000024  0.3927300000000001  1.0000
  O   O11       1.0  0.0316  0.07897999999999997  0.20533  1.0000
  O   O12       1.0  0.0024499999999999657  0.66209  0.42952000000000007  1.0000
  O   O13       1.0  0.48432000000000003  0.38993  0.82554  1.0000
  O   O14       1.0  0.9070599999999999  0.6584099999999999  0.64353  1.0000
  O   O15       1.0  0.14154  0.57296  0.5822  1.0000
  O   O16       1.0  0.35621000000000014  0.14098  0.67131  1.0000
  O   O17       1.0  0.26038  0.856  0.72644  1.0000
  O   O18       1.0  0.26202000000000003  0.39640000000000003  0.7596000000000003  1.0000
  O   O19       1.0  0.13538  0.15411999999999995  0.84309  1.0000
  O   O20       1.0  0.7453400000000002  0.7889599999999999  0.64084  1.0000
  O   O21       1.0  0.42796  0.05909000000000006  0.81402  1.0000
  O   O22       1.0  0.12694999999999995  0.9484799999999999  0.6072700000000001  1.0000
  O   O23       1.0  0.9684000000000001  0.9210199999999998  0.7946800000000003  1.0000
  O   O24       1.0  0.99755  0.33791000000000004  0.57048  1.0000
