data_image0
_chemical_formula_structural       Zn4H8C24O14
_chemical_formula_sum              "Zn4 H8 C24 O14"
_cell_length_a       7.27323
_cell_length_b       9.846680000000001
_cell_length_c       12.53692
_cell_angle_alpha    77.11008
_cell_angle_beta     89.1623
_cell_angle_gamma    78.48662

_symmetry_space_group_name_H-M    'P 1'
_symmetry_Int_Tables_number       1

loop_
  _symmetry_equiv_pos_as_xyz
  'x,y,z'

loop_
  _atom_site_type_symbol
  _atom_site_label
  _atom_site_symmetry_multiplicity
  _atom_site_fract_x
  _atom_site_fract_y
  _atom_site_fract_z
  _atom_site_occupancy
  Zn  Zn1       1.0  0.07902  0.10185999999999999  0.53773  1.0000
  Zn  Zn2       1.0  0.6636  0.18176  0.36315  1.0000
  Zn  Zn3       1.0  0.91211  0.9049899999999999  0.46073  1.0000
  Zn  Zn4       1.0  0.31919000000000003  0.8232099999999998  0.63342  1.0000
  H   H1        1.0  0.6999700000000001  0.9906999999999998  0.76613  1.0000
  H   H2        1.0  0.39951  0.39610999999999996  0.58595  1.0000
  H   H3        1.0  0.7763899999999999  0.38038000000000005  0.8510899999999999  1.0000
  H   H4        1.0  0.7436799999999998  0.19878000000000004  0.027829999999999997  1.0000
  H   H5        1.0  0.28396  0.007319999999999993  0.24079  1.0000
  H   H6        1.0  0.60992  0.60481  0.40745  1.0000
  H   H7        1.0  0.22418999999999997  0.62061  0.1456  1.0000
  H   H8        1.0  0.2528  0.805  0.97283  1.0000
  C   C1        1.0  0.43221  0.10842999999999997  0.61159  1.0000
  C   C2        1.0  0.54454  0.18503999999999998  0.66826  1.0000
  C   C3        1.0  0.67309  0.10619000000000002  0.75115  1.0000
  C   C4        1.0  0.50431  0.33482  0.64841  1.0000
  C   C5        1.0  0.59254  0.40425  0.7131499999999998  1.0000
  C   C6        1.0  0.71343  0.32461  0.80008  1.0000
  C   C7        1.0  0.75886  0.17458  0.81835  1.0000
  C   C8        1.0  0.88859  0.09028999999999998  0.90842  1.0000
  C   C9        1.0  0.85843  0.11532  0.014359999999999998  1.0000
  C   C10       1.0  0.5464300000000001  0.5644099999999997  0.6962000000000002  1.0000
  C   C11       1.0  0.9619299999999997  0.027369999999999995  0.10525  1.0000
  C   C12       1.0  0.89769  0.04518  0.21664  1.0000
  C   C13       1.0  0.5633  0.8911499999999999  0.38864  1.0000
  C   C14       1.0  0.45437999999999984  0.81399  0.33124  1.0000
  C   C15       1.0  0.31740999999999997  0.89219  0.25226  1.0000
  C   C16       1.0  0.50355  0.6661999999999999  0.34602  1.0000
  C   C17       1.0  0.41670000000000007  0.59754  0.27965  1.0000
  C   C18       1.0  0.28563999999999995  0.6763500000000001  0.19728  1.0000
  C   C19       1.0  0.23289999999999994  0.82468  0.1831  1.0000
  C   C20       1.0  0.10619000000000006  0.9122199999999999  0.09234  1.0000
  C   C21       1.0  0.13804000000000002  0.8885799999999999  0.9861299999999998  1.0000
  C   C22       1.0  0.47080999999999995  0.43988999999999995  0.29628  1.0000
  C   C23       1.0  0.034560000000000035  0.9763199999999999  0.89518  1.0000
  C   C24       1.0  0.09772  0.9584100000000001  0.7832999999999999  1.0000
  O   O1        1.0  0.8359799999999997  0.09961000000000002  0.48924  1.0000
  O   O2        1.0  0.47287000000000007  0.9736799999999999  0.63569  1.0000
  O   O3        1.0  0.29702  0.18615  0.54651  1.0000
  O   O4        1.0  0.6310199999999996  0.62547  0.75028  1.0000
  O   O5        1.0  0.40773  0.6261  0.62557  1.0000
  O   O6        1.0  0.93392  0.93362  0.29311  1.0000
  O   O7        1.0  0.8054099999999997  0.16693  0.22426999999999997  1.0000
  O   O8        1.0  0.15613999999999997  0.90793  0.50521  1.0000
  O   O9        1.0  0.51919  0.02637000000000001  0.36484999999999995  1.0000
  O   O10       1.0  0.6989900000000001  0.8148899999999999  0.45332  1.0000
  O   O11       1.0  0.42706  0.37381  0.22938  1.0000
  O   O12       1.0  0.57268  0.37418999999999997  0.38496  1.0000
  O   O13       1.0  0.056319999999999995  0.06883000000000002  0.7062699999999998  1.0000
  O   O14       1.0  0.1931  0.83743  0.77626  1.0000
