data_image0
_chemical_formula_structural       Mn4P4H4C4O20
_chemical_formula_sum              "Mn4 P4 H4 C4 O20"
_cell_length_a       5.6021
_cell_length_b       6.45366
_cell_length_c       15.785190000000002
_cell_angle_alpha    89.97177
_cell_angle_beta     89.74277
_cell_angle_gamma    69.99258

_space_group_name_H-M_alt    "P 1"
_space_group_IT_number       1

loop_
  _space_group_symop_operation_xyz
  'x, y, z'

loop_
  _atom_site_type_symbol
  _atom_site_label
  _atom_site_symmetry_multiplicity
  _atom_site_fract_x
  _atom_site_fract_y
  _atom_site_fract_z
  _atom_site_occupancy
  Mn  Mn1       1.0  0.8585200000000002  0.4944599999999999  0.33847  1.0000
  Mn  Mn2       1.0  0.63746  0.021039999999999993  0.83585  1.0000
  Mn  Mn3       1.0  0.13692  0.51622  0.6647499999999997  1.0000
  Mn  Mn4       1.0  0.3571300000000001  0.9941  0.16427  1.0000
  P   P1        1.0  0.31270000000000003  0.67721  0.3229499999999999  1.0000
  P   P2        1.0  0.18029000000000014  0.8338299999999997  0.8235199999999998  1.0000
  P   P3        1.0  0.6776799999999998  0.33514999999999995  0.67524  1.0000
  P   P4        1.0  0.8093100000000001  0.17773999999999998  0.17874  1.0000
  H   H1        1.0  0.2345300000000001  0.8249599999999998  0.3911799999999999  1.0000
  H   H2        1.0  0.26452  0.68509  0.89077  1.0000
  H   H3        1.0  0.7674499999999999  0.18055  0.6087599999999997  1.0000
  H   H4        1.0  0.72338  0.32421  0.11135999999999997  1.0000
  C   C1        1.0  0.91609  0.62649  0.5019799999999998  1.0000
  C   C2        1.0  0.5825400000000001  0.8829699999999998  0.00059  1.0000
  C   C3        1.0  0.0753  0.37969  0.5020099999999997  1.0000
  C   C4        1.0  0.41757000000000005  0.12727  0.0013699999999999995  1.0000
  O   O1        1.0  0.42881  0.7819599999999999  0.2529599999999999  1.0000
  O   O2        1.0  0.53035  0.4750699999999999  0.3591099999999999  1.0000
  O   O3        1.0  0.08727000000000007  0.6178999999999999  0.28914999999999996  1.0000
  O   O4        1.0  0.7979400000000001  0.70425  0.4335599999999999  1.0000
  O   O5        1.0  0.9120500000000002  0.7363699999999997  0.5681999999999998  1.0000
  O   O6        1.0  0.0668200000000001  0.7242799999999998  0.7547  1.0000
  O   O7        1.0  0.96507  0.04181999999999999  0.8578299999999998  1.0000
  O   O8        1.0  0.40663  0.8938699999999999  0.7907899999999998  1.0000
  O   O9        1.0  0.6972599999999999  0.81179  0.9305999999999998  1.0000
  O   O10       1.0  0.59807  0.77426  0.06790999999999997  1.0000
  O   O11       1.0  0.55609  0.23691999999999994  0.7464399999999998  1.0000
  O   O12       1.0  0.46173  0.5354  0.6364999999999997  1.0000
  O   O13       1.0  0.89439  0.40239  0.7116299999999998  1.0000
  O   O14       1.0  0.19255  0.30302999999999997  0.5710199999999997  1.0000
  O   O15       1.0  0.07304000000000001  0.27215  0.43596  1.0000
  O   O16       1.0  0.91498  0.29739  0.24531999999999995  1.0000
  O   O17       1.0  0.03065999999999998  0.97394  0.14505999999999994  1.0000
  O   O18       1.0  0.591  0.10841  0.21265999999999993  1.0000
  O   O19       1.0  0.31156  0.20716999999999997  0.07173999999999998  1.0000
  O   O20       1.0  0.40903000000000006  0.23514999999999997  0.9343999999999998  1.0000
