data_image0
_chemical_formula_structural       Sr6H12C28N4O22
_chemical_formula_sum              "Sr6 H12 C28 N4 O22"
_cell_length_a       7.41962
_cell_length_b       9.2844
_cell_length_c       18.32477
_cell_angle_alpha    82.37914
_cell_angle_beta     90.89618999999999
_cell_angle_gamma    111.30339

_symmetry_space_group_name_H-M    'P 1'
_symmetry_Int_Tables_number       1

loop_
  _symmetry_equiv_pos_as_xyz
  'x,y,z'

loop_
  _atom_site_type_symbol
  _atom_site_label
  _atom_site_symmetry_multiplicity
  _atom_site_fract_x
  _atom_site_fract_y
  _atom_site_fract_z
  _atom_site_occupancy
  Sr  Sr1       1.0  0.96697  0.15253  0.30765  1.0000
  Sr  Sr2       1.0  0.6446299999999999  0.9046599999999999  0.14136  1.0000
  Sr  Sr3       1.0  0.1921899999999998  0.8248899999999997  0.66197  1.0000
  Sr  Sr4       1.0  0.26531999999999994  0.4873099999999999  0.9929900000000002  1.0000
  Sr  Sr5       1.0  0.15616999999999995  0.39875999999999995  0.49417  1.0000
  Sr  Sr6       1.0  0.1351  0.09934999999999998  0.81718  1.0000
  H   H1        1.0  0.90933  0.61363  0.07614  1.0000
  H   H2        1.0  0.85042  0.20183  0.73154  1.0000
  H   H3        1.0  0.82639  0.8820999999999997  0.7068000000000002  1.0000
  H   H4        1.0  0.9874499999999999  0.7588399999999997  0.2936300000000001  1.0000
  H   H5        1.0  0.75141  0.6751399999999999  0.7948  1.0000
  H   H6        1.0  0.63162  0.50612  0.58306  1.0000
  H   H7        1.0  0.08495999999999992  0.9921299999999998  0.18644000000000002  1.0000
  H   H8        1.0  0.22361999999999999  0.17137  0.17342000000000002  1.0000
  H   H9        1.0  0.70705  0.89606  0.7748400000000002  1.0000
  H   H10       1.0  0.53895  0.57426  0.4242600000000001  1.0000
  H   H11       1.0  0.37219  0.27015  0.25684  1.0000
  H   H12       1.0  0.9177299999999998  0.43120999999999987  0.9258700000000001  1.0000
  C   C1        1.0  0.8997699999999998  0.2848499999999999  0.8396800000000002  1.0000
  C   C2        1.0  0.1490200000000001  0.7206000000000001  0.8558  1.0000
  C   C3        1.0  0.45577  0.51778  0.22151000000000004  1.0000
  C   C4        1.0  0.50007  0.55215  0.36797  1.0000
  C   C5        1.0  0.9573  0.43082  0.86894  1.0000
  C   C6        1.0  0.94505  0.71124  0.17928000000000002  1.0000
  C   C7        1.0  0.9765600000000001  0.48176  0.3645300000000001  1.0000
  C   C8        1.0  0.020199999999999947  0.44463999999999987  0.7213000000000003  1.0000
  C   C9        1.0  0.4640699999999999  0.4405699999999999  0.8693300000000003  1.0000
  C   C10       1.0  0.46141  0.364  0.67859  1.0000
  C   C11       1.0  0.90416  0.31944999999999996  0.12122000000000001  1.0000
  C   C12       1.0  0.4257  0.50749  0.14066  1.0000
  C   C13       1.0  0.92706  0.59253  0.13518000000000005  1.0000
  C   C14       1.0  0.9138399999999999  0.30195999999999995  0.76094  1.0000
  C   C15       1.0  0.55069  0.67784  0.31225000000000014  1.0000
  C   C16       1.0  0.60312  0.49704999999999994  0.64187  1.0000
  C   C17       1.0  0.7135199999999999  0.6189599999999997  0.68223  1.0000
  C   C18       1.0  0.5222000000000001  0.45824  0.78984  1.0000
  C   C19       1.0  0.96094  0.52576  0.28324  1.0000
  C   C20       1.0  0.6576299999999998  0.8433799999999999  0.32624  1.0000
  C   C21       1.0  0.40968  0.38545  0.27321  1.0000
  C   C22       1.0  0.39769999999999994  0.3985699999999998  0.34968  1.0000
  C   C23       1.0  0.66937  0.5921499999999998  0.75887  1.0000
  C   C24       1.0  0.92567  0.44781  0.16766000000000006  1.0000
  C   C25       1.0  0.96923  0.67447  0.25557  1.0000
  C   C26       1.0  0.06476999999999994  0.5681199999999998  0.8247400000000003  1.0000
  C   C27       1.0  0.3412399999999999  0.22968  0.63956  1.0000
  C   C28       1.0  0.051560000000000036  0.4542800000000001  0.63962  1.0000
  N   N1        1.0  0.93939  0.41207  0.24095000000000003  1.0000
  N   N2        1.0  0.10418999999999995  0.5768299999999998  0.75186  1.0000
  N   N3        1.0  0.51728  0.6634  0.24032000000000003  1.0000
  N   N4        1.0  0.41834999999999994  0.34327  0.75152  1.0000
  O   O1        1.0  0.32885999999999993  0.25066  0.5706300000000001  1.0000
  O   O2        1.0  0.66475  0.95016  0.27176  1.0000
  O   O3        1.0  0.17241999999999996  0.08052999999999999  0.21195000000000003  1.0000
  O   O4        1.0  0.74552  0.87322  0.38493  1.0000
  O   O5        1.0  0.4635599999999999  0.6362099999999999  0.09616000000000002  1.0000
  O   O6        1.0  0.85179  0.18056  0.15495  1.0000
  O   O7        1.0  0.94135  0.35778999999999994  0.05239  1.0000
  O   O8        1.0  0.18993  0.7191699999999999  0.92296  1.0000
  O   O9        1.0  0.92185  0.33413  0.38905  1.0000
  O   O10       1.0  0.04961999999999999  0.58718  0.4049200000000001  1.0000
  O   O11       1.0  0.3248  0.31462  0.89673  1.0000
  O   O12       1.0  0.82091  0.9530599999999999  0.74293  1.0000
  O   O13       1.0  0.29196  0.28137999999999996  0.39639000000000013  1.0000
  O   O14       1.0  0.54558  0.55433  0.9047300000000001  1.0000
  O   O15       1.0  0.25606  0.09861999999999994  0.6811900000000001  1.0000
  O   O16       1.0  0.1746099999999999  0.8445999999999999  0.80942  1.0000
  O   O17       1.0  0.16950000000000004  0.58289  0.6036400000000002  1.0000
  O   O18       1.0  0.96311  0.33285  0.61037  1.0000
  O   O19       1.0  0.8543800000000001  0.15043  0.87913  1.0000
  O   O20       1.0  0.8474  0.75002  0.6520600000000002  1.0000
  O   O21       1.0  0.35507  0.37439  0.11872  1.0000
  O   O22       1.0  0.93636  0.84645  0.15078  1.0000
