data_image0
_chemical_formula_structural       Mn4H24C36O16
_chemical_formula_sum              "Mn4 H24 C36 O16"
_cell_length_a       7.65749
_cell_length_b       9.057129999999999
_cell_length_c       16.04966
_cell_angle_alpha    89.73091999999998
_cell_angle_beta     90.1401
_cell_angle_gamma    90.27432

_symmetry_space_group_name_H-M    'P 1'
_symmetry_Int_Tables_number       1

loop_
  _symmetry_equiv_pos_as_xyz
  'x,y,z'

loop_
  _atom_site_type_symbol
  _atom_site_label
  _atom_site_symmetry_multiplicity
  _atom_site_fract_x
  _atom_site_fract_y
  _atom_site_fract_z
  _atom_site_occupancy
  Mn  Mn1       1.0  0.54724  0.10142  0.78455  1.0000
  Mn  Mn2       1.0  0.93763  0.60301  0.2834799999999999  1.0000
  Mn  Mn3       1.0  0.43972  0.60216  0.21771  1.0000
  Mn  Mn4       1.0  0.05163  0.10472  0.7176199999999998  1.0000
  H   H1        1.0  0.7129  0.56464  0.82521  1.0000
  H   H2        1.0  0.88349  0.91432  0.38181  1.0000
  H   H3        1.0  0.66351  0.83822  0.99127  1.0000
  H   H4        1.0  0.16940999999999995  0.03447  0.95244  1.0000
  H   H5        1.0  0.66982  0.03722000000000001  0.5491099999999998  1.0000
  H   H6        1.0  0.6338799999999998  0.59112  0.9284399999999998  1.0000
  H   H7        1.0  0.32373  0.33822  0.01053  1.0000
  H   H8        1.0  0.45834999999999987  0.38075  0.69682  1.0000
  H   H9        1.0  0.86607  0.08525  0.4345299999999999  1.0000
  H   H10       1.0  0.81985  0.53523  0.04665  1.0000
  H   H11       1.0  0.37963  0.9135599999999999  0.12076  1.0000
  H   H12       1.0  0.78737  0.0673  0.33042  1.0000
  H   H13       1.0  0.36037999999999987  0.08600999999999998  0.06877  1.0000
  H   H14       1.0  0.28124  0.064  0.17252  1.0000
  H   H15       1.0  0.20734  0.57032  0.67086  1.0000
  H   H16       1.0  0.8228699999999998  0.33759  0.49453  1.0000
  H   H17       1.0  0.9634  0.37699  0.80491  1.0000
  H   H18       1.0  0.02885  0.87281  0.19494  1.0000
  H   H19       1.0  0.31863  0.5308599999999999  0.45156  1.0000
  H   H20       1.0  0.16388999999999995  0.84295  0.50705  1.0000
  H   H21       1.0  0.60996  0.4172  0.8792499999999998  1.0000
  H   H22       1.0  0.10618  0.41862  0.62043  1.0000
  H   H23       1.0  0.5359999999999999  0.87393  0.30664999999999987  1.0000
  H   H24       1.0  0.12965999999999994  0.5889499999999999  0.56662  1.0000
  C   C1        1.0  0.77171  0.26347  0.6558899999999998  1.0000
  C   C2        1.0  0.36215999999999987  0.97807  0.6243  1.0000
  C   C3        1.0  0.50208  0.89363  0.3713199999999999  1.0000
  C   C4        1.0  0.57751  0.98496  0.50685  1.0000
  C   C5        1.0  0.65083  0.34617  0.60104  1.0000
  C   C6        1.0  0.12332999999999997  0.47605  0.12561  1.0000
  C   C7        1.0  0.71274  0.75957  0.1521  1.0000
  C   C8        1.0  0.9116  0.94062  0.96284  1.0000
  C   C9        1.0  0.8650599999999999  0.9741499999999998  0.87454  1.0000
  C   C10       1.0  0.3387499999999999  0.84665  0.40117  1.0000
  C   C11       1.0  0.4898499999999999  0.39621999999999996  0.63136  1.0000
  C   C12       1.0  0.15464  0.34520999999999996  0.90226  1.0000
  C   C13       1.0  0.19760999999999995  0.37160999999999994  0.98591  1.0000
  C   C14       1.0  0.5760599999999998  0.43908  0.46414  1.0000
  C   C15       1.0  0.6959599999999999  0.37129  0.51753  1.0000
  C   C16       1.0  0.36784  0.46352  0.57846  1.0000
  C   C17       1.0  0.8711899999999998  0.46336  0.92127  1.0000
  C   C18       1.0  0.6247499999999998  0.47328999999999993  0.3762  1.0000
  C   C19       1.0  0.9968599999999999  0.8915799999999999  0.12974999999999995  1.0000
  C   C20       1.0  0.8351  0.8433  0.09843999999999997  1.0000
  C   C21       1.0  0.2945199999999999  0.00967  0.11186  1.0000
  C   C22       1.0  0.29195  0.8746799999999998  0.4839499999999999  1.0000
  C   C23       1.0  0.11956  0.9614399999999999  0.07816  1.0000
  C   C24       1.0  0.69774  0.51254  0.88668  1.0000
  C   C25       1.0  0.0767  0.44116  0.03749  1.0000
  C   C26       1.0  0.7906799999999998  0.87111  0.015069999999999997  1.0000
  C   C27       1.0  0.41163  0.48089  0.4943299999999999  1.0000
  C   C28       1.0  0.41202  0.94368  0.53681  1.0000
  C   C29       1.0  0.9941399999999998  0.39442  0.87027  1.0000
  C   C30       1.0  0.21802  0.7649699999999998  0.34587  1.0000
  C   C31       1.0  0.19350999999999993  0.51373  0.61086  1.0000
  C   C32       1.0  0.07589  0.9824599999999999  0.99422  1.0000
  C   C33       1.0  0.6236  0.9632199999999999  0.4234799999999999  1.0000
  C   C34       1.0  0.2763699999999999  0.2625  0.84851  1.0000
  C   C35       1.0  0.91337  0.48325  0.00542  1.0000
  C   C36       1.0  0.79949  0.01087  0.39084999999999986  1.0000
  O   O1        1.0  0.0718  0.718  0.37481  1.0000
  O   O2        1.0  0.74962  0.7341999999999997  0.22945  1.0000
  O   O3        1.0  0.19961999999999994  0.97761  0.6421  1.0000
  O   O4        1.0  0.42019  0.21439  0.87909  1.0000
  O   O5        1.0  0.9985099999999999  0.50928  0.17482  1.0000
  O   O6        1.0  0.7871799999999998  0.4734499999999999  0.3579  1.0000
  O   O7        1.0  0.9908799999999998  0.006029999999999999  0.82522  1.0000
  O   O8        1.0  0.56861  0.7116  0.12144  1.0000
  O   O9        1.0  0.9159099999999998  0.21606  0.62566  1.0000
  O   O10       1.0  0.73324  0.23825  0.73288  1.0000
  O   O11       1.0  0.50056  0.50212  0.32531  1.0000
  O   O12       1.0  0.48567  0.0066099999999999996  0.67557  1.0000
  O   O13       1.0  0.25892  0.7411999999999999  0.26928  1.0000
  O   O14       1.0  0.70367  0.96965  0.85409  1.0000
  O   O15       1.0  0.23947999999999994  0.23794999999999997  0.7711799999999998  1.0000
  O   O16       1.0  0.28452  0.4723899999999999  0.14603  1.0000
