data_image0
_chemical_formula_structural       La2H16C16N4O12
_chemical_formula_sum              "La2 H16 C16 N4 O12"
_cell_length_a       7.89524
_cell_length_b       8.6466
_cell_length_c       10.42182
_cell_angle_alpha    84.45524
_cell_angle_beta     91.50832000000001
_cell_angle_gamma    85.17695

_space_group_name_H-M_alt    "P 1"
_space_group_IT_number       1

loop_
  _space_group_symop_operation_xyz
  'x, y, z'

loop_
  _atom_site_type_symbol
  _atom_site_label
  _atom_site_symmetry_multiplicity
  _atom_site_fract_x
  _atom_site_fract_y
  _atom_site_fract_z
  _atom_site_occupancy
  La  La1       1.0  0.4405599999999999  0.11947  0.14715  1.0000
  La  La2       1.0  0.5594399999999998  0.88053  0.85285  1.0000
  H   H1        1.0  0.03826  0.1123  0.97955  1.0000
  H   H2        1.0  0.9008299999999999  0.18796  0.84672  1.0000
  H   H3        1.0  0.55911  0.75215  0.44001  1.0000
  H   H4        1.0  0.74009  0.62392  0.4901  1.0000
  H   H5        1.0  0.11346000000000002  0.53191  0.20561000000000001  1.0000
  H   H6        1.0  0.25982  0.53218  0.07954  1.0000
  H   H7        1.0  0.62408  0.47442000000000006  0.18950000000000003  1.0000
  H   H8        1.0  0.76921  0.58435  0.26426  1.0000
  H   H9        1.0  0.9617399999999997  0.8877  0.02044  1.0000
  H   H10       1.0  0.09917  0.81203  0.15327  1.0000
  H   H11       1.0  0.4408899999999999  0.24785000000000001  0.55998  1.0000
  H   H12       1.0  0.25991  0.37608  0.5098900000000001  1.0000
  H   H13       1.0  0.8865399999999998  0.46809000000000006  0.7943900000000002  1.0000
  H   H14       1.0  0.7401799999999997  0.46782000000000007  0.9204600000000001  1.0000
  H   H15       1.0  0.37591999999999975  0.52558  0.8105000000000001  1.0000
  H   H16       1.0  0.23079999999999998  0.4156500000000001  0.73574  1.0000
  C   C1        1.0  0.9282099999999998  0.19578999999999996  0.9498500000000001  1.0000
  C   C2        1.0  0.47162000000000004  0.40694  0.39473  1.0000
  C   C3        1.0  0.6008999999999998  0.6303  0.47502000000000005  1.0000
  C   C4        1.0  0.12385  0.52212  0.10181000000000001  1.0000
  C   C5        1.0  0.77333  0.158  0.02602  1.0000
  C   C6        1.0  0.07660999999999997  0.36355  0.07625000000000001  1.0000
  C   C7        1.0  0.6319099999999997  0.57268  0.24745000000000006  1.0000
  C   C8        1.0  0.5550799999999998  0.72266  0.17164  1.0000
  C   C9        1.0  0.07179  0.80421  0.05014  1.0000
  C   C10       1.0  0.52838  0.59306  0.60526  1.0000
  C   C11       1.0  0.3991  0.3697  0.52498  1.0000
  C   C12       1.0  0.8761499999999998  0.47788  0.8981900000000002  1.0000
  C   C13       1.0  0.22667000000000004  0.842  0.97397  1.0000
  C   C14       1.0  0.9233899999999997  0.6364500000000002  0.92375  1.0000
  C   C15       1.0  0.36809  0.4273100000000001  0.75255  1.0000
  C   C16       1.0  0.44491999999999987  0.27734  0.82836  1.0000
  N   N1        1.0  0.5608099999999999  0.53245  0.37381  1.0000
  N   N2        1.0  0.9794299999999998  0.34916  0.9699900000000001  1.0000
  N   N3        1.0  0.4391899999999999  0.46755  0.62619  1.0000
  N   N4        1.0  0.020569999999999995  0.65084  0.03001  1.0000
  O   O1        1.0  0.14280999999999996  0.24538000000000001  0.1458  1.0000
  O   O2        1.0  0.4421899999999999  0.31798  0.30938  1.0000
  O   O3        1.0  0.58411  0.72657  0.04959  1.0000
  O   O4        1.0  0.70079  0.03473  0.99952  1.0000
  O   O5        1.0  0.50795  0.8443  0.23074000000000003  1.0000
  O   O6        1.0  0.7241099999999998  0.23348999999999998  0.11969  1.0000
  O   O7        1.0  0.8571899999999996  0.7546200000000002  0.8542  1.0000
  O   O8        1.0  0.55781  0.68201  0.69062  1.0000
  O   O9        1.0  0.41588999999999987  0.27342000000000005  0.95041  1.0000
  O   O10       1.0  0.29921  0.9652700000000001  0.00048000000000000007  1.0000
  O   O11       1.0  0.4920499999999999  0.15570000000000003  0.76925  1.0000
  O   O12       1.0  0.2758899999999999  0.7665100000000002  0.8803000000000001  1.0000
