data_image0
_chemical_formula_structural       Eu4H12C36N4O28
_chemical_formula_sum              "Eu4 H12 C36 N4 O28"
_cell_length_a       12.84406
_cell_length_b       12.83708
_cell_length_c       15.69755
_cell_angle_alpha    85.3502
_cell_angle_beta     85.28801
_cell_angle_gamma    62.88654999999999

_symmetry_space_group_name_H-M    'P 1'
_symmetry_Int_Tables_number       1

loop_
  _symmetry_equiv_pos_as_xyz
  'x,y,z'

loop_
  _atom_site_type_symbol
  _atom_site_label
  _atom_site_symmetry_multiplicity
  _atom_site_fract_x
  _atom_site_fract_y
  _atom_site_fract_z
  _atom_site_occupancy
  Eu  Eu1       1.0  0.64201  0.010299999999999993  0.4829400000000001  1.0000
  Eu  Eu2       1.0  0.00983999999999998  0.64233  0.98472  1.0000
  Eu  Eu3       1.0  0.3579799999999999  0.98971  0.5170600000000002  1.0000
  Eu  Eu4       1.0  0.9901599999999999  0.35768  0.015290000000000003  1.0000
  H   H1        1.0  0.26177  0.19828  0.7705900000000002  1.0000
  H   H2        1.0  0.4798799999999999  0.30015  0.372  1.0000
  H   H3        1.0  0.5150299999999998  0.3036  0.6505200000000002  1.0000
  H   H4        1.0  0.48495999999999984  0.6964099999999999  0.3494800000000001  1.0000
  H   H5        1.0  0.6943099999999998  0.4886  0.85019  1.0000
  H   H6        1.0  0.5201099999999999  0.6998599999999999  0.6280000000000002  1.0000
  H   H7        1.0  0.7022599999999999  0.51669  0.13063000000000005  1.0000
  H   H8        1.0  0.19862999999999995  0.26006  0.2708200000000001  1.0000
  H   H9        1.0  0.8013599999999999  0.73995  0.72919  1.0000
  H   H10       1.0  0.29774  0.48331  0.86937  1.0000
  H   H11       1.0  0.7382199999999998  0.80172  0.22940000000000005  1.0000
  H   H12       1.0  0.30569  0.51141  0.14981000000000005  1.0000
  C   C1        1.0  0.4140999999999999  0.32431  0.32483  1.0000
  C   C2        1.0  0.7446099999999998  0.69747  0.73256  1.0000
  C   C3        1.0  0.5304499999999999  0.5252  0.24663  1.0000
  C   C4        1.0  0.46954999999999997  0.4748099999999999  0.75338  1.0000
  C   C5        1.0  0.34938  0.17874  0.3959000000000001  1.0000
  C   C6        1.0  0.4738899999999998  0.46923  0.25474  1.0000
  C   C7        1.0  0.5261099999999999  0.53077  0.7452600000000003  1.0000
  C   C8        1.0  0.58851  0.59636  0.24154  1.0000
  C   C9        1.0  0.6765699999999998  0.58392  0.17693000000000006  1.0000
  C   C10       1.0  0.44548000000000004  0.31534  0.69897  1.0000
  C   C11       1.0  0.72988  0.65794  0.17323000000000005  1.0000
  C   C12       1.0  0.14994999999999997  0.42672  0.13982  1.0000
  C   C13       1.0  0.5970599999999998  0.58899  0.7404500000000003  1.0000
  C   C14       1.0  0.55452  0.68466  0.30103  1.0000
  C   C15       1.0  0.6077799999999999  0.7586999999999999  0.29623  1.0000
  C   C16       1.0  0.68354  0.55691  0.8009800000000002  1.0000
  C   C17       1.0  0.30403999999999987  0.25523  0.7670100000000002  1.0000
  C   C18       1.0  0.75715  0.61056  0.7964900000000003  1.0000
  C   C19       1.0  0.43096  0.1465  0.64124  1.0000
  C   C20       1.0  0.41147999999999996  0.40365000000000006  0.7584600000000002  1.0000
  C   C21       1.0  0.5858899999999998  0.6757  0.67517  1.0000
  C   C22       1.0  0.24284999999999998  0.38944999999999996  0.20351000000000005  1.0000
  C   C23       1.0  0.25539  0.30253  0.26743  1.0000
  C   C24       1.0  0.6959599999999998  0.74478  0.23299000000000006  1.0000
  C   C25       1.0  0.34059999999999996  0.27049  0.3281  1.0000
  C   C26       1.0  0.31645  0.44309  0.19902000000000006  1.0000
  C   C27       1.0  0.56903  0.85351  0.35876000000000013  1.0000
  C   C28       1.0  0.3922199999999998  0.24131000000000002  0.70377  1.0000
  C   C29       1.0  0.32342000000000004  0.41608999999999996  0.8230700000000002  1.0000
  C   C30       1.0  0.82257  0.64915  0.10601000000000002  1.0000
  C   C31       1.0  0.17741999999999997  0.35085  0.8939900000000002  1.0000
  C   C32       1.0  0.40293999999999985  0.41102  0.25955  1.0000
  C   C33       1.0  0.6506099999999996  0.82127  0.6041000000000002  1.0000
  C   C34       1.0  0.2701099999999999  0.34206999999999993  0.8267700000000002  1.0000
  C   C35       1.0  0.6594  0.72951  0.6719  1.0000
  C   C36       1.0  0.85005  0.57328  0.8601900000000002  1.0000
  N   N1        1.0  0.7341799999999997  0.17471999999999996  0.5085000000000001  1.0000
  N   N2        1.0  0.82437  0.2655199999999999  0.9912300000000003  1.0000
  N   N3        1.0  0.17562999999999993  0.7344800000000001  0.008770000000000003  1.0000
  N   N4        1.0  0.26581999999999995  0.82529  0.4915  1.0000
  O   O1        1.0  0.21577999999999997  0.92993  0.4586000000000001  1.0000
  O   O2        1.0  0.5324799999999997  0.11297999999999998  0.60546  1.0000
  O   O3        1.0  0.07187  0.78367  0.04328000000000001  1.0000
  O   O4        1.0  0.74306  0.25159  0.9669400000000001  1.0000
  O   O5        1.0  0.35955  0.10613  0.62791  1.0000
  O   O6        1.0  0.1540099999999999  0.26514  0.909  1.0000
  O   O7        1.0  0.11694999999999998  0.52811  0.10376000000000003  1.0000
  O   O8        1.0  0.7355299999999998  0.8457300000000001  0.58879  1.0000
  O   O9        1.0  0.92813  0.21633  0.95672  1.0000
  O   O10       1.0  0.64045  0.89388  0.3720900000000001  1.0000
  O   O11       1.0  0.2569299999999999  0.74842  0.03306000000000001  1.0000
  O   O12       1.0  0.7841999999999998  0.07007  0.5414  1.0000
  O   O13       1.0  0.5558599999999996  0.87432  0.56254  1.0000
  O   O14       1.0  0.6672299999999999  0.19095999999999996  0.4460800000000001  1.0000
  O   O15       1.0  0.8459899999999998  0.73487  0.09100000000000003  1.0000
  O   O16       1.0  0.26446  0.15426999999999996  0.41121000000000013  1.0000
  O   O17       1.0  0.8830399999999999  0.47189  0.8962400000000003  1.0000
  O   O18       1.0  0.12226999999999996  0.44574  0.93532  1.0000
  O   O19       1.0  0.3327599999999999  0.8090500000000002  0.55392  1.0000
  O   O20       1.0  0.87772  0.55426  0.06469  1.0000
  O   O21       1.0  0.2535399999999997  0.74415  0.46499000000000007  1.0000
  O   O22       1.0  0.88917  0.64545  0.8741800000000002  1.0000
  O   O23       1.0  0.80925  0.33337  0.05283  1.0000
  O   O24       1.0  0.19075  0.66664  0.9471700000000002  1.0000
  O   O25       1.0  0.44413999999999987  0.12569  0.4374600000000001  1.0000
  O   O26       1.0  0.11081999999999999  0.35455  0.12583  1.0000
  O   O27       1.0  0.7464599999999999  0.25585  0.53501  1.0000
  O   O28       1.0  0.46751  0.88704  0.39454  1.0000
