data_image0
_chemical_formula_structural       Eu2H22C44O16
_chemical_formula_sum              "Eu2 H22 C44 O16"
_cell_length_a       10.53003
_cell_length_b       11.39822
_cell_length_c       11.1454
_cell_angle_alpha    103.87441
_cell_angle_beta     107.07776
_cell_angle_gamma    101.46751000000002

_symmetry_space_group_name_H-M    'P 1'
_symmetry_Int_Tables_number       1

loop_
  _symmetry_equiv_pos_as_xyz
  'x,y,z'

loop_
  _atom_site_type_symbol
  _atom_site_label
  _atom_site_symmetry_multiplicity
  _atom_site_fract_x
  _atom_site_fract_y
  _atom_site_fract_z
  _atom_site_occupancy
  Eu  Eu1       1.0  0.9067000000000001  0.44394000000000006  0.11391000000000003  1.0000
  Eu  Eu2       1.0  0.09329  0.55607  0.88609  1.0000
  H   H1        1.0  0.15264000000000005  0.8502100000000002  0.016420000000000004  1.0000
  H   H2        1.0  0.34460000000000013  0.26393  0.40501000000000004  1.0000
  H   H3        1.0  0.19518000000000005  0.36181  0.27124  1.0000
  H   H4        1.0  0.5413499999999999  0.54589  0.186  1.0000
  H   H5        1.0  0.71962  0.24999000000000002  0.30573000000000006  1.0000
  H   H6        1.0  0.8447100000000001  0.11525  0.40582  1.0000
  H   H7        1.0  0.6498900000000002  0.15339000000000005  0.6974200000000003  1.0000
  H   H8        1.0  0.5208600000000002  0.28473000000000004  0.5951300000000002  1.0000
  H   H9        1.0  0.7808700000000001  0.89134  0.45278  1.0000
  H   H10       1.0  0.9136  0.76939  0.57272  1.0000
  H   H11       1.0  0.06063999999999998  0.08283999999999998  0.93278  1.0000
  H   H12       1.0  0.84735  0.14979000000000003  0.9835800000000001  1.0000
  H   H13       1.0  0.65539  0.73607  0.59499  1.0000
  H   H14       1.0  0.8048100000000002  0.6381900000000001  0.72876  1.0000
  H   H15       1.0  0.45864  0.45411000000000007  0.8140000000000002  1.0000
  H   H16       1.0  0.28036  0.7500100000000001  0.69427  1.0000
  H   H17       1.0  0.1552700000000001  0.8847400000000002  0.5941700000000001  1.0000
  H   H18       1.0  0.3501  0.84661  0.30258  1.0000
  H   H19       1.0  0.47913000000000006  0.71527  0.40486000000000005  1.0000
  H   H20       1.0  0.21912  0.10866000000000002  0.54722  1.0000
  H   H21       1.0  0.08638000000000005  0.23061000000000006  0.4272700000000001  1.0000
  H   H22       1.0  0.9393500000000001  0.9171600000000002  0.06721  1.0000
  C   C1        1.0  0.73988  0.4891000000000001  0.35463000000000006  1.0000
  C   C2        1.0  0.58714  0.43819000000000013  0.3205  1.0000
  C   C3        1.0  0.5307000000000001  0.3516000000000001  0.37805  1.0000
  C   C4        1.0  0.38937  0.32881000000000005  0.36092  1.0000
  C   C5        1.0  0.30415  0.38155  0.28276000000000007  1.0000
  C   C6        1.0  0.35768000000000005  0.45655000000000007  0.21514  1.0000
  C   C7        1.0  0.4995000000000001  0.4861100000000003  0.23647000000000007  1.0000
  C   C8        1.0  0.26469000000000004  0.50152  0.11827000000000003  1.0000
  C   C9        1.0  0.61172  0.27846  0.4438  1.0000
  C   C10       1.0  0.70408  0.22934000000000004  0.39163000000000003  1.0000
  C   C11       1.0  0.7735100000000003  0.15223000000000003  0.4468  1.0000
  C   C12       1.0  0.75696  0.12541000000000002  0.55881  1.0000
  C   C13       1.0  0.6643500000000001  0.17379000000000006  0.61102  1.0000
  C   C14       1.0  0.59155  0.24759  0.55337  1.0000
  C   C15       1.0  0.84078  0.05381000000000003  0.6254400000000002  1.0000
  C   C16       1.0  0.8425800000000002  0.9330500000000003  0.55794  1.0000
  C   C17       1.0  0.9175100000000002  0.8650500000000001  0.62441  1.0000
  C   C18       1.0  0.9955200000000002  0.9190700000000004  0.7606200000000002  1.0000
  C   C19       1.0  0.9984400000000001  0.041  0.82802  1.0000
  C   C20       1.0  0.92147  0.10751000000000008  0.7618200000000002  1.0000
  C   C21       1.0  0.93421  0.24069000000000004  0.8359800000000001  1.0000
  C   C22       1.0  0.06644000000000001  0.84605  0.83672  1.0000
  C   C23       1.0  0.2601200000000001  0.5109000000000002  0.6453600000000002  1.0000
  C   C24       1.0  0.41285000000000005  0.5618  0.6795000000000002  1.0000
  C   C25       1.0  0.46930000000000005  0.6484000000000002  0.62195  1.0000
  C   C26       1.0  0.6106200000000002  0.67119  0.6390700000000002  1.0000
  C   C27       1.0  0.6958400000000001  0.6184500000000002  0.71724  1.0000
  C   C28       1.0  0.64231  0.54345  0.78486  1.0000
  C   C29       1.0  0.50049  0.51389  0.76353  1.0000
  C   C30       1.0  0.7353000000000001  0.49847000000000014  0.88173  1.0000
  C   C31       1.0  0.38827000000000006  0.7215400000000001  0.55619  1.0000
  C   C32       1.0  0.29591  0.7706500000000001  0.60836  1.0000
  C   C33       1.0  0.22648  0.84777  0.5532000000000001  1.0000
  C   C34       1.0  0.24303  0.87459  0.44118000000000007  1.0000
  C   C35       1.0  0.33564  0.8262100000000001  0.38898  1.0000
  C   C36       1.0  0.40844000000000014  0.7524000000000002  0.4466300000000001  1.0000
  C   C37       1.0  0.15921000000000007  0.9461900000000002  0.37455000000000005  1.0000
  C   C38       1.0  0.15741  0.06694999999999998  0.44205  1.0000
  C   C39       1.0  0.08248000000000005  0.13495  0.37558  1.0000
  C   C40       1.0  0.004470000000000021  0.08093000000000003  0.23937000000000005  1.0000
  C   C41       1.0  0.0015500000000000375  0.9590000000000001  0.17198000000000002  1.0000
  C   C42       1.0  0.07852000000000002  0.8924900000000001  0.23817000000000002  1.0000
  C   C43       1.0  0.06577999999999999  0.75931  0.16402  1.0000
  C   C44       1.0  0.9335400000000001  0.15393999999999997  0.16327  1.0000
  O   O1        1.0  0.78821  0.47043000000000007  0.26096  1.0000
  O   O2        1.0  0.8125200000000001  0.55295  0.47257  1.0000
  O   O3        1.0  0.04997000000000004  0.7307600000000002  0.7885300000000001  1.0000
  O   O4        1.0  0.14459999999999998  0.91206  0.96191  1.0000
  O   O5        1.0  0.8800100000000002  0.25635  0.92655  1.0000
  O   O6        1.0  0.9992000000000001  0.32734  0.80628  1.0000
  O   O7        1.0  0.1351  0.47653000000000006  0.10346  1.0000
  O   O8        1.0  0.31334000000000006  0.55924  0.049850000000000005  1.0000
  O   O9        1.0  0.21178  0.52958  0.73903  1.0000
  O   O10       1.0  0.18747000000000008  0.44705  0.5274200000000001  1.0000
  O   O11       1.0  0.9500199999999998  0.26925  0.21147  1.0000
  O   O12       1.0  0.85539  0.08794000000000002  0.03808  1.0000
  O   O13       1.0  0.11996999999999998  0.74365  0.07345000000000002  1.0000
  O   O14       1.0  0.0007900000000000188  0.67266  0.19371000000000005  1.0000
  O   O15       1.0  0.86489  0.5234700000000001  0.8965300000000002  1.0000
  O   O16       1.0  0.68665  0.4407500000000001  0.9501400000000002  1.0000
