data_image0
_chemical_formula_structural       Ag6H48C24N16
_chemical_formula_sum              "Ag6 H48 C24 N16"
_cell_length_a       12.15414
_cell_length_b       11.73069
_cell_length_c       8.40293
_cell_angle_alpha    120.44535
_cell_angle_beta     108.86496
_cell_angle_gamma    94.964

_symmetry_space_group_name_H-M    'P 1'
_symmetry_Int_Tables_number       1

loop_
  _symmetry_equiv_pos_as_xyz
  'x,y,z'

loop_
  _atom_site_type_symbol
  _atom_site_label
  _atom_site_symmetry_multiplicity
  _atom_site_fract_x
  _atom_site_fract_y
  _atom_site_fract_z
  _atom_site_occupancy
  Ag  Ag1       1.0  0.51341  0.51245  0.8964699999999999  1.0000
  Ag  Ag2       1.0  0.9598300000000001  0.7021699999999997  0.34203  1.0000
  Ag  Ag3       1.0  0.04392999999999992  0.3047699999999999  0.7827599999999998  1.0000
  Ag  Ag4       1.0  0.5060900000000002  0.6379499999999999  0.4731  1.0000
  Ag  Ag5       1.0  0.9545100000000002  0.49653999999999987  0.9797999999999998  1.0000
  Ag  Ag6       1.0  0.75288  0.58689  0.013469999999999996  1.0000
  H   H1        1.0  0.8635800000000002  0.05681  0.51465  1.0000
  H   H2        1.0  0.75425  0.8894499999999999  0.304  1.0000
  H   H3        1.0  0.55925  0.8257  0.29913  1.0000
  H   H4        1.0  0.52532  0.9430099999999999  0.5062399999999999  1.0000
  H   H5        1.0  0.6742099999999999  0.1650099999999999  0.7880499999999998  1.0000
  H   H6        1.0  0.8194300000000001  0.20953999999999995  0.7885899999999999  1.0000
  H   H7        1.0  0.73498  0.8986799999999999  0.87731  1.0000
  H   H8        1.0  0.6266999999999999  0.9857699999999998  0.8334299999999998  1.0000
  H   H9        1.0  0.9353400000000001  0.96482  0.8815499999999998  1.0000
  H   H10       1.0  0.9651699999999999  0.09884999999999992  0.8431699999999999  1.0000
  H   H11       1.0  0.7865900000000001  0.74564  0.60344  1.0000
  H   H12       1.0  0.7101200000000001  0.71106  0.3539299999999999  1.0000
  H   H13       1.0  0.36598  0.008069999999999996  0.3923  1.0000
  H   H14       1.0  0.37870000000000004  0.10101999999999998  0.64753  1.0000
  H   H15       1.0  0.19939  0.05653999999999991  0.7048099999999998  1.0000
  H   H16       1.0  0.05900999999999998  0.9314  0.4914799999999999  1.0000
  H   H17       1.0  0.04796  0.8059099999999998  0.15082  1.0000
  H   H18       1.0  0.18074  0.84315  0.11575  1.0000
  H   H19       1.0  0.99644  0.14057999999999998  0.28918  1.0000
  H   H20       1.0  0.9446000000000002  0.97878  0.25495  1.0000
  H   H21       1.0  0.17451  0.18622999999999992  0.23569999999999994  1.0000
  H   H22       1.0  0.25173  0.05780999999999999  0.15967  1.0000
  H   H23       1.0  0.19029000000000001  0.3116199999999999  0.579  1.0000
  H   H24       1.0  0.27499  0.27171999999999996  0.75023  1.0000
  H   H25       1.0  0.37616  0.4981699999999999  0.6072999999999998  1.0000
  H   H26       1.0  0.25369  0.44068999999999997  0.36713999999999997  1.0000
  H   H27       1.0  0.06122  0.47286  0.35141  1.0000
  H   H28       1.0  0.03795000000000002  0.55636  0.57954  1.0000
  H   H29       1.0  0.20527  0.63719  0.9043099999999997  1.0000
  H   H30       1.0  0.3508299999999998  0.6163099999999998  0.9115899999999998  1.0000
  H   H31       1.0  0.23322  0.9008  0.7893  1.0000
  H   H32       1.0  0.13608999999999996  0.80559  0.8297399999999998  1.0000
  H   H33       1.0  0.42572000000000004  0.8667099999999999  0.80471  1.0000
  H   H34       1.0  0.47637  0.74734  0.86318  1.0000
  H   H35       1.0  0.26203  0.7847499999999997  0.47966999999999993  1.0000
  H   H36       1.0  0.18990000000000004  0.6021399999999999  0.29548  1.0000
  H   H37       1.0  0.74383  0.5562899999999998  0.49163  1.0000
  H   H38       1.0  0.71538  0.51985  0.66042  1.0000
  H   H39       1.0  0.52245  0.37053  0.55447  1.0000
  H   H40       1.0  0.40659  0.28822  0.30139  1.0000
  H   H41       1.0  0.4395300000000001  0.33133  0.06972  1.0000
  H   H42       1.0  0.57923  0.44418999999999986  0.14018  1.0000
  H   H43       1.0  0.56802  0.05943  0.058259999999999985  1.0000
  H   H44       1.0  0.4311200000000001  0.10794  0.0146  1.0000
  H   H45       1.0  0.75919  0.21515  0.15556  1.0000
  H   H46       1.0  0.7623000000000001  0.38039  0.19844  1.0000
  H   H47       1.0  0.7223  0.16664999999999994  0.3902499999999999  1.0000
  H   H48       1.0  0.70752  0.3016  0.60511  1.0000
  C   C1        1.0  0.7912  0.9680699999999999  0.46897999999999995  1.0000
  C   C2        1.0  0.59771  0.90427  0.46332  1.0000
  C   C3        1.0  0.74593  0.12397  0.74508  1.0000
  C   C4        1.0  0.7002  0.9464799999999999  0.79673  1.0000
  C   C5        1.0  0.89412  0.010339999999999926  0.7995399999999998  1.0000
  C   C6        1.0  0.74847  0.79057  0.51994  1.0000
  C   C7        1.0  0.31757  0.05576000000000003  0.48748  1.0000
  C   C8        1.0  0.14165  0.011509999999999994  0.54303  1.0000
  C   C9        1.0  0.1289  0.8884399999999999  0.20547  1.0000
  C   C10       1.0  0.02541  0.05933000000000002  0.30554  1.0000
  C   C11       1.0  0.20166  0.10457999999999998  0.25232  1.0000
  C   C12       1.0  0.21641  0.22754999999999992  0.5898999999999999  1.0000
  C   C13       1.0  0.29687  0.52082  0.53161  1.0000
  C   C14       1.0  0.10477999999999997  0.55458  0.5167999999999999  1.0000
  C   C15       1.0  0.26888  0.6374  0.83781  1.0000
  C   C16       1.0  0.20259  0.8003299999999999  0.7667299999999999  1.0000
  C   C17       1.0  0.39652  0.76793  0.78589  1.0000
  C   C18       1.0  0.23379  0.68497  0.4593799999999999  1.0000
  C   C19       1.0  0.69844  0.47576999999999997  0.50042  1.0000
  C   C20       1.0  0.50537  0.32391  0.3935  1.0000
  C   C21       1.0  0.5385800000000001  0.36597  0.15834999999999996  1.0000
  C   C22       1.0  0.53022  0.14675999999999997  0.10945999999999999  1.0000
  C   C23       1.0  0.72042  0.30028  0.21164999999999998  1.0000
  C   C24       1.0  0.68696  0.25534  0.44368  1.0000
  N   N1        1.0  0.69379  0.020099999999999972  0.5223599999999999  1.0000
  N   N2        1.0  0.79777  0.06246000000000001  0.85847  1.0000
  N   N3        1.0  0.64633  0.83677  0.57169  1.0000
  N   N4        1.0  0.8465100000000001  0.9046799999999999  0.57685  1.0000
  N   N5        1.0  0.20897999999999997  0.9468299999999998  0.42123999999999995  1.0000
  N   N6        1.0  0.09051999999999996  0.9954499999999998  0.17725  1.0000
  N   N7        1.0  0.10386999999999998  0.12271999999999998  0.52532  1.0000
  N   N8        1.0  0.2838700000000001  0.16702  0.46757  1.0000
  N   N9        1.0  0.20948999999999998  0.5249599999999999  0.61769  1.0000
  N   N10       1.0  0.3090399999999999  0.7743099999999999  0.8738999999999998  1.0000
  N   N11       1.0  0.14254  0.6907299999999997  0.5447499999999998  1.0000
  N   N12       1.0  0.34184  0.6560499999999999  0.56215  1.0000
  N   N13       1.0  0.5635699999999999  0.43338999999999994  0.37717  1.0000
  N   N14       1.0  0.58695  0.24873  0.08264999999999999  1.0000
  N   N15       1.0  0.55309  0.20546999999999993  0.32249999999999995  1.0000
  N   N16       1.0  0.7481  0.3605399999999999  0.4272199999999999  1.0000
