data_image0
_chemical_formula_structural       Mn4Mo2H8C24N20
_chemical_formula_sum              "Mn4 Mo2 H8 C24 N20"
_cell_length_a       7.3773
_cell_length_b       9.99149
_cell_length_c       13.16556
_cell_angle_alpha    89.95907
_cell_angle_beta     90.00637999999998
_cell_angle_gamma    94.07047

_space_group_name_H-M_alt    "P 1"
_space_group_IT_number       1

loop_
  _space_group_symop_operation_xyz
  'x, y, z'

loop_
  _atom_site_type_symbol
  _atom_site_label
  _atom_site_symmetry_multiplicity
  _atom_site_fract_x
  _atom_site_fract_y
  _atom_site_fract_z
  _atom_site_occupancy
  Mn  Mn1       1.0  0.4971599999999999  0.57016  0.4387699999999999  1.0000
  Mn  Mn2       1.0  0.026319999999999982  0.8613  0.07886  1.0000
  Mn  Mn3       1.0  0.50103  0.43029  0.9379799999999998  1.0000
  Mn  Mn4       1.0  0.9739699999999998  0.14032  0.5786699999999999  1.0000
  Mo  Mo1       1.0  0.9645099999999998  0.35642  0.21528999999999995  1.0000
  Mo  Mo2       1.0  0.033719999999999986  0.64505  0.7149499999999998  1.0000
  H   H1        1.0  0.7160899999999998  0.06945  0.07568  1.0000
  H   H2        1.0  0.37704  0.07082  0.08624999999999997  1.0000
  H   H3        1.0  0.3350399999999999  0.65386  0.10153999999999998  1.0000
  H   H4        1.0  0.67615  0.653  0.10016999999999997  1.0000
  H   H5        1.0  0.2830499999999999  0.93192  0.5762599999999999  1.0000
  H   H6        1.0  0.62209  0.93066  0.58663  1.0000
  H   H7        1.0  0.6638799999999998  0.34773999999999994  0.6001  1.0000
  H   H8        1.0  0.32263  0.34836999999999996  0.5990499999999999  1.0000
  C   C1        1.0  0.7063499999999998  0.24626  0.2386  1.0000
  C   C2        1.0  0.99632  0.56292  0.17441999999999996  1.0000
  C   C3        1.0  0.7976299999999997  0.48079  0.29786999999999997  1.0000
  C   C4        1.0  0.19226999999999989  0.41493  0.30804  1.0000
  C   C5        1.0  0.19374999999999998  0.38042  0.11263999999999998  1.0000
  C   C6        1.0  0.8078799999999998  0.3545  0.07921999999999997  1.0000
  C   C7        1.0  0.02306  0.16012  0.16836999999999994  1.0000
  C   C8        1.0  0.97204  0.24995  0.35405  1.0000
  C   C9        1.0  0.6321199999999998  0.97609  0.08155  1.0000
  C   C10       1.0  0.4429099999999999  0.97688  0.08538999999999998  1.0000
  C   C11       1.0  0.42059999999999986  0.74668  0.09585999999999997  1.0000
  C   C12       1.0  0.6090599999999998  0.7461  0.09430999999999998  1.0000
  C   C13       1.0  0.29211999999999994  0.75422  0.7386599999999998  1.0000
  C   C14       1.0  0.0024699999999999956  0.43901999999999997  0.6731399999999997  1.0000
  C   C15       1.0  0.20045999999999994  0.52012  0.7972099999999999  1.0000
  C   C16       1.0  0.80583  0.58623  0.80735  1.0000
  C   C17       1.0  0.8038299999999998  0.62159  0.6129099999999997  1.0000
  C   C18       1.0  0.18987999999999994  0.64783  0.5784099999999998  1.0000
  C   C19       1.0  0.9754899999999995  0.84195  0.6691799999999999  1.0000
  C   C20       1.0  0.026809999999999987  0.75029  0.8542899999999999  1.0000
  C   C21       1.0  0.3670699999999999  0.02529  0.5817299999999999  1.0000
  C   C22       1.0  0.55627  0.02461  0.5854999999999999  1.0000
  C   C23       1.0  0.57843  0.25484  0.59492  1.0000
  C   C24       1.0  0.3899799999999999  0.25537  0.59349  1.0000
  N   N1        1.0  0.56606  0.18639999999999998  0.25366  1.0000
  N   N2        1.0  0.011179999999999999  0.67644  0.15037999999999996  1.0000
  N   N3        1.0  0.6988699999999998  0.5525899999999999  0.3376499999999999  1.0000
  N   N4        1.0  0.3166299999999999  0.4451899999999999  0.36151  1.0000
  N   N5        1.0  0.31884  0.40573999999999993  0.05881999999999998  1.0000
  N   N6        1.0  0.70868  0.34397  0.00886  1.0000
  N   N7        1.0  0.04476  0.05197  0.13753  1.0000
  N   N8        1.0  0.9735899999999997  0.18788999999999997  0.42987  1.0000
  N   N9        1.0  0.7155199999999999  0.8612399999999999  0.08767999999999998  1.0000
  N   N10       1.0  0.3372799999999999  0.86236  0.09281999999999997  1.0000
  N   N11       1.0  0.4327999999999999  0.81346  0.75409  1.0000
  N   N12       1.0  0.98799  0.3256899999999999  0.6486799999999998  1.0000
  N   N13       1.0  0.29927  0.44814  0.8367999999999999  1.0000
  N   N14       1.0  0.6811799999999999  0.5559  0.8606299999999998  1.0000
  N   N15       1.0  0.6778699999999998  0.59611  0.55975  1.0000
  N   N16       1.0  0.2890399999999999  0.6585299999999998  0.5080299999999999  1.0000
  N   N17       1.0  0.9540399999999998  0.9506999999999998  0.63932  1.0000
  N   N18       1.0  0.02593  0.81173  0.9303599999999997  1.0000
  N   N19       1.0  0.28365999999999997  0.14015  0.5874799999999999  1.0000
  N   N20       1.0  0.6618499999999999  0.13922  0.5922199999999999  1.0000
