data_image0
_chemical_formula_structural       Y4H16C36O24
_chemical_formula_sum              "Y4 H16 C36 O24"
_cell_length_a       9.42833
_cell_length_b       14.54122
_cell_length_c       16.16641
_cell_angle_alpha    90.0
_cell_angle_beta     90.0
_cell_angle_gamma    107.17541

_space_group_name_H-M_alt    "P 1"
_space_group_IT_number       1

loop_
  _space_group_symop_operation_xyz
  'x, y, z'

loop_
  _atom_site_type_symbol
  _atom_site_label
  _atom_site_symmetry_multiplicity
  _atom_site_fract_x
  _atom_site_fract_y
  _atom_site_fract_z
  _atom_site_occupancy
  Y   Y1        1.0  0.8315800000000001  0.54075  0.00887  1.0000
  Y   Y2        1.0  0.6684300000000001  0.9592499999999999  0.50886  1.0000
  Y   Y3        1.0  0.16842  0.45925  0.99113  1.0000
  Y   Y4        1.0  0.33158  0.04075  0.4911300000000001  1.0000
  H   H1        1.0  0.31148  0.6273  0.817  1.0000
  H   H2        1.0  0.44505000000000006  0.72744  0.69872  1.0000
  H   H3        1.0  0.11232000000000004  0.87539  0.68864  1.0000
  H   H4        1.0  0.97876  0.77596  0.80774  1.0000
  H   H5        1.0  0.18853000000000006  0.8727  0.3170100000000001  1.0000
  H   H6        1.0  0.05496000000000003  0.77256  0.19872  1.0000
  H   H7        1.0  0.38769  0.62461  0.18864000000000006  1.0000
  H   H8        1.0  0.52125  0.7240399999999999  0.30774  1.0000
  H   H9        1.0  0.68853  0.3727  0.18299  1.0000
  H   H10       1.0  0.5549600000000002  0.27256  0.30128  1.0000
  H   H11       1.0  0.88769  0.12461  0.31136000000000014  1.0000
  H   H12       1.0  0.021240000000000005  0.22404  0.19225  1.0000
  H   H13       1.0  0.81148  0.1273  0.68299  1.0000
  H   H14       1.0  0.94505  0.22744  0.8012800000000002  1.0000
  H   H15       1.0  0.61232  0.37539  0.81136  1.0000
  H   H16       1.0  0.4787600000000001  0.27596  0.69225  1.0000
  C   C1        1.0  0.13722000000000012  0.6965100000000001  0.81915  1.0000
  C   C2        1.0  0.26798  0.68127  0.7885500000000002  1.0000
  C   C3        1.0  0.34273  0.73717  0.7228200000000002  1.0000
  C   C4        1.0  0.28664  0.80725  0.6869700000000002  1.0000
  C   C5        1.0  0.15435  0.82092  0.71702  1.0000
  C   C6        1.0  0.08047000000000003  0.76613  0.7829  1.0000
  C   C7        1.0  0.05328999999999999  0.64054  0.8895100000000002  1.0000
  C   C8        1.0  0.3664  0.86986  0.61828  1.0000
  C   C9        1.0  0.50808  0.53111  0.9602700000000002  1.0000
  C   C10       1.0  0.36279  0.80349  0.3191500000000001  1.0000
  C   C11       1.0  0.23203  0.81873  0.2885500000000001  1.0000
  C   C12       1.0  0.15727999999999995  0.7628299999999999  0.22282  1.0000
  C   C13       1.0  0.21337  0.69275  0.18697  1.0000
  C   C14       1.0  0.34566000000000013  0.67908  0.21702  1.0000
  C   C15       1.0  0.4195400000000001  0.73387  0.2829000000000001  1.0000
  C   C16       1.0  0.44671000000000005  0.85946  0.38951  1.0000
  C   C17       1.0  0.13359999999999994  0.63014  0.11828  1.0000
  C   C18       1.0  0.9919399999999999  0.9688999999999999  0.46027  1.0000
  C   C19       1.0  0.86278  0.30349  0.18085  1.0000
  C   C20       1.0  0.73203  0.31873  0.21145  1.0000
  C   C21       1.0  0.65728  0.26283  0.27718  1.0000
  C   C22       1.0  0.71337  0.19275  0.31303  1.0000
  C   C23       1.0  0.84566  0.17908  0.28298  1.0000
  C   C24       1.0  0.9195400000000001  0.23386999999999997  0.21710000000000004  1.0000
  C   C25       1.0  0.94671  0.35946000000000006  0.11049000000000003  1.0000
  C   C26       1.0  0.6336  0.13014  0.38172  1.0000
  C   C27       1.0  0.49194000000000004  0.4689  0.039730000000000015  1.0000
  C   C28       1.0  0.63722  0.19651  0.6808500000000002  1.0000
  C   C29       1.0  0.76798  0.18126999999999996  0.7114400000000002  1.0000
  C   C30       1.0  0.84273  0.23717  0.77718  1.0000
  C   C31       1.0  0.78664  0.30725  0.81302  1.0000
  C   C32       1.0  0.65435  0.32092  0.7829800000000002  1.0000
  C   C33       1.0  0.5804700000000002  0.26613  0.7171  1.0000
  C   C34       1.0  0.5532900000000001  0.14054  0.61049  1.0000
  C   C35       1.0  0.8664  0.36985999999999997  0.8817100000000002  1.0000
  C   C36       1.0  0.008070000000000004  0.03111  0.53973  1.0000
  O   O1        1.0  0.9408400000000001  0.66211  0.91706  1.0000
  O   O2        1.0  0.09153  0.56972  0.92095  1.0000
  O   O3        1.0  0.30016  0.92609  0.5852700000000002  1.0000
  O   O4        1.0  0.49443000000000004  0.86561  0.5960200000000002  1.0000
  O   O5        1.0  0.38856000000000007  0.52652  0.92134  1.0000
  O   O6        1.0  0.63767  0.58094  0.94114  1.0000
  O   O7        1.0  0.55917  0.83789  0.41706  1.0000
  O   O8        1.0  0.40848  0.93028  0.42095  1.0000
  O   O9        1.0  0.19985000000000006  0.57391  0.08528000000000002  1.0000
  O   O10       1.0  0.005580000000000012  0.63439  0.09602  1.0000
  O   O11       1.0  0.11143999999999997  0.9734800000000001  0.42134  1.0000
  O   O12       1.0  0.86233  0.91906  0.4411400000000001  1.0000
  O   O13       1.0  0.05916999999999997  0.33788999999999997  0.08294  1.0000
  O   O14       1.0  0.9084799999999998  0.43028  0.07905  1.0000
  O   O15       1.0  0.69985  0.07391  0.41472  1.0000
  O   O16       1.0  0.50558  0.13439  0.4039800000000001  1.0000
  O   O17       1.0  0.61144  0.47348  0.07866  1.0000
  O   O18       1.0  0.36233000000000004  0.41905999999999993  0.058860000000000016  1.0000
  O   O19       1.0  0.44083999999999995  0.16211  0.58294  1.0000
  O   O20       1.0  0.59153  0.06972  0.57905  1.0000
  O   O21       1.0  0.8001599999999999  0.42609  0.91472  1.0000
  O   O22       1.0  0.99443  0.36560999999999994  0.90398  1.0000
  O   O23       1.0  0.88856  0.02652  0.57866  1.0000
  O   O24       1.0  0.13767  0.08094  0.55885  1.0000
