data_image0
_chemical_formula_structural       Cd4H12C36N16O16
_chemical_formula_sum              "Cd4 H12 C36 N16 O16"
_cell_length_a       10.46442
_cell_length_b       11.48031
_cell_length_c       12.971140000000002
_cell_angle_alpha    90.09206
_cell_angle_beta     89.96051
_cell_angle_gamma    110.79833000000002

_space_group_name_H-M_alt    "P 1"
_space_group_IT_number       1

loop_
  _space_group_symop_operation_xyz
  'x, y, z'

loop_
  _atom_site_type_symbol
  _atom_site_label
  _atom_site_symmetry_multiplicity
  _atom_site_fract_x
  _atom_site_fract_y
  _atom_site_fract_z
  _atom_site_occupancy
  Cd  Cd1       1.0  0.21158000000000005  0.77084  0.8677600000000002  1.0000
  Cd  Cd2       1.0  0.7896000000000001  0.7305  0.36773  1.0000
  Cd  Cd3       1.0  0.78837  0.22937000000000005  0.13217  1.0000
  Cd  Cd4       1.0  0.21033  0.26985  0.63241  1.0000
  H   H1        1.0  0.72365  0.76811  0.8516800000000002  1.0000
  H   H2        1.0  0.56205  0.91412  0.10685000000000003  1.0000
  H   H3        1.0  0.9656400000000002  0.89145  0.12561  1.0000
  H   H4        1.0  0.27668000000000004  0.73341  0.35202  1.0000
  H   H5        1.0  0.4384  0.58689  0.6062  1.0000
  H   H6        1.0  0.034310000000000014  0.60853  0.6254700000000001  1.0000
  H   H7        1.0  0.2761700000000001  0.23151000000000002  0.14843  1.0000
  H   H8        1.0  0.43798000000000004  0.08591  0.89317  1.0000
  H   H9        1.0  0.03433000000000001  0.10842000000000003  0.87437  1.0000
  H   H10       1.0  0.7239100000000002  0.26763  0.64782  1.0000
  H   H11       1.0  0.56115  0.4130400000000001  0.39348  1.0000
  H   H12       1.0  0.9656100000000001  0.39230000000000004  0.37408  1.0000
  C   C1        1.0  0.8553400000000001  0.82578  0.9844  1.0000
  C   C2        1.0  0.7353400000000001  0.80717  0.9290900000000002  1.0000
  C   C3        1.0  0.62972  0.8395600000000001  0.9738200000000002  1.0000
  C   C4        1.0  0.64493  0.89061  0.07299  1.0000
  C   C5        1.0  0.7643000000000001  0.9072800000000001  0.12938  1.0000
  C   C6        1.0  0.86993  0.87471  0.08465000000000002  1.0000
  C   C7        1.0  0.96913  0.79412  0.9383600000000002  1.0000
  C   C8        1.0  0.5009400000000002  0.8210800000000003  0.9161900000000001  1.0000
  C   C9        1.0  0.78117  0.96636  0.23062  1.0000
  C   C10       1.0  0.14505000000000004  0.6752000000000001  0.48459  1.0000
  C   C11       1.0  0.26519  0.69433  0.4293400000000001  1.0000
  C   C12       1.0  0.37089000000000005  0.6622300000000001  0.47393000000000013  1.0000
  C   C13       1.0  0.3554  0.61043  0.5727600000000002  1.0000
  C   C14       1.0  0.23578000000000005  0.59301  0.62907  1.0000
  C   C15       1.0  0.13009  0.62549  0.58452  1.0000
  C   C16       1.0  0.03217999999999999  0.70816  0.43861  1.0000
  C   C17       1.0  0.50009  0.6818  0.41644  1.0000
  C   C18       1.0  0.21907000000000001  0.53406  0.7302700000000002  1.0000
  C   C19       1.0  0.14451000000000003  0.17399  0.01566  1.0000
  C   C20       1.0  0.2645  0.19252  0.07099  1.0000
  C   C21       1.0  0.37017000000000005  0.16028  0.02622  1.0000
  C   C22       1.0  0.35503  0.10932  0.9270200000000002  1.0000
  C   C23       1.0  0.23567  0.09265  0.8706500000000003  1.0000
  C   C24       1.0  0.12998  0.12512  0.91539  1.0000
  C   C25       1.0  0.03096  0.2061  0.06166000000000001  1.0000
  C   C26       1.0  0.4990000000000001  0.17889  0.08380000000000003  1.0000
  C   C27       1.0  0.21883  0.03378  0.7693300000000001  1.0000
  C   C28       1.0  0.85525  0.32593  0.5152100000000001  1.0000
  C   C29       1.0  0.7350500000000001  0.30649  0.57045  1.0000
  C   C30       1.0  0.62906  0.3381  0.5257900000000001  1.0000
  C   C31       1.0  0.64432  0.38971  0.42687  1.0000
  C   C32       1.0  0.76397  0.40734  0.3705600000000001  1.0000
  C   C33       1.0  0.8699200000000001  0.37531  0.41517000000000004  1.0000
  C   C34       1.0  0.96852  0.29381000000000007  0.5614600000000001  1.0000
  C   C35       1.0  0.49977000000000005  0.31804  0.58333  1.0000
  C   C36       1.0  0.7808100000000001  0.4663500000000001  0.26935  1.0000
  N   N1        1.0  0.7694000000000001  0.07792  0.24826000000000004  1.0000
  N   N2        1.0  0.7950900000000001  0.10255000000000002  0.34967  1.0000
  N   N3        1.0  0.81688  0.009180000000000004  0.39375  1.0000
  N   N4        1.0  0.81175  0.9229700000000001  0.32011  1.0000
  N   N5        1.0  0.23051  0.42246  0.74787  1.0000
  N   N6        1.0  0.20578  0.39858000000000005  0.8494900000000002  1.0000
  N   N7        1.0  0.18469  0.49239  0.8936300000000003  1.0000
  N   N8        1.0  0.18961  0.57826  0.81993  1.0000
  N   N9        1.0  0.23043000000000002  0.9222000000000001  0.7515700000000002  1.0000
  N   N10       1.0  0.20474000000000012  0.8977300000000001  0.65014  1.0000
  N   N11       1.0  0.18306  0.99121  0.60617  1.0000
  N   N12       1.0  0.1883  0.07735  0.6799000000000002  1.0000
  N   N13       1.0  0.77069  0.5784900000000001  0.2519100000000001  1.0000
  N   N14       1.0  0.7955  0.60235  0.15029  1.0000
  N   N15       1.0  0.81549  0.50811  0.10601000000000001  1.0000
  N   N16       1.0  0.80963  0.42187  0.17962000000000006  1.0000
  O   O1        1.0  0.49418000000000006  0.8055200000000001  0.8200800000000003  1.0000
  O   O2        1.0  0.3967000000000001  0.82191  0.96928  1.0000
  O   O3        1.0  0.9591200000000001  0.7474  0.84886  1.0000
  O   O4        1.0  0.08082999999999997  0.81899  0.9901000000000002  1.0000
  O   O5        1.0  0.50646  0.69719  0.3203500000000001  1.0000
  O   O6        1.0  0.6046900000000001  0.6819400000000001  0.4694000000000001  1.0000
  O   O7        1.0  0.043390000000000074  0.7546900000000002  0.34909000000000007  1.0000
  O   O8        1.0  0.9205700000000001  0.68482  0.49025000000000013  1.0000
  O   O9        1.0  0.5058799999999999  0.19464  0.17988000000000007  1.0000
  O   O10       1.0  0.60322  0.1781  0.030680000000000006  1.0000
  O   O11       1.0  0.04094000000000002  0.25241  0.1513  1.0000
  O   O12       1.0  0.9194600000000003  0.18211000000000002  0.00979  1.0000
  O   O13       1.0  0.4936  0.30273  0.6793900000000002  1.0000
  O   O14       1.0  0.39491000000000004  0.31754  0.53052  1.0000
  O   O15       1.0  0.9582300000000002  0.24918  0.6516  1.0000
  O   O16       1.0  0.07944000000000001  0.31540000000000007  0.50936  1.0000
