data_image0
_chemical_formula_structural       Eu4H24C24O30
_chemical_formula_sum              "Eu4 H24 C24 O30"
_cell_length_a       9.25171
_cell_length_b       9.29189
_cell_length_c       17.103149999999996
_cell_angle_alpha    89.98485
_cell_angle_beta     90.01474
_cell_angle_gamma    117.67752

_symmetry_space_group_name_H-M    'P 1'
_symmetry_Int_Tables_number       1

loop_
  _symmetry_equiv_pos_as_xyz
  'x,y,z'

loop_
  _atom_site_type_symbol
  _atom_site_label
  _atom_site_symmetry_multiplicity
  _atom_site_fract_x
  _atom_site_fract_y
  _atom_site_fract_z
  _atom_site_occupancy
  Eu  Eu1       1.0  0.9973599999999999  0.99604  0.00052  1.0000
  Eu  Eu2       1.0  0.99684  0.99468  0.50101  1.0000
  Eu  Eu3       1.0  0.6561299999999999  0.3403599999999999  0.75077  1.0000
  Eu  Eu4       1.0  0.3355000000000001  0.6499299999999999  0.25103  1.0000
  H   H1        1.0  0.9500300000000003  0.53357  0.91467  1.0000
  H   H2        1.0  0.7944100000000002  0.49291999999999997  0.9857299999999999  1.0000
  H   H3        1.0  0.9687900000000003  0.58227  0.09777  1.0000
  H   H4        1.0  0.13722000000000006  0.61082  0.03767  1.0000
  H   H5        1.0  0.4035  0.40927  0.90664  1.0000
  H   H6        1.0  0.50565  0.33074  0.9686399999999998  1.0000
  H   H7        1.0  0.5334700000000002  0.95064  0.08535  1.0000
  H   H8        1.0  0.48978000000000005  0.79429  0.014749999999999997  1.0000
  H   H9        1.0  0.57986  0.96883  0.90244  1.0000
  H   H10       1.0  0.61243  0.1373  0.9626700000000001  1.0000
  H   H11       1.0  0.41122000000000003  0.40358  0.09214  1.0000
  H   H12       1.0  0.33047  0.50415  0.03075  1.0000
  H   H13       1.0  0.5331  0.94874  0.4138  1.0000
  H   H14       1.0  0.4910300000000001  0.79574  0.4859899999999999  1.0000
  H   H15       1.0  0.58086  0.96833  0.59736  1.0000
  H   H16       1.0  0.6111800000000002  0.13782  0.53798  1.0000
  H   H17       1.0  0.40957000000000005  0.40487  0.40754  1.0000
  H   H18       1.0  0.33285  0.50586  0.47076999999999997  1.0000
  H   H19       1.0  0.94936  0.53357  0.58514  1.0000
  H   H20       1.0  0.7948100000000001  0.49224000000000007  0.51356  1.0000
  H   H21       1.0  0.97062  0.58198  0.40221  1.0000
  H   H22       1.0  0.14013  0.61344  0.46222  1.0000
  H   H23       1.0  0.4037  0.40967  0.59317  1.0000
  H   H24       1.0  0.5051  0.32924  0.53183  1.0000
  C   C1        1.0  0.7989900000000001  0.65143  0.89321  1.0000
  C   C2        1.0  0.8867  0.58842  0.9483899999999998  1.0000
  C   C3        1.0  0.06566999999999999  0.66962  0.05946  1.0000
  C   C4        1.0  0.17631  0.81941  0.10698  1.0000
  C   C5        1.0  0.33768  0.15594  0.88803  1.0000
  C   C6        1.0  0.38738  0.30296  0.9414000000000001  1.0000
  C   C7        1.0  0.6497400000000002  0.79875  0.10677  1.0000
  C   C8        1.0  0.58704  0.88651  0.05142  1.0000
  C   C9        1.0  0.66936  0.06445  0.9404899999999999  1.0000
  C   C10       1.0  0.81945  0.17309  0.89231  1.0000
  C   C11       1.0  0.15662000000000004  0.3353  0.11198  1.0000
  C   C12       1.0  0.30363  0.38649  0.05781  1.0000
  C   C13       1.0  0.6500800000000001  0.7971399999999998  0.39465  1.0000
  C   C14       1.0  0.58765  0.88673  0.44862  1.0000
  C   C15       1.0  0.66913  0.06531  0.55945  1.0000
  C   C16       1.0  0.8189600000000001  0.17356  0.60786  1.0000
  C   C17       1.0  0.15509  0.34025  0.39021  1.0000
  C   C18       1.0  0.30332  0.38833  0.44285  1.0000
  C   C19       1.0  0.79767  0.65073  0.60557  1.0000
  C   C20       1.0  0.8870100000000001  0.58835  0.5507  1.0000
  C   C21       1.0  0.06747  0.67075  0.44012  1.0000
  C   C22       1.0  0.17622  0.82129  0.39207  1.0000
  C   C23       1.0  0.3364100000000001  0.15641  0.61298  1.0000
  C   C24       1.0  0.38682000000000005  0.3028  0.55868  1.0000
  O   O1        1.0  0.8187800000000001  0.79413  0.90158  1.0000
  O   O2        1.0  0.70477  0.55289  0.84164  1.0000
  O   O3        1.0  0.9986300000000001  0.71949  0.99587  1.0000
  O   O4        1.0  0.26601  0.8035  0.15868  1.0000
  O   O5        1.0  0.17485000000000006  0.95213  0.09166  1.0000
  O   O6        1.0  0.20576999999999998  0.02977  0.90038  1.0000
  O   O7        1.0  0.43834000000000006  0.16986  0.834  1.0000
  O   O8        1.0  0.7915900000000002  0.8146  0.09805  1.0000
  O   O9        1.0  0.54869  0.70833  0.15838  1.0000
  O   O10       1.0  0.7188600000000003  0.9964799999999999  0.00363  1.0000
  O   O11       1.0  0.8020300000000001  0.26408  0.84174  1.0000
  O   O12       1.0  0.95229  0.17016999999999996  0.90544  1.0000
  O   O13       1.0  0.03114000000000001  0.20284  0.09952  1.0000
  O   O14       1.0  0.17188  0.43551  0.16606  1.0000
  O   O15       1.0  0.7924300000000002  0.81423  0.40462  1.0000
  O   O16       1.0  0.55168  0.70448  0.34288  1.0000
  O   O17       1.0  0.7194200000000001  0.9992000000000001  0.49578  1.0000
  O   O18       1.0  0.8002100000000002  0.26376  0.65869  1.0000
  O   O19       1.0  0.95196  0.17125  0.59517  1.0000
  O   O20       1.0  0.030260000000000002  0.20681  0.40083  1.0000
  O   O21       1.0  0.16588  0.44336  0.33792  1.0000
  O   O22       1.0  0.8108200000000001  0.79034  0.59517  1.0000
  O   O23       1.0  0.70976  0.55015  0.65784  1.0000
  O   O24       1.0  0.99959  0.71977  0.50366  1.0000
  O   O25       1.0  0.2694899999999999  0.8069399999999998  0.34146  1.0000
  O   O26       1.0  0.17078999999999997  0.95226  0.40529  1.0000
  O   O27       1.0  0.20285  0.03133  0.59921  1.0000
  O   O28       1.0  0.4360600000000001  0.17129  0.66671  1.0000
  O   O29       1.0  0.26468  0.26416  0.99965  1.0000
  O   O30       1.0  0.26455  0.26452  0.50013  1.0000
