data_image0
_chemical_formula_structural       Gd2H14C26N4O12
_chemical_formula_sum              "Gd2 H14 C26 N4 O12"
_cell_length_a       9.10789
_cell_length_b       9.29268
_cell_length_c       11.978690000000002
_cell_angle_alpha    106.88128
_cell_angle_beta     94.87124999999999
_cell_angle_gamma    105.42523

_space_group_name_H-M_alt    "P 1"
_space_group_IT_number       1

loop_
  _space_group_symop_operation_xyz
  'x, y, z'

loop_
  _atom_site_type_symbol
  _atom_site_label
  _atom_site_symmetry_multiplicity
  _atom_site_fract_x
  _atom_site_fract_y
  _atom_site_fract_z
  _atom_site_occupancy
  Gd  Gd1       1.0  0.27514000000000005  0.5123500000000001  0.95148  1.0000
  Gd  Gd2       1.0  0.7248600000000001  0.48765000000000003  0.04852  1.0000
  H   H1        1.0  0.95122  0.41469  0.57755  1.0000
  H   H2        1.0  0.85717  0.27995  0.36024  1.0000
  H   H3        1.0  0.36758  0.94142  0.03431  1.0000
  H   H4        1.0  0.88659  0.93652  0.18921  1.0000
  H   H5        1.0  0.88809  0.12314  0.17552  1.0000
  H   H6        1.0  0.27814  0.15486000000000003  0.56845  1.0000
  H   H7        1.0  0.18168  0.01530999999999999  0.35261  1.0000
  H   H8        1.0  0.04877000000000006  0.5853100000000002  0.42245  1.0000
  H   H9        1.0  0.14282  0.72005  0.63976  1.0000
  H   H10       1.0  0.63242  0.058580000000000014  0.96569  1.0000
  H   H11       1.0  0.11340999999999997  0.06347999999999994  0.8107899999999999  1.0000
  H   H12       1.0  0.11189999999999999  0.87686  0.8244799999999999  1.0000
  H   H13       1.0  0.7218500000000001  0.8451400000000002  0.43155  1.0000
  H   H14       1.0  0.81831  0.9846900000000001  0.64739  1.0000
  C   C1        1.0  3.0000000000001366e-05  0.32653  0.52747  1.0000
  C   C2        1.0  0.94702  0.24988  0.40625  1.0000
  C   C3        1.0  0.42493000000000003  0.28003000000000006  0.07356999999999998  1.0000
  C   C4        1.0  0.07053999999999999  0.76585  0.07976  1.0000
  C   C5        1.0  0.12124  0.29376  0.58551  1.0000
  C   C6        1.0  0.3  0.16267  0.09744999999999998  1.0000
  C   C7        1.0  0.28856  0.0021499999999999952  0.07306999999999998  1.0000
  C   C8        1.0  0.14843  0.93534  0.103  1.0000
  C   C9        1.0  0.95669  0.05985000000000001  0.2102  1.0000
  C   C10       1.0  0.012730000000000005  0.13852  0.34227  1.0000
  C   C11       1.0  0.18459  0.38102  0.71273  1.0000
  C   C12       1.0  0.18505  0.17979000000000003  0.52205  1.0000
  C   C13       1.0  0.13047  0.10221  0.40145  1.0000
  C   C14       1.0  0.99996  0.67347  0.47253  1.0000
  C   C15       1.0  0.05296999999999998  0.75012  0.59375  1.0000
  C   C16       1.0  0.5750599999999999  0.71997  0.9264299999999998  1.0000
  C   C17       1.0  0.92945  0.23413999999999996  0.9202399999999998  1.0000
  C   C18       1.0  0.87875  0.7062400000000001  0.41449  1.0000
  C   C19       1.0  0.69999  0.83733  0.90255  1.0000
  C   C20       1.0  0.7114300000000001  0.99785  0.92693  1.0000
  C   C21       1.0  0.85157  0.06466000000000001  0.897  1.0000
  C   C22       1.0  0.04330000000000004  0.9401400000000001  0.7897999999999998  1.0000
  C   C23       1.0  0.98727  0.86148  0.65773  1.0000
  C   C24       1.0  0.8154  0.61898  0.28727  1.0000
  C   C25       1.0  0.8149499999999998  0.82021  0.47795  1.0000
  C   C26       1.0  0.8695300000000001  0.8977900000000001  0.5985499999999999  1.0000
  N   N1        1.0  0.08657000000000001  0.05809  0.14549  1.0000
  N   N2        1.0  0.17733  0.19624  0.14312  1.0000
  N   N3        1.0  0.9134300000000001  0.9419100000000001  0.85451  1.0000
  N   N4        1.0  0.82266  0.80376  0.85688  1.0000
  O   O1        1.0  0.15533  0.67407  0.06050999999999999  1.0000
  O   O2        1.0  0.4083300000000001  0.41143000000000013  0.06687  1.0000
  O   O3        1.0  0.13315  0.49219  0.7702599999999998  1.0000
  O   O4        1.0  0.92602  0.72  0.07752  1.0000
  O   O5        1.0  0.29118  0.34456  0.76617  1.0000
  O   O6        1.0  0.55159  0.24937000000000004  0.05824  1.0000
  O   O7        1.0  0.84467  0.32592999999999994  0.9394899999999999  1.0000
  O   O8        1.0  0.59166  0.58857  0.93313  1.0000
  O   O9        1.0  0.86684  0.50781  0.22974  1.0000
  O   O10       1.0  0.07398  0.27999  0.92248  1.0000
  O   O11       1.0  0.7088100000000002  0.6554400000000001  0.23383  1.0000
  O   O12       1.0  0.44841  0.75063  0.94176  1.0000
