data_image0
_chemical_formula_structural       Zn6H18C42O18
_chemical_formula_sum              "Zn6 H18 C42 O18"
_cell_length_a       6.91628
_cell_length_b       21.88567
_cell_length_c       21.885679999999997
_cell_angle_alpha    119.91159
_cell_angle_beta     89.99131
_cell_angle_gamma    90.00869000000002

_symmetry_space_group_name_H-M    'P 1'
_symmetry_Int_Tables_number       1

loop_
  _symmetry_equiv_pos_as_xyz
  'x,y,z'

loop_
  _atom_site_type_symbol
  _atom_site_label
  _atom_site_symmetry_multiplicity
  _atom_site_fract_x
  _atom_site_fract_y
  _atom_site_fract_z
  _atom_site_occupancy
  Zn  Zn1       1.0  0.50006  0.28244  0.6667  1.0000
  Zn  Zn2       1.0  0.83327  0.6667000000000001  0.28243999999999997  1.0000
  Zn  Zn3       1.0  0.16614  0.61764  0.33354  1.0000
  Zn  Zn4       1.0  0.50023  0.71593  0.3823099999999999  1.0000
  Zn  Zn5       1.0  0.16719  0.3335399999999999  0.6176399999999997  1.0000
  Zn  Zn6       1.0  0.8330999999999997  0.38231  0.7159299999999998  1.0000
  H   H1        1.0  0.80439  0.38601  0.8779199999999999  1.0000
  H   H2        1.0  0.0038799999999999998  0.4486500000000001  0.0023299999999999996  1.0000
  H   H3        1.0  0.86236  0.5082  0.12218  1.0000
  H   H4        1.0  0.52894  0.87792  0.38601  1.0000
  H   H5        1.0  0.19563  0.61401  0.49178  1.0000
  H   H6        1.0  0.6629299999999999  0.44639999999999996  0.9977499999999999  1.0000
  H   H7        1.0  0.11617999999999999  0.4582800000000001  0.91051  1.0000
  H   H8        1.0  0.4494799999999999  0.45224000000000003  0.54179  1.0000
  H   H9        1.0  0.3371799999999999  0.55371  0.55145  1.0000
  H   H10       1.0  0.32945999999999986  0.0023299999999999844  0.44865  1.0000
  H   H11       1.0  0.9961499999999999  0.5514500000000001  0.55371  1.0000
  H   H12       1.0  0.6704  0.9977500000000001  0.4464  1.0000
  H   H13       1.0  0.1377  0.49178  0.61401  1.0000
  H   H14       1.0  0.78266  0.08934999999999997  0.54768  1.0000
  H   H15       1.0  0.55067  0.54768  0.08935  1.0000
  H   H16       1.0  0.21716  0.91051  0.45829  1.0000
  H   H17       1.0  0.4709699999999999  0.12218000000000005  0.5082  1.0000
  H   H18       1.0  0.8838499999999998  0.54179  0.4522399999999999  1.0000
  C   C1        1.0  0.20873999999999995  0.17421  0.56088  1.0000
  C   C2        1.0  0.37665  0.45711000000000007  0.96428  1.0000
  C   C3        1.0  0.7330999999999998  0.55788  0.46282  1.0000
  C   C4        1.0  0.043169999999999986  0.035650000000000015  0.49279  1.0000
  C   C5        1.0  0.34649  0.59755  0.4833299999999999  1.0000
  C   C6        1.0  0.45789  0.6134900000000002  0.43903  1.0000
  C   C7        1.0  0.4563299999999999  0.6158700000000001  0.22131  1.0000
  C   C8        1.0  0.6234299999999998  0.5429600000000001  0.50722  1.0000
  C   C9        1.0  0.34366  0.40717999999999993  0.8364099999999999  1.0000
  C   C10       1.0  0.3229699999999999  0.5708  0.16343  1.0000
  C   C11       1.0  0.6002299999999998  0.46282000000000006  0.55788  1.0000
  C   C12       1.0  0.12459999999999997  0.5608800000000002  0.17420999999999998  1.0000
  C   C13       1.0  0.54354  0.38393  0.60588  1.0000
  C   C14       1.0  0.23956999999999995  0.047109999999999964  0.48371  1.0000
  C   C15       1.0  0.29015999999999986  0.49279  0.03565  1.0000
  C   C16       1.0  0.6798099999999999  0.8859000000000002  0.4024599999999999  1.0000
  C   C17       1.0  0.9063099999999998  0.51632  0.56345  1.0000
  C   C18       1.0  0.09376  0.48371  0.04711  1.0000
  C   C19       1.0  0.8769999999999998  0.22131  0.6158699999999999  1.0000
  C   C20       1.0  0.26692  0.44218  0.90505  1.0000
  C   C21       1.0  0.5730599999999999  0.43663  0.9529099999999999  1.0000
  C   C22       1.0  0.7913399999999998  0.8257000000000001  0.38638  1.0000
  C   C23       1.0  0.6562699999999998  0.59279  0.429  1.0000
  C   C24       1.0  0.6770599999999998  0.429  0.5928  1.0000
  C   C25       1.0  0.8754399999999998  0.4390300000000001  0.61349  1.0000
  C   C26       1.0  0.7602699999999999  0.9529100000000001  0.4366399999999999  1.0000
  C   C27       1.0  0.06641999999999999  0.90505  0.44219  1.0000
  C   C28       1.0  0.3998799999999999  0.5370700000000002  0.09481999999999999  1.0000
  C   C29       1.0  0.65352  0.40246  0.8859  1.0000
  C   C30       1.0  0.54199  0.3863799999999999  0.8256999999999998  1.0000
  C   C31       1.0  0.21007999999999993  0.394  0.77835  1.0000
  C   C32       1.0  0.9868399999999998  0.48333  0.59756  1.0000
  C   C33       1.0  0.01322  0.51662  0.11410999999999999  1.0000
  C   C34       1.0  0.42703  0.56345  0.51632  1.0000
  C   C35       1.0  0.9896699999999998  0.83641  0.40718  1.0000
  C   C36       1.0  0.3201099999999999  0.11410999999999998  0.5166199999999999  1.0000
  C   C37       1.0  0.78979  0.60588  0.38393  1.0000
  C   C38       1.0  0.9566799999999998  0.9642800000000002  0.45711  1.0000
  C   C39       1.0  0.12324999999999997  0.7783500000000001  0.39399999999999996  1.0000
  C   C40       1.0  0.01037  0.16342999999999994  0.5707999999999999  1.0000
  C   C41       1.0  0.7099  0.50722  0.54297  1.0000
  C   C42       1.0  0.9334499999999998  0.09482000000000003  0.53707  1.0000
  O   O1        1.0  0.72494  0.6396800000000001  0.35393  1.0000
  O   O2        1.0  0.37176  0.6485400000000002  0.40986  1.0000
  O   O3        1.0  0.63057  0.62358  0.20691999999999994  1.0000
  O   O4        1.0  0.6083899999999998  0.35392  0.63968  1.0000
  O   O5        1.0  0.9420499999999998  0.28497  0.64568  1.0000
  O   O6        1.0  0.03836  0.59021  0.23835  1.0000
  O   O7        1.0  0.9642599999999998  0.5841500000000001  0.3764299999999999  1.0000
  O   O8        1.0  0.6279799999999999  0.3511000000000001  0.76155  1.0000
  O   O9        1.0  0.05757999999999999  0.71476  0.36011999999999994  1.0000
  O   O10       1.0  0.3912799999999999  0.64568  0.28497  1.0000
  O   O11       1.0  0.27575  0.36012000000000005  0.71476  1.0000
  O   O12       1.0  0.7027599999999998  0.20692000000000005  0.62358  1.0000
  O   O13       1.0  0.03551  0.4156  0.79232  1.0000
  O   O14       1.0  0.29497  0.23835  0.59021  1.0000
  O   O15       1.0  0.36907  0.37643000000000004  0.5841499999999998  1.0000
  O   O16       1.0  0.9615699999999998  0.4098499999999999  0.6485399999999999  1.0000
  O   O17       1.0  0.29783  0.79231  0.4156  1.0000
  O   O18       1.0  0.70535  0.76155  0.35111  1.0000
