data_image0
_chemical_formula_structural       Cu2H28C20I2N8
_chemical_formula_sum              "Cu2 H28 C20 I2 N8"
_cell_length_a       5.66258
_cell_length_b       11.49962
_cell_length_c       11.49931
_cell_angle_alpha    69.96965
_cell_angle_beta     75.57213999999999
_cell_angle_gamma    75.57401

_symmetry_space_group_name_H-M    'P 1'
_symmetry_Int_Tables_number       1

loop_
  _symmetry_equiv_pos_as_xyz
  'x,y,z'

loop_
  _atom_site_type_symbol
  _atom_site_label
  _atom_site_symmetry_multiplicity
  _atom_site_fract_x
  _atom_site_fract_y
  _atom_site_fract_z
  _atom_site_occupancy
  Cu  Cu1       1.0  0.1336  0.60667  0.89546  1.0000
  Cu  Cu2       1.0  0.6336  0.39540000000000014  0.10664999999999997  1.0000
  H   H1        1.0  0.93146  0.8728400000000001  0.7457899999999998  1.0000
  H   H2        1.0  0.8238299999999997  0.020599999999999997  0.7782  1.0000
  H   H3        1.0  0.63899  0.89961  0.84104  1.0000
  H   H4        1.0  0.2431799999999999  0.77328  0.27424  1.0000
  H   H5        1.0  0.12853999999999985  0.9391600000000001  0.22321999999999997  1.0000
  H   H6        1.0  0.42358999999999997  0.87437  0.15103  1.0000
  H   H7        1.0  0.25283999999999984  0.6461300000000001  0.10947  1.0000
  H   H8        1.0  0.5481  0.12597000000000005  0.25717  1.0000
  H   H9        1.0  0.6190600000000002  0.98035  0.22129999999999997  1.0000
  H   H10       1.0  0.37620999999999993  0.10293  0.16086  1.0000
  H   H11       1.0  0.2912  0.22808000000000003  0.7274499999999999  1.0000
  H   H12       1.0  0.29040000000000005  0.06235000000000002  0.77839  1.0000
  H   H13       1.0  0.45041  0.12606000000000012  0.8500599999999998  1.0000
  H   H14       1.0  0.011769999999999933  0.35419  0.89521  1.0000
  H   H15       1.0  0.43117000000000005  0.24592000000000003  0.37269  1.0000
  H   H16       1.0  0.32394999999999996  0.27815  0.52054  1.0000
  H   H17       1.0  0.13883999999999996  0.34117000000000003  0.3996799999999999  1.0000
  H   H18       1.0  0.74312  0.77432  0.27319  1.0000
  H   H19       1.0  0.62842  0.72327  0.43907999999999997  1.0000
  H   H20       1.0  0.9235599999999999  0.6510999999999999  0.3743  1.0000
  H   H21       1.0  0.75278  0.60945  0.1461  1.0000
  H   H22       1.0  0.04758999999999999  0.7571200000000001  0.6260399999999999  1.0000
  H   H23       1.0  0.11908  0.7213500000000002  0.48035  1.0000
  H   H24       1.0  0.8761899999999999  0.6607400000000001  0.60276  1.0000
  H   H25       1.0  0.7910300000000001  0.22746  0.7281  1.0000
  H   H26       1.0  0.7903299999999999  0.27844  0.56233  1.0000
  H   H27       1.0  0.9504000000000002  0.35006000000000004  0.6261  1.0000
  H   H28       1.0  0.5117099999999999  0.3953  0.85414  1.0000
  C   C1        1.0  0.8291699999999999  0.9188100000000001  0.8175  1.0000
  C   C2        1.0  0.9504199999999999  0.8677700000000002  0.9298599999999999  1.0000
  C   C3        1.0  0.9850600000000002  0.93311  0.00784  1.0000
  C   C4        1.0  0.11685999999999984  0.8420400000000001  0.0972  1.0000
  C   C5        1.0  0.23192999999999986  0.8574300000000001  0.19228  1.0000
  C   C6        1.0  0.56271  0.08243  0.18387  1.0000
  C   C7        1.0  0.74635  0.13392  0.07197  1.0000
  C   C8        1.0  0.9250200000000001  0.06864000000000003  0.99355  1.0000
  C   C9        1.0  0.05655000000000002  0.15938  0.9048499999999999  1.0000
  C   C10       1.0  0.28242  0.1437800000000001  0.8092899999999997  1.0000
  C   C11       1.0  0.3291  0.31756000000000006  0.41877  1.0000
  C   C12       1.0  0.45039999999999997  0.4298900000000001  0.3677599999999999  1.0000
  C   C13       1.0  0.48507  0.50788  0.43307999999999996  1.0000
  C   C14       1.0  0.61684  0.59725  0.3420099999999999  1.0000
  C   C15       1.0  0.7319  0.69236  0.35734  1.0000
  C   C16       1.0  0.06258999999999998  0.6838400000000002  0.58241  1.0000
  C   C17       1.0  0.24633000000000005  0.57201  0.63389  1.0000
  C   C18       1.0  0.42501  0.49361  0.56859  1.0000
  C   C19       1.0  0.5565699999999999  0.4048999999999999  0.65933  1.0000
  C   C20       1.0  0.78238  0.3093099999999999  0.64379  1.0000
  I   I1        1.0  0.14441999999999997  0.39160000000000006  0.11017999999999997  1.0000
  I   I2        1.0  0.6444299999999998  0.6101300000000002  0.8916399999999999  1.0000
  N   N1        1.0  0.05162999999999997  0.74505  0.9703099999999999  1.0000
  N   N2        1.0  0.14508999999999994  0.7310600000000002  0.07353  1.0000
  N   N3        1.0  0.76636  0.25632  0.03247  1.0000
  N   N4        1.0  0.9503200000000002  0.27013000000000015  0.9293299999999999  1.0000
  N   N5        1.0  0.55158  0.47033  0.24503  1.0000
  N   N6        1.0  0.64502  0.57356  0.23100999999999997  1.0000
  N   N7        1.0  0.26633  0.53251  0.7563  1.0000
  N   N8        1.0  0.45028000000000007  0.42938  0.7700899999999999  1.0000
