data_image0
_chemical_formula_structural       Sm2P2H24C42O14
_chemical_formula_sum              "Sm2 P2 H24 C42 O14"
_cell_length_a       10.75085
_cell_length_b       11.98101
_cell_length_c       14.59826
_cell_angle_alpha    73.33738
_cell_angle_beta     72.51177
_cell_angle_gamma    67.3603

_symmetry_space_group_name_H-M    'P 1'
_symmetry_Int_Tables_number       1

loop_
  _symmetry_equiv_pos_as_xyz
  'x,y,z'

loop_
  _atom_site_type_symbol
  _atom_site_label
  _atom_site_symmetry_multiplicity
  _atom_site_fract_x
  _atom_site_fract_y
  _atom_site_fract_z
  _atom_site_occupancy
  Sm  Sm1       1.0  0.0020800000000000935  0.46437999999999996  0.36926  1.0000
  Sm  Sm2       1.0  0.0007500000000000191  0.5319100000000001  0.62889  1.0000
  P   P1        1.0  0.86072  0.28099  0.27467  1.0000
  P   P2        1.0  0.13779999999999992  0.7181499999999998  0.7247300000000002  1.0000
  H   H1        1.0  0.4891499999999996  0.36881000000000014  0.56455  1.0000
  H   H2        1.0  0.05225000000000001  0.11074000000000002  0.38772  1.0000
  H   H3        1.0  0.7341399999999998  0.32302  0.46849  1.0000
  H   H4        1.0  0.03592000000000001  0.16874999999999998  0.11  1.0000
  H   H5        1.0  0.35557999999999995  0.38248  0.31060000000000004  1.0000
  H   H6        1.0  0.5973599999999998  0.3341700000000001  0.21565  1.0000
  H   H7        1.0  0.8029800000000001  0.09047  0.21437  1.0000
  H   H8        1.0  0.7426400000000001  0.5869999999999999  0.9755700000000003  1.0000
  H   H9        1.0  0.07205999999999999  0.25182999999999994  0.92864  1.0000
  H   H10       1.0  0.12011999999999996  0.88093  0.44501000000000007  1.0000
  H   H11       1.0  0.8818  0.8601  0.26583  1.0000
  H   H12       1.0  0.7126499999999998  0.51176  0.15776  1.0000
  H   H13       1.0  0.51222  0.63167  0.43573000000000006  1.0000
  H   H14       1.0  0.94733  0.88796  0.6122700000000001  1.0000
  H   H15       1.0  0.2668200000000001  0.67651  0.53087  1.0000
  H   H16       1.0  0.9635099999999998  0.83  0.8897100000000001  1.0000
  H   H17       1.0  0.6419999999999999  0.6190799999999999  0.6914500000000002  1.0000
  H   H18       1.0  0.3994  0.66587  0.78532  1.0000
  H   H19       1.0  0.19586999999999996  0.9094399999999998  0.7855400000000002  1.0000
  H   H20       1.0  0.25877  0.41283  0.02396  1.0000
  H   H21       1.0  0.9298100000000002  0.7485399999999999  0.07121  1.0000
  H   H22       1.0  0.8800999999999999  0.11739  0.55365  1.0000
  H   H23       1.0  0.11814000000000005  0.13969999999999996  0.73271  1.0000
  H   H24       1.0  0.2862199999999999  0.48751000000000005  0.8421300000000002  1.0000
  C   C1        1.0  0.87155  0.3347699999999999  0.14516  1.0000
  C   C2        1.0  0.5160599999999997  0.35944  0.48843000000000003  1.0000
  C   C3        1.0  0.9226  0.11458  0.29874  1.0000
  C   C4        1.0  0.6811499999999998  0.32405000000000006  0.33634  1.0000
  C   C5        1.0  0.014629999999999995  0.05548  0.36201  1.0000
  C   C6        1.0  0.6515500000000001  0.33367  0.43491000000000013  1.0000
  C   C7        1.0  0.40896000000000005  0.3765  0.44432000000000005  1.0000
  C   C8        1.0  0.97305  0.2607  0.08073  1.0000
  C   C9        1.0  0.43824  0.36713999999999997  0.34595  1.0000
  C   C10       1.0  0.57429  0.34046  0.29215  1.0000
  C   C11       1.0  0.87398  0.04465999999999999  0.26376  1.0000
  C   C12       1.0  0.9088399999999998  0.42319  0.94291  1.0000
  C   C13       1.0  0.93592  0.46834999999999993  0.83422  1.0000
  C   C14       1.0  0.80624  0.49647  0.00673  1.0000
  C   C15       1.0  0.99248  0.30576  0.98023  1.0000
  C   C16       1.0  0.003790000000000041  0.858  0.35953  1.0000
  C   C17       1.0  0.053059999999999996  0.92795  0.39318  1.0000
  C   C18       1.0  0.91673  0.9164999999999999  0.29261  1.0000
  C   C19       1.0  0.038310000000000004  0.7217099999999999  0.40013000000000004  1.0000
  C   C20       1.0  0.2651999999999999  0.40866  0.50467  1.0000
  C   C21       1.0  0.78918  0.45359000000000005  0.10779  1.0000
  C   C22       1.0  0.12776000000000012  0.66434  0.85447  1.0000
  C   C23       1.0  0.48471999999999993  0.6409  0.51198  1.0000
  C   C24       1.0  0.07654999999999998  0.88487  0.70104  1.0000
  C   C25       1.0  0.31777000000000005  0.67569  0.66356  1.0000
  C   C26       1.0  0.9848799999999999  0.94366  0.63752  1.0000
  C   C27       1.0  0.34885  0.6661800000000001  0.56484  1.0000
  C   C28       1.0  0.5902700000000002  0.62441  0.55732  1.0000
  C   C29       1.0  0.026839999999999874  0.73839  0.9190100000000002  1.0000
  C   C30       1.0  0.5597800000000002  0.6338599999999999  0.6558  1.0000
  C   C31       1.0  0.42344999999999994  0.65982  0.7087000000000001  1.0000
  C   C32       1.0  0.12525000000000003  0.9548699999999999  0.7358800000000001  1.0000
  C   C33       1.0  0.09295000000000002  0.57723  0.057110000000000015  1.0000
  C   C34       1.0  0.06685000000000002  0.53526  0.16586  1.0000
  C   C35       1.0  0.19444999999999998  0.5033299999999998  0.99327  1.0000
  C   C36       1.0  0.00856999999999998  0.69416  0.01958  1.0000
  C   C37       1.0  0.9965900000000001  0.14073  0.63916  1.0000
  C   C38       1.0  0.94695  0.07101  0.60567  1.0000
  C   C39       1.0  0.08306999999999999  0.08287000000000001  0.70647  1.0000
  C   C40       1.0  0.96404  0.27623  0.59878  1.0000
  C   C41       1.0  0.73504  0.59197  0.49962  1.0000
  C   C42       1.0  0.21031999999999992  0.5458300000000001  0.89214  1.0000
  O   O1        1.0  0.058789999999999974  0.4229299999999999  0.78672  1.0000
  O   O2        1.0  0.24625000000000002  0.43019  0.58905  1.0000
  O   O3        1.0  0.06313000000000002  0.68457  0.48561  1.0000
  O   O4        1.0  0.8402899999999998  0.5478800000000001  0.79184  1.0000
  O   O5        1.0  0.03702999999999998  0.65536  0.34629  1.0000
  O   O6        1.0  0.16408000000000006  0.4159  0.47103  1.0000
  O   O7        1.0  0.9434899999999999  0.32613000000000003  0.31491  1.0000
  O   O8        1.0  0.9458099999999998  0.58455  0.21381000000000003  1.0000
  O   O9        1.0  0.7582  0.56885  0.41526000000000013  1.0000
  O   O10       1.0  0.9432500000000001  0.31399  0.51193  1.0000
  O   O11       1.0  0.16168999999999997  0.45394999999999996  0.20873000000000003  1.0000
  O   O12       1.0  0.9624  0.34267  0.65336  1.0000
  O   O13       1.0  0.8311100000000001  0.5864  0.53764  1.0000
  O   O14       1.0  0.053970000000000004  0.6744900000000001  0.68445  1.0000
