data_image0
_chemical_formula_structural       Ca4Cu4H16C24O32
_chemical_formula_sum              "Ca4 Cu4 H16 C24 O32"
_cell_length_a       7.89461
_cell_length_b       12.89521
_cell_length_c       10.13268
_cell_angle_alpha    89.66722
_cell_angle_beta     90.24596
_cell_angle_gamma    90.57104000000001

_symmetry_space_group_name_H-M    'P 1'
_symmetry_Int_Tables_number       1

loop_
  _symmetry_equiv_pos_as_xyz
  'x,y,z'

loop_
  _atom_site_type_symbol
  _atom_site_label
  _atom_site_symmetry_multiplicity
  _atom_site_fract_x
  _atom_site_fract_y
  _atom_site_fract_z
  _atom_site_occupancy
  Ca  Ca1       1.0  0.002800000000000001  0.74653  0.7353899999999998  1.0000
  Ca  Ca2       1.0  0.49758000000000013  0.24693  0.7584299999999998  1.0000
  Ca  Ca3       1.0  0.99705  0.25345  0.26465999999999995  1.0000
  Ca  Ca4       1.0  0.50241  0.75294  0.24151999999999996  1.0000
  Cu  Cu1       1.0  0.5003300000000003  0.99971  0.49991999999999986  1.0000
  Cu  Cu2       1.0  0.9997300000000001  0.49994  0.99998  1.0000
  Cu  Cu3       1.0  0.4999500000000001  0.5  0.5000399999999999  1.0000
  Cu  Cu4       1.0  0.9998400000000001  0.99999  3.999999999999999e-05  1.0000
  H   H1        1.0  0.4551000000000001  0.88899  0.8936099999999998  1.0000
  H   H2        1.0  0.61838  0.89803  0.77392  1.0000
  H   H3        1.0  0.04675  0.387  0.6093999999999999  1.0000
  H   H4        1.0  0.8836100000000002  0.39260999999999996  0.7299999999999999  1.0000
  H   H5        1.0  0.54314  0.60504  0.8951199999999998  1.0000
  H   H6        1.0  0.38484  0.59825  0.7692499999999999  1.0000
  H   H7        1.0  0.9751400000000002  0.10601999999999999  0.6088  1.0000
  H   H8        1.0  0.12013  0.10241  0.7444399999999998  1.0000
  H   H9        1.0  0.5447300000000003  0.11094  0.10649999999999998  1.0000
  H   H10       1.0  0.38164  0.10184  0.22626  1.0000
  H   H11       1.0  0.9533600000000002  0.61301  0.39065  1.0000
  H   H12       1.0  0.11629000000000003  0.60732  0.26996999999999993  1.0000
  H   H13       1.0  0.4568700000000001  0.39495  0.10487999999999999  1.0000
  H   H14       1.0  0.6152300000000003  0.40167  0.23068999999999995  1.0000
  H   H15       1.0  0.02495  0.89407  0.39132  1.0000
  H   H16       1.0  0.87989  0.89767  0.25569  1.0000
  C   C1        1.0  0.38111  0.85226  0.6919699999999999  1.0000
  C   C2        1.0  0.4835800000000001  0.9140499999999999  0.7926899999999999  1.0000
  C   C3        1.0  0.4605400000000001  0.02974  0.7815  1.0000
  C   C4        1.0  0.12173000000000003  0.35331  0.81149  1.0000
  C   C5        1.0  0.01743  0.41204  0.7094499999999998  1.0000
  C   C6        1.0  0.03653  0.52829  0.71755  1.0000
  C   C7        1.0  0.62624  0.64191  0.69565  1.0000
  C   C8        1.0  0.5179100000000002  0.58061  0.79348  1.0000
  C   C9        1.0  0.53776  0.46476  0.7817999999999999  1.0000
  C   C10       1.0  0.8711300000000002  0.13738  0.80211  1.0000
  C   C11       1.0  0.9914200000000002  0.08089  0.7110899999999998  1.0000
  C   C12       1.0  0.9744100000000002  0.96457  0.72018  1.0000
  C   C13       1.0  0.6189  0.14729  0.30814  1.0000
  C   C14       1.0  0.5163300000000002  0.0857  0.20732999999999996  1.0000
  C   C15       1.0  0.53937  0.97006  0.21812  1.0000
  C   C16       1.0  0.8782800000000002  0.64675  0.18851999999999997  1.0000
  C   C17       1.0  0.9824700000000002  0.58796  0.29056999999999994  1.0000
  C   C18       1.0  0.96311  0.47169999999999995  0.28251  1.0000
  C   C19       1.0  0.3737400000000001  0.35807  0.30436  1.0000
  C   C20       1.0  0.4821400000000001  0.41933999999999994  0.20653999999999995  1.0000
  C   C21       1.0  0.46267000000000014  0.5352  0.21823  1.0000
  C   C22       1.0  0.12876000000000007  0.86258  0.19793  1.0000
  C   C23       1.0  0.008640000000000004  0.91915  0.28901  1.0000
  C   C24       1.0  0.025740000000000006  0.03547  0.27984999999999993  1.0000
  O   O1        1.0  0.39412000000000014  0.8734899999999999  0.5682  1.0000
  O   O2        1.0  0.28602  0.77996  0.7336699999999999  1.0000
  O   O3        1.0  0.4660800000000001  0.07402  0.66449  1.0000
  O   O4        1.0  0.4403800000000001  0.08512  0.88109  1.0000
  O   O5        1.0  0.10896000000000003  0.37614  0.93415  1.0000
  O   O6        1.0  0.21626000000000006  0.28156  0.7722899999999999  1.0000
  O   O7        1.0  0.025300000000000003  0.57292  0.83315  1.0000
  O   O8        1.0  0.05875000000000001  0.58359  0.6170899999999998  1.0000
  O   O9        1.0  0.62272  0.61914  0.5722499999999999  1.0000
  O   O10       1.0  0.71754  0.7146399999999999  0.73995  1.0000
  O   O11       1.0  0.52528  0.42231  0.6646699999999999  1.0000
  O   O12       1.0  0.5609600000000001  0.40741  0.8803799999999999  1.0000
  O   O13       1.0  0.8719600000000002  0.11563000000000002  0.9260799999999999  1.0000
  O   O14       1.0  0.7761400000000003  0.20578999999999997  0.75309  1.0000
  O   O15       1.0  0.9821400000000002  0.92023  0.8368499999999998  1.0000
  O   O16       1.0  0.9571500000000002  0.90941  0.61951  1.0000
  O   O17       1.0  0.60563  0.12636  0.4319399999999999  1.0000
  O   O18       1.0  0.7143100000000002  0.21932  0.26632  1.0000
  O   O19       1.0  0.53395  0.92574  0.33509999999999995  1.0000
  O   O20       1.0  0.5595700000000002  0.91476  0.1185  1.0000
  O   O21       1.0  0.8910700000000003  0.6239299999999999  0.06586999999999998  1.0000
  O   O22       1.0  0.7838300000000002  0.71853  0.22771999999999998  1.0000
  O   O23       1.0  0.97393  0.42703  0.16688  1.0000
  O   O24       1.0  0.9413200000000002  0.4164399999999999  0.3830599999999999  1.0000
  O   O25       1.0  0.37728  0.38083  0.42776  1.0000
  O   O26       1.0  0.28238  0.28537  0.26002  1.0000
  O   O27       1.0  0.47471000000000013  0.57766  0.33538  1.0000
  O   O28       1.0  0.44030000000000014  0.59258  0.11956  1.0000
  O   O29       1.0  0.12762  0.88434  0.07396  1.0000
  O   O30       1.0  0.22383000000000006  0.79417  0.24683999999999998  1.0000
  O   O31       1.0  0.017800000000000007  0.07978999999999999  0.16317  1.0000
  O   O32       1.0  0.04309  0.09063  0.3805  1.0000
