data_image0
_chemical_formula_structural       Cd2H20C44O16
_chemical_formula_sum              "Cd2 H20 C44 O16"
_cell_length_a       6.90689
_cell_length_b       12.7339
_cell_length_c       16.917
_cell_angle_alpha    85.34145
_cell_angle_beta     74.43278
_cell_angle_gamma    73.37464

_space_group_name_H-M_alt    "P 1"
_space_group_IT_number       1

loop_
  _space_group_symop_operation_xyz
  'x, y, z'

loop_
  _atom_site_type_symbol
  _atom_site_label
  _atom_site_symmetry_multiplicity
  _atom_site_fract_x
  _atom_site_fract_y
  _atom_site_fract_z
  _atom_site_occupancy
  Cd  Cd1       1.0  0.08394000000000001  0.24587999999999993  0.74313  1.0000
  Cd  Cd2       1.0  0.9186299999999998  0.75418  0.25677  1.0000
  H   H1        1.0  0.07714999999999991  0.93408  0.63399  1.0000
  H   H2        1.0  0.22926999999999984  0.23744  0.49838999999999994  1.0000
  H   H3        1.0  0.24410000000000004  0.4175199999999999  0.43342  1.0000
  H   H4        1.0  0.7349800000000001  0.42387  0.33039  1.0000
  H   H5        1.0  0.7316000000000001  0.23792  0.3890299999999999  1.0000
  H   H6        1.0  0.68264  0.56149  0.86381  1.0000
  H   H7        1.0  0.9758799999999996  0.26247999999999994  0.9995700000000001  1.0000
  H   H8        1.0  0.10439000000000001  0.08405999999999998  0.06481  1.0000
  H   H9        1.0  0.46979999999999983  0.07893999999999998  0.18032  1.0000
  H   H10       1.0  0.34092  0.26428  0.12355000000000001  1.0000
  H   H11       1.0  0.92189  0.06605  0.36609  1.0000
  H   H12       1.0  0.7691499999999999  0.76353  0.50106  1.0000
  H   H13       1.0  0.7567399999999995  0.58247  0.5641  1.0000
  H   H14       1.0  0.26397  0.57481  0.6679  1.0000
  H   H15       1.0  0.26765000000000017  0.7615799999999998  0.6111  1.0000
  H   H16       1.0  0.31872  0.43874  0.13673999999999994  1.0000
  H   H17       1.0  0.025610000000000147  0.7372699999999998  0.00149  1.0000
  H   H18       1.0  0.8968299999999999  0.9151899999999997  0.9351699999999997  1.0000
  H   H19       1.0  0.5310400000000001  0.91992  0.8189599999999998  1.0000
  H   H20       1.0  0.6608000000000003  0.73541  0.8774999999999997  1.0000
  C   C1        1.0  0.05639999999999997  0.14037  0.61291  1.0000
  C   C2        1.0  0.008339999999999959  0.53565  0.3346499999999999  1.0000
  C   C3        1.0  0.050430000000000044  0.9605799999999999  0.57399  1.0000
  C   C4        1.0  0.039860000000000013  0.06887  0.55091  1.0000
  C   C5        1.0  0.9900500000000001  0.11115  0.47460999999999987  1.0000
  C   C6        1.0  0.9840299999999995  0.22252  0.44609  1.0000
  C   C7        1.0  0.12253999999999991  0.27726  0.46135  1.0000
  C   C8        1.0  0.13071999999999992  0.37829  0.42564  1.0000
  C   C9        1.0  0.9917499999999999  0.43051  0.37768  1.0000
  C   C10       1.0  0.8450900000000002  0.3800599999999999  0.36538  1.0000
  C   C11       1.0  0.8447500000000001  0.27681  0.39785  1.0000
  C   C12       1.0  0.8289899999999999  0.35393  0.8838899999999998  1.0000
  C   C13       1.0  0.8719000000000002  0.9687899999999999  0.17308  1.0000
  C   C14       1.0  0.60565  0.53752  0.9249  1.0000
  C   C15       1.0  0.67356  0.42887  0.94886  1.0000
  C   C16       1.0  0.5717400000000001  0.3881599999999999  0.026879999999999994  1.0000
  C   C17       1.0  0.6485899999999998  0.27803999999999995  0.05767  1.0000
  C   C18       1.0  0.8652899999999998  0.22294  0.03906  1.0000
  C   C19       1.0  0.9382399999999999  0.12329999999999998  0.07586  1.0000
  C   C20       1.0  0.7956100000000002  0.07227999999999998  0.12858  1.0000
  C   C21       1.0  0.5786200000000001  0.12216999999999999  0.14332  1.0000
  C   C22       1.0  0.5074499999999997  0.22463999999999995  0.11038  1.0000
  C   C23       1.0  0.9426599999999999  0.8588299999999998  0.38816  1.0000
  C   C24       1.0  0.9920699999999996  0.4630899999999999  0.66545  1.0000
  C   C25       1.0  0.9486200000000001  0.03959  0.42613  1.0000
  C   C26       1.0  0.9584899999999998  0.93145  0.44947  1.0000
  C   C27       1.0  0.009300000000000008  0.88904  0.52549  1.0000
  C   C28       1.0  0.015439999999999992  0.7774799999999998  0.55351  1.0000
  C   C29       1.0  0.8765099999999996  0.72302  0.538  1.0000
  C   C30       1.0  0.86911  0.62144  0.57319  1.0000
  C   C31       1.0  0.007129999999999916  0.56833  0.62145  1.0000
  C   C32       1.0  0.15341000000000019  0.61918  0.6334799999999998  1.0000
  C   C33       1.0  0.15464  0.7227  0.60168  1.0000
  C   C34       1.0  0.17092999999999994  0.64563  0.11599  1.0000
  C   C35       1.0  0.13086000000000006  0.028989999999999995  0.82507  1.0000
  C   C36       1.0  0.39455  0.46199  0.07521  1.0000
  C   C37       1.0  0.32683  0.57059  0.0512  1.0000
  C   C38       1.0  0.42854999999999965  0.61137  0.97325  1.0000
  C   C39       1.0  0.35204000000000013  0.72154  0.9425  1.0000
  C   C40       1.0  0.13540999999999992  0.7767399999999999  0.96108  1.0000
  C   C41       1.0  0.0628500000000002  0.87608  0.9237399999999998  1.0000
  C   C42       1.0  0.20619000000000018  0.9261599999999998  0.8702299999999997  1.0000
  C   C43       1.0  0.4230800000000001  0.87642  0.8561299999999998  1.0000
  C   C44       1.0  0.49409999999999993  0.77453  0.88987  1.0000
  O   O1        1.0  0.23562999999999987  0.12158999999999998  0.62699  1.0000
  O   O2        1.0  0.8937699999999998  0.21146  0.64883  1.0000
  O   O3        1.0  0.1849000000000001  0.53597  0.2886299999999999  1.0000
  O   O4        1.0  0.8424  0.61599  0.34541  1.0000
  O   O5        1.0  0.009530000000000153  0.36895  0.8564799999999998  1.0000
  O   O6        1.0  0.76479  0.28435  0.8566999999999998  1.0000
  O   O7        1.0  0.009439999999999994  0.9673  0.20916  1.0000
  O   O8        1.0  0.78581  0.8916499999999998  0.17431999999999995  1.0000
  O   O9        1.0  0.7653499999999995  0.87891  0.3721499999999999  1.0000
  O   O10       1.0  0.10443000000000016  0.7854099999999998  0.35464  1.0000
  O   O11       1.0  0.8146899999999998  0.4627199999999999  0.71064  1.0000
  O   O12       1.0  0.15953999999999993  0.38413  0.65678  1.0000
  O   O13       1.0  0.9908000000000001  0.6303699999999999  0.14388  1.0000
  O   O14       1.0  0.23518000000000006  0.7156799999999999  0.14251  1.0000
  O   O15       1.0  0.9890199999999996  0.03159  0.79108  1.0000
  O   O16       1.0  0.22113999999999992  0.10484999999999998  0.82193  1.0000
