data_image0
_chemical_formula_structural       Fe2H24C24N48
_chemical_formula_sum              "Fe2 H24 C24 N48"
_cell_length_a       7.9764
_cell_length_b       9.327890000000002
_cell_length_c       19.632659999999998
_cell_angle_alpha    90.02463
_cell_angle_beta     89.98119
_cell_angle_gamma    89.5868

_space_group_name_H-M_alt    "P 1"
_space_group_IT_number       1

loop_
  _space_group_symop_operation_xyz
  'x, y, z'

loop_
  _atom_site_type_symbol
  _atom_site_label
  _atom_site_symmetry_multiplicity
  _atom_site_fract_x
  _atom_site_fract_y
  _atom_site_fract_z
  _atom_site_occupancy
  Fe  Fe1       1.0  0.00076  0.0006900000000000002  2e-05  1.0000
  Fe  Fe2       1.0  0.49964  0.4998600000000001  0.50002  1.0000
  H   H1        1.0  0.94489  0.8308200000000002  0.85847  1.0000
  H   H2        1.0  0.46777  0.8743100000000001  0.83026  1.0000
  H   H3        1.0  0.5543199999999998  0.70147  0.63013  1.0000
  H   H4        1.0  0.031529999999999996  0.6519  0.65744  1.0000
  H   H5        1.0  0.56991  0.85606  0.99581  1.0000
  H   H6        1.0  0.83054  0.45501000000000014  0.9976999999999999  1.0000
  H   H7        1.0  0.5545199999999999  0.6696  0.35847  1.0000
  H   H8        1.0  0.03145  0.62635  0.33061  1.0000
  H   H9        1.0  0.9453899999999997  0.79886  0.13029  1.0000
  H   H10       1.0  0.46814  0.84854  0.15772  1.0000
  H   H11       1.0  0.93005  0.64399  0.49564  1.0000
  H   H12       1.0  0.66964  0.04518  0.49752  1.0000
  H   H13       1.0  0.055289999999999985  0.16946  0.14162  1.0000
  H   H14       1.0  0.53245  0.12573  0.16966  1.0000
  H   H15       1.0  0.44546  0.2987  0.36975  1.0000
  H   H16       1.0  0.9681799999999998  0.34839  0.3426  1.0000
  H   H17       1.0  0.4305499999999999  0.14423  0.00416  1.0000
  H   H18       1.0  0.16977  0.54521  0.00235  1.0000
  H   H19       1.0  0.44532  0.33052  0.64156  1.0000
  H   H20       1.0  0.96843  0.37364  0.66927  1.0000
  H   H21       1.0  0.05494  0.20168  0.8695799999999999  1.0000
  H   H22       1.0  0.53228  0.15132  0.84236  1.0000
  H   H23       1.0  0.06969  0.35595  0.50439  1.0000
  H   H24       1.0  0.33030999999999994  0.95486  0.50254  1.0000
  C   C1        1.0  0.07449999999999997  0.8573100000000001  0.8674800000000001  1.0000
  C   C2        1.0  0.3453999999999999  0.8807100000000001  0.85361  1.0000
  C   C3        1.0  0.4257  0.67143  0.62152  1.0000
  C   C4        1.0  0.15499  0.6440000000000002  0.63521  1.0000
  C   C5        1.0  0.671  0.77753  0.99543  1.0000
  C   C6        1.0  0.8052899999999997  0.56929  0.9961900000000001  1.0000
  C   C7        1.0  0.4248899999999999  0.6434100000000001  0.36758  1.0000
  C   C8        1.0  0.15399  0.61979  0.35382  1.0000
  C   C9        1.0  0.07393  0.82942  0.12183  1.0000
  C   C10       1.0  0.34469  0.85646  0.13552  1.0000
  C   C11       1.0  0.82902  0.72259  0.49532000000000004  1.0000
  C   C12       1.0  0.69475  0.93083  0.49612  1.0000
  C   C13       1.0  0.9257499999999997  0.14304  0.13255  1.0000
  C   C14       1.0  0.65482  0.11942  0.14633  1.0000
  C   C15       1.0  0.57403  0.32885  0.37841  1.0000
  C   C16       1.0  0.84472  0.35626  0.36481  1.0000
  C   C17       1.0  0.32942  0.22273000000000004  0.00458  1.0000
  C   C18       1.0  0.19504  0.43093  0.0038500000000000006  1.0000
  C   C19       1.0  0.5749  0.35664  0.6324  1.0000
  C   C20       1.0  0.84589  0.38018  0.6461  1.0000
  C   C21       1.0  0.9264499999999998  0.17104000000000003  0.8781100000000001  1.0000
  C   C22       1.0  0.6557899999999998  0.14352000000000004  0.8645099999999999  1.0000
  C   C23       1.0  0.17075  0.27739  0.50472  1.0000
  C   C24       1.0  0.30514  0.0692  0.50393  1.0000
  N   N1        1.0  0.13806999999999994  0.9193400000000002  0.92269  1.0000
  N   N2        1.0  0.30851  0.9341300000000002  0.9144600000000002  1.0000
  N   N3        1.0  0.20133999999999994  0.83148  0.82236  1.0000
  N   N4        1.0  0.1749299999999999  0.76968  0.75953  1.0000
  N   N5        1.0  0.3205099999999999  0.76841  0.72676  1.0000
  N   N6        1.0  0.29648  0.70184  0.66502  1.0000
  N   N7        1.0  0.36589  0.5968700000000001  0.56918  1.0000
  N   N8        1.0  0.19554  0.58008  0.57714  1.0000
  N   N9        1.0  0.8342499999999998  0.80214  0.9932  1.0000
  N   N10       1.0  0.9189  0.67101  0.99379  1.0000
  N   N11       1.0  0.64723  0.6314  0.9975100000000001  1.0000
  N   N12       1.0  0.49114999999999986  0.56932  0.00075  1.0000
  N   N13       1.0  0.36173  0.58028  0.42257  1.0000
  N   N14       1.0  0.19134  0.56523  0.41436  1.0000
  N   N15       1.0  0.29781  0.66991  0.3227  1.0000
  N   N16       1.0  0.32409  0.73181  0.2599  1.0000
  N   N17       1.0  0.17885  0.73198  0.22693  1.0000
  N   N18       1.0  0.20308  0.79869  0.16526  1.0000
  N   N19       1.0  0.13397  0.9040800000000001  0.06956  1.0000
  N   N20       1.0  0.30429  0.92066  0.07755  1.0000
  N   N21       1.0  0.66581  0.69795  0.49297  1.0000
  N   N22       1.0  0.5811699999999997  0.8290800000000003  0.4936  1.0000
  N   N23       1.0  0.8528  0.8686700000000002  0.49760000000000004  1.0000
  N   N24       1.0  0.008919999999999999  0.9307500000000001  0.50075  1.0000
  N   N25       1.0  0.86234  0.08091000000000001  0.07732  1.0000
  N   N26       1.0  0.69191  0.06596  0.0855  1.0000
  N   N27       1.0  0.79876  0.16882  0.17761  1.0000
  N   N28       1.0  0.82497  0.23060000000000003  0.24048  1.0000
  N   N29       1.0  0.67933  0.23189000000000007  0.27317  1.0000
  N   N30       1.0  0.70326  0.29845000000000005  0.33493  1.0000
  N   N31       1.0  0.6337499999999998  0.4032400000000001  0.43081  1.0000
  N   N32       1.0  0.8041  0.42007  0.42289  1.0000
  N   N33       1.0  0.16616999999999996  0.19811  0.00679  1.0000
  N   N34       1.0  0.08145  0.3292000000000001  0.00622  1.0000
  N   N35       1.0  0.35311  0.36884  0.00252  1.0000
  N   N36       1.0  0.5091699999999998  0.43094  0.99927  1.0000
  N   N37       1.0  0.63804  0.41992  0.57743  1.0000
  N   N38       1.0  0.80844  0.4349400000000001  0.58561  1.0000
  N   N39       1.0  0.70209  0.3300000000000001  0.67723  1.0000
  N   N40       1.0  0.67592  0.26817  0.74006  1.0000
  N   N41       1.0  0.82122  0.26812  0.77297  1.0000
  N   N42       1.0  0.7972399999999997  0.20139000000000007  0.8346600000000001  1.0000
  N   N43       1.0  0.86672  0.09662  0.93048  1.0000
  N   N44       1.0  0.69642  0.07968  0.92255  1.0000
  N   N45       1.0  0.33395999999999987  0.30208  0.50705  1.0000
  N   N46       1.0  0.41869  0.17099  0.50642  1.0000
  N   N47       1.0  0.14707  0.1313  0.50246  1.0000
  N   N48       1.0  0.9909699999999998  0.06917  0.49932999999999994  1.0000
