data_image0
_chemical_formula_structural       Ni3P4H30C30N8O14
_chemical_formula_sum              "Ni3 P4 H30 C30 N8 O14"
_cell_length_a       9.01323
_cell_length_b       10.55495
_cell_length_c       13.31647
_cell_angle_alpha    70.56211
_cell_angle_beta     76.67303
_cell_angle_gamma    79.23387

_symmetry_space_group_name_H-M    'P 1'
_symmetry_Int_Tables_number       1

loop_
  _symmetry_equiv_pos_as_xyz
  'x,y,z'

loop_
  _atom_site_type_symbol
  _atom_site_label
  _atom_site_symmetry_multiplicity
  _atom_site_fract_x
  _atom_site_fract_y
  _atom_site_fract_z
  _atom_site_occupancy
  Ni  Ni1       1.0  0.30190000000000006  0.9035399999999999  0.1537  1.0000
  Ni  Ni2       1.0  0.6948599999999998  0.09066000000000003  0.8512  1.0000
  Ni  Ni3       1.0  0.49992  0.4969  0.00244  1.0000
  P   P1        1.0  0.5325800000000004  0.8175599999999995  0.96237  1.0000
  P   P2        1.0  0.2181  0.72114  0.04507  1.0000
  P   P3        1.0  0.46715000000000007  0.17617  0.04215  1.0000
  P   P4        1.0  0.7816599999999999  0.27214999999999995  0.95938  1.0000
  H   H1        1.0  0.3453900000000001  0.04711000000000011  0.9575499999999998  1.0000
  H   H2        1.0  0.011430000000000017  0.75163  0.97522  1.0000
  H   H3        1.0  0.36544  0.9934000000000001  0.7872299999999999  1.0000
  H   H4        1.0  0.37933  0.8204999999999999  0.79522  1.0000
  H   H5        1.0  0.06247000000000001  0.10678999999999997  0.84418  1.0000
  H   H6        1.0  0.8448300000000001  0.8278299999999998  0.78194  1.0000
  H   H7        1.0  0.15725000000000006  0.73144  0.7771799999999999  1.0000
  H   H8        1.0  0.28285  0.63183  0.31694  1.0000
  H   H9        1.0  0.33214999999999995  0.51631  0.50641  1.0000
  H   H10       1.0  0.46343999999999996  0.89212  0.50027  1.0000
  H   H11       1.0  0.40234  0.9917699999999999  0.31232  1.0000
  H   H12       1.0  0.31294  0.41902000000000006  0.88038  1.0000
  H   H13       1.0  0.25272999999999995  0.50648  0.69255  1.0000
  H   H14       1.0  0.64251  0.73249  0.59826  1.0000
  H   H15       1.0  0.68315  0.6352799999999997  0.79127  1.0000
  H   H16       1.0  0.6544999999999999  0.9462299999999998  0.04761  1.0000
  H   H17       1.0  0.9889399999999999  0.24500999999999998  0.027609999999999996  1.0000
  H   H18       1.0  0.63376  0.002369999999999999  0.21791  1.0000
  H   H19       1.0  0.6195  0.17585999999999996  0.20818  1.0000
  H   H20       1.0  0.93512  0.8880599999999998  0.16231  1.0000
  H   H21       1.0  0.15582999999999997  0.16942  0.21898  1.0000
  H   H22       1.0  0.84337  0.26655000000000006  0.22415  1.0000
  H   H23       1.0  0.7153799999999998  0.3627  0.68882  1.0000
  H   H24       1.0  0.6685900000000001  0.4790399999999999  0.49886  1.0000
  H   H25       1.0  0.53644  0.10453000000000001  0.50305  1.0000
  H   H26       1.0  0.59507  0.0039300000000000385  0.6916499999999999  1.0000
  H   H27       1.0  0.6870200000000001  0.5761799999999999  0.12342  1.0000
  H   H28       1.0  0.7477  0.48973999999999995  0.31116  1.0000
  H   H29       1.0  0.35737  0.26412999999999986  0.40689  1.0000
  H   H30       1.0  0.3158500000000001  0.36073  0.21405  1.0000
  C   C1        1.0  0.3243800000000002  0.8613599999999993  0.94969  1.0000
  C   C2        1.0  0.31358  0.89948  0.82968  1.0000
  C   C3        1.0  0.0451  0.02197999999999998  0.82143  1.0000
  C   C4        1.0  0.93807  0.87266  0.79012  1.0000
  C   C5        1.0  0.09049000000000004  0.8232899999999999  0.78924  1.0000
  C   C6        1.0  0.3217400000000002  0.68454  0.36205  1.0000
  C   C7        1.0  0.34899  0.62215  0.46715  1.0000
  C   C8        1.0  0.40419  0.69413  0.51972  1.0000
  C   C9        1.0  0.4246400000000001  0.8299899999999998  0.46282  1.0000
  C   C10       1.0  0.39128000000000024  0.8864999999999997  0.35914  1.0000
  C   C11       1.0  0.3816900000000001  0.4887400000000001  0.81462  1.0000
  C   C12       1.0  0.3501499999999999  0.53767  0.70992  1.0000
  C   C13       1.0  0.43979  0.63143  0.62964  1.0000
  C   C14       1.0  0.5649900000000001  0.6648399999999998  0.65817  1.0000
  C   C15       1.0  0.59054  0.6101200000000001  0.76412  1.0000
  C   C16       1.0  0.67497  0.13236  0.05489  1.0000
  C   C17       1.0  0.6855199999999999  0.09612999999999998  0.17474  1.0000
  C   C18       1.0  0.95323  0.9736799999999998  0.18372  1.0000
  C   C19       1.0  0.061759999999999995  0.12431  0.21209  1.0000
  C   C20       1.0  0.9095  0.17383999999999997  0.21323999999999999  1.0000
  C   C21       1.0  0.6767900000000001  0.31051  0.6432  1.0000
  C   C22       1.0  0.65094  0.37333999999999984  0.53778  1.0000
  C   C23       1.0  0.59595  0.30195999999999995  0.48462999999999995  1.0000
  C   C24       1.0  0.57482  0.16615999999999997  0.54113  1.0000
  C   C25       1.0  0.6068  0.10918000000000003  0.6451  1.0000
  C   C26       1.0  0.6184  0.5066799999999999  0.18953999999999996  1.0000
  C   C27       1.0  0.6501  0.4583  0.29417  1.0000
  C   C28       1.0  0.5604800000000001  0.36477  0.37471  1.0000
  C   C29       1.0  0.43485  0.33146  0.34657999999999994  1.0000
  C   C30       1.0  0.40908  0.38569999999999993  0.24069  1.0000
  N   N1        1.0  0.9114099999999999  0.99661  0.80977  1.0000
  N   N2        1.0  0.15730000000000002  0.9193399999999999  0.80846  1.0000
  N   N3        1.0  0.34280999999999995  0.81496  0.3081  1.0000
  N   N4        1.0  0.49754000000000004  0.52699  0.84196  1.0000
  N   N5        1.0  0.08741000000000004  0.9993799999999999  0.19414999999999996  1.0000
  N   N6        1.0  0.8416599999999999  0.07700000000000001  0.1959  1.0000
  N   N7        1.0  0.6546899999999999  0.18020999999999998  0.6967899999999999  1.0000
  N   N8        1.0  0.50253  0.4680400000000001  0.16250999999999996  1.0000
  O   O1        1.0  0.26689  0.97776  0.98856  1.0000
  O   O2        1.0  0.59227  0.67383  0.9591  1.0000
  O   O3        1.0  0.53378  0.843  0.07071  1.0000
  O   O4        1.0  0.6132199999999995  0.91985  0.86131  1.0000
  O   O5        1.0  0.03661000000000006  0.7619899999999997  0.03969  1.0000
  O   O6        1.0  0.27373  0.59459  0.01081  1.0000
  O   O7        1.0  0.22959999999999997  0.72492  0.1562  1.0000
  O   O8        1.0  0.7328899999999999  0.01563  0.01662  1.0000
  O   O9        1.0  0.40801  0.3197999999999999  0.04586  1.0000
  O   O10       1.0  0.46579000000000004  0.15100000000000002  0.93372  1.0000
  O   O11       1.0  0.3861800000000001  0.07361999999999999  0.14259  1.0000
  O   O12       1.0  0.96308  0.23071000000000008  0.9648899999999999  1.0000
  O   O13       1.0  0.7269400000000001  0.39874  0.99366  1.0000
  O   O14       1.0  0.7702600000000001  0.26838999999999996  0.84829  1.0000
