data_image0
_chemical_formula_structural       Mn3H12C24O12
_chemical_formula_sum              "Mn3 H12 C24 O12"
_cell_length_a       8.9503
_cell_length_b       9.99056
_cell_length_c       10.56598
_cell_angle_alpha    99.30245
_cell_angle_beta     112.05888
_cell_angle_gamma    106.32727

_symmetry_space_group_name_H-M    'P 1'
_symmetry_Int_Tables_number       1

loop_
  _symmetry_equiv_pos_as_xyz
  'x,y,z'

loop_
  _atom_site_type_symbol
  _atom_site_label
  _atom_site_symmetry_multiplicity
  _atom_site_fract_x
  _atom_site_fract_y
  _atom_site_fract_z
  _atom_site_occupancy
  Mn  Mn1       1.0  0.10388000000000001  0.90182  0.72589  1.0000
  Mn  Mn2       1.0  0.90157  0.09994999999999998  0.24132999999999996  1.0000
  Mn  Mn3       1.0  0.017219999999999937  0.9867899999999998  0.9946799999999999  1.0000
  H   H1        1.0  0.6524399999999999  0.9293699999999999  0.3811  1.0000
  H   H2        1.0  0.5115  0.3093199999999999  0.82467  1.0000
  H   H3        1.0  0.39792999999999984  0.9937399999999998  0.24750999999999998  1.0000
  H   H4        1.0  0.5107299999999998  0.6944  0.18733  1.0000
  H   H5        1.0  0.10552999999999996  0.57278  0.26434  1.0000
  H   H6        1.0  0.33021999999999996  0.09054999999999994  0.6305599999999999  1.0000
  H   H7        1.0  0.83591  0.24038999999999996  0.85384  1.0000
  H   H8        1.0  0.1780899999999999  0.7606199999999997  0.14677  1.0000
  H   H9        1.0  0.30812999999999996  0.43573999999999996  0.11446999999999999  1.0000
  H   H10       1.0  0.58279  0.024289999999999982  0.76257  1.0000
  H   H11       1.0  0.9164799999999996  0.4283699999999999  0.7374899999999998  1.0000
  H   H12       1.0  0.7126499999999999  0.5675799999999999  0.8964599999999999  1.0000
  C   C1        1.0  0.62397  0.64672  0.04607  1.0000
  C   C2        1.0  0.39734999999999987  0.46551  0.06775  1.0000
  C   C3        1.0  0.3458  0.04206  0.43025  1.0000
  C   C4        1.0  0.1034  0.6468  0.08356999999999999  1.0000
  C   C5        1.0  0.91021  0.35449  0.91665  1.0000
  C   C6        1.0  0.27281999999999995  0.20330999999999988  0.9195699999999999  1.0000
  C   C7        1.0  0.96342  0.39425  0.06622999999999998  1.0000
  C   C8        1.0  0.18992  0.07114  0.3504  1.0000
  C   C9        1.0  0.51098  0.39389  0.90316  1.0000
  C   C10       1.0  0.7863099999999996  0.9397799999999998  0.6601399999999998  1.0000
  C   C11       1.0  0.63156  0.97258  0.5789299999999998  1.0000
  C   C12       1.0  0.6236400000000001  0.53776  0.94331  1.0000
  C   C13       1.0  0.4385999999999998  0.9995799999999999  0.35982  1.0000
  C   C14       1.0  0.08976999999999996  0.7203099999999999  0.8674499999999999  1.0000
  C   C15       1.0  0.3965  0.35677999999999993  0.96445  1.0000
  C   C16       1.0  0.7465199999999999  0.7987599999999998  0.08543  1.0000
  C   C17       1.0  0.5403099999999998  0.01703  0.64975  1.0000
  C   C18       1.0  0.58032  0.9644399999999999  0.43387999999999993  1.0000
  C   C19       1.0  0.9217399999999999  0.28559  0.13427  1.0000
  C   C20       1.0  0.06262999999999999  0.5425  0.14925  1.0000
  C   C21       1.0  0.05125000000000002  0.60742  0.93441  1.0000
  C   C22       1.0  0.51039  0.60971  0.10828  1.0000
  C   C23       1.0  0.9557299999999999  0.45886  0.85208  1.0000
  C   C24       1.0  0.3987499999999999  0.05215999999999999  0.57593  1.0000
  O   O1        1.0  0.08808  0.08585999999999996  0.40747  1.0000
  O   O2        1.0  0.27113999999999994  0.10914999999999993  0.8189199999999999  1.0000
  O   O3        1.0  0.82223  0.94145  0.78899  1.0000
  O   O4        1.0  0.83933  0.82439  0.020239999999999994  1.0000
  O   O5        1.0  0.81465  0.148  0.06353  1.0000
  O   O6        1.0  0.06618999999999994  0.6917399999999999  0.73641  1.0000
  O   O7        1.0  0.75371  0.89865  0.18577999999999995  1.0000
  O   O8        1.0  0.15074999999999997  0.07950999999999998  0.22263999999999998  1.0000
  O   O9        1.0  0.1759799999999998  0.1741399999999999  0.9816399999999997  1.0000
  O   O10       1.0  0.87722  0.91323  0.59665  1.0000
  O   O11       1.0  0.99448  0.30801  0.273  1.0000
  O   O12       1.0  0.14652999999999988  0.8589599999999998  0.9393599999999999  1.0000
