data_image0
_chemical_formula_structural       Cs2H16C28S2O12
_chemical_formula_sum              "Cs2 H16 C28 S2 O12"
_cell_length_a       4.87412
_cell_length_b       12.60103
_cell_length_c       15.74064
_cell_angle_alpha    115.77017000000001
_cell_angle_beta     90.46923
_cell_angle_gamma    97.81683000000001

_symmetry_space_group_name_H-M    'P 1'
_symmetry_Int_Tables_number       1

loop_
  _symmetry_equiv_pos_as_xyz
  'x,y,z'

loop_
  _atom_site_type_symbol
  _atom_site_label
  _atom_site_symmetry_multiplicity
  _atom_site_fract_x
  _atom_site_fract_y
  _atom_site_fract_z
  _atom_site_occupancy
  Cs  Cs1       1.0  0.74033  0.67514  0.14945  1.0000
  Cs  Cs2       1.0  0.25967000000000007  0.32486000000000004  0.8505400000000001  1.0000
  H   H1        1.0  0.9410199999999999  0.10555  0.02953  1.0000
  H   H2        1.0  0.33769  0.33513  0.15526  1.0000
  H   H3        1.0  0.7411  0.97094  0.10088  1.0000
  H   H4        1.0  0.13773  0.203  0.22862  1.0000
  H   H5        1.0  0.7413999999999998  0.9479099999999999  0.31889  1.0000
  H   H6        1.0  0.932  0.04774999999999998  0.48568  1.0000
  H   H7        1.0  0.31366  0.27805  0.55815  1.0000
  H   H8        1.0  0.12838  0.18435  0.38787  1.0000
  H   H9        1.0  0.058990000000000035  0.89446  0.97047  1.0000
  H   H10       1.0  0.6623199999999999  0.6648699999999999  0.84474  1.0000
  H   H11       1.0  0.25891  0.029069999999999995  0.89912  1.0000
  H   H12       1.0  0.86228  0.79701  0.77138  1.0000
  H   H13       1.0  0.25860999999999995  0.05208999999999995  0.6811  1.0000
  H   H14       1.0  0.06801  0.95225  0.51431  1.0000
  H   H15       1.0  0.6863399999999998  0.72195  0.44184  1.0000
  H   H16       1.0  0.87162  0.81566  0.61213  1.0000
  C   C1        1.0  0.79198  0.31579  0.05674  1.0000
  C   C2        1.0  0.66424  0.23348  0.09549  1.0000
  C   C3        1.0  0.77716  0.12917  0.07744  1.0000
  C   C4        1.0  0.42969  0.25756999999999997  0.14666999999999997  1.0000
  C   C5        1.0  0.65662  0.05134  0.11328  1.0000
  C   C6        1.0  0.43282999999999994  0.07977000000000001  0.16856  1.0000
  C   C7        1.0  0.30941  0.18085  0.18389  1.0000
  C   C8        1.0  0.42485  0.059430000000000004  0.34371  1.0000
  C   C9        1.0  0.64904  0.02077999999999998  0.37025  1.0000
  C   C10       1.0  0.7641999999999999  0.07986000000000001  0.46335  1.0000
  C   C11       1.0  0.64542  0.17441999999999996  0.53075  1.0000
  C   C12       1.0  0.41211  0.20922  0.5043  1.0000
  C   C13       1.0  0.29877  0.15273  0.41005  1.0000
  C   C14       1.0  0.76634  0.22916  0.63045  1.0000
  C   C15       1.0  0.20802999999999994  0.6842199999999999  0.94325  1.0000
  C   C16       1.0  0.33575999999999995  0.76653  0.90451  1.0000
  C   C17       1.0  0.22284  0.8708399999999998  0.92256  1.0000
  C   C18       1.0  0.57031  0.74244  0.85333  1.0000
  C   C19       1.0  0.34339  0.94867  0.88672  1.0000
  C   C20       1.0  0.56718  0.92024  0.83144  1.0000
  C   C21       1.0  0.6906  0.81916  0.81611  1.0000
  C   C22       1.0  0.57516  0.9405699999999999  0.65629  1.0000
  C   C23       1.0  0.35096999999999995  0.9792199999999999  0.62974  1.0000
  C   C24       1.0  0.23580999999999996  0.92015  0.53665  1.0000
  C   C25       1.0  0.35457999999999995  0.82559  0.46925  1.0000
  C   C26       1.0  0.5878899999999999  0.7907799999999999  0.49569  1.0000
  C   C27       1.0  0.70124  0.84727  0.58994  1.0000
  C   C28       1.0  0.23366999999999993  0.7708499999999999  0.3695399999999999  1.0000
  S   S1        1.0  0.29007  0.9878  0.22265999999999997  1.0000
  S   S2        1.0  0.70994  0.012220000000000055  0.77734  1.0000
  O   O1        1.0  0.99523  0.9990600000000001  0.22561  1.0000
  O   O2        1.0  0.37382999999999994  0.8696199999999997  0.17535  1.0000
  O   O3        1.0  0.68037  0.40605  0.06651  1.0000
  O   O4        1.0  0.01093  0.29482  0.01292  1.0000
  O   O5        1.0  0.66691  0.31347999999999987  0.69591  1.0000
  O   O6        1.0  0.9713199999999999  0.18844999999999998  0.65013  1.0000
  O   O7        1.0  0.004779999999999991  0.0009399999999999715  0.77438  1.0000
  O   O8        1.0  0.62618  0.13037000000000007  0.8246300000000001  1.0000
  O   O9        1.0  0.31965  0.59395  0.93348  1.0000
  O   O10       1.0  0.9890799999999998  0.7051800000000001  0.9870700000000001  1.0000
  O   O11       1.0  0.3331  0.68653  0.30408  1.0000
  O   O12       1.0  0.02869  0.81156  0.34987  1.0000
