data_image0
_chemical_formula_structural       Cu2P4H20C16O12
_chemical_formula_sum              "Cu2 P4 H20 C16 O12"
_cell_length_a       6.57836
_cell_length_b       9.82016
_cell_length_c       10.03613
_cell_angle_alpha    92.52185000000001
_cell_angle_beta     109.18902000000001
_cell_angle_gamma    90.24221000000001

_symmetry_space_group_name_H-M    'P 1'
_symmetry_Int_Tables_number       1

loop_
  _symmetry_equiv_pos_as_xyz
  'x,y,z'

loop_
  _atom_site_type_symbol
  _atom_site_label
  _atom_site_symmetry_multiplicity
  _atom_site_fract_x
  _atom_site_fract_y
  _atom_site_fract_z
  _atom_site_occupancy
  Cu  Cu1       1.0  0.06336999999999993  0.75037  0.9997699999999999  1.0000
  Cu  Cu2       1.0  0.93672  0.24964  0.00023  1.0000
  P   P1        1.0  0.12511  0.008559999999999998  0.20112999999999998  1.0000
  P   P2        1.0  0.9186400000000001  0.49151  0.79717  1.0000
  P   P3        1.0  0.8749200000000001  0.99146  0.79888  1.0000
  P   P4        1.0  0.08135000000000005  0.5085  0.20282  1.0000
  H   H1        1.0  0.3627  0.22418  0.40597  1.0000
  H   H2        1.0  0.33909  0.78559  0.36504  1.0000
  H   H3        1.0  0.77281  0.05171  0.32952  1.0000
  H   H4        1.0  0.59634  0.9335599999999998  0.19967  1.0000
  H   H5        1.0  0.68004  0.08833  0.14508  1.0000
  H   H6        1.0  0.95976  0.27535  0.59517  1.0000
  H   H7        1.0  0.968  0.71392  0.6327  1.0000
  H   H8        1.0  0.4354700000000001  0.44743  0.66531  1.0000
  H   H9        1.0  0.39079000000000014  0.56562  0.79527  1.0000
  H   H10       1.0  0.5283199999999999  0.41054  0.8496399999999998  1.0000
  H   H11       1.0  0.63732  0.77584  0.59405  1.0000
  H   H12       1.0  0.66093  0.21442000000000003  0.63499  1.0000
  H   H13       1.0  0.2272200000000001  0.94832  0.67047  1.0000
  H   H14       1.0  0.4037  0.06645  0.80033  1.0000
  H   H15       1.0  0.31999000000000005  0.9116900000000001  0.85491  1.0000
  H   H16       1.0  0.040190000000000003  0.7246500000000001  0.40479  1.0000
  H   H17       1.0  0.031949999999999985  0.28608  0.36727  1.0000
  H   H18       1.0  0.56452  0.55257  0.33469  1.0000
  H   H19       1.0  0.6092000000000002  0.43439  0.20473  1.0000
  H   H20       1.0  0.4717  0.58947  0.15037  1.0000
  C   C1        1.0  0.3267900000000001  0.005319999999999997  0.37332999999999994  1.0000
  C   C2        1.0  0.42061  0.12642  0.44853  1.0000
  C   C3        1.0  0.40856  0.87907  0.42526  1.0000
  C   C4        1.0  0.72898  0.00793  0.221  1.0000
  C   C5        1.0  0.9515800000000002  0.49412  0.62594  1.0000
  C   C6        1.0  0.97367  0.37328  0.55213  1.0000
  C   C7        1.0  0.97987  0.62065  0.57339  1.0000
  C   C8        1.0  0.50108  0.49123  0.77383  1.0000
  C   C9        1.0  0.67324  0.9946999999999999  0.62668  1.0000
  C   C10       1.0  0.57941  0.8736  0.55149  1.0000
  C   C11       1.0  0.5914599999999999  0.12095  0.5747599999999999  1.0000
  C   C12       1.0  0.27106  0.9920899999999999  0.7789999999999999  1.0000
  C   C13       1.0  0.04841  0.50589  0.37404  1.0000
  C   C14       1.0  0.026310000000000014  0.62673  0.44785  1.0000
  C   C15       1.0  0.02011000000000001  0.37936  0.42658  1.0000
  C   C16       1.0  0.4989200000000001  0.50878  0.22617999999999996  1.0000
  O   O1        1.0  0.21033999999999997  0.91805  0.10451  1.0000
  O   O2        1.0  0.90704  0.9326200000000001  0.19998  1.0000
  O   O3        1.0  0.08882  0.15942  0.17212  1.0000
  O   O4        1.0  0.10031999999999992  0.58297  0.8941799999999999  1.0000
  O   O5        1.0  0.70044  0.56713  0.79386  1.0000
  O   O6        1.0  0.9092700000000002  0.34095  0.8274899999999998  1.0000
  O   O7        1.0  0.7896900000000002  0.08198  0.89549  1.0000
  O   O8        1.0  0.093  0.06739  0.80002  1.0000
  O   O9        1.0  0.91118  0.84059  0.82789  1.0000
  O   O10       1.0  0.89968  0.41706000000000004  0.1058  1.0000
  O   O11       1.0  0.29956  0.43288  0.20613  1.0000
  O   O12       1.0  0.09074  0.65907  0.17251  1.0000
