data_image0
_chemical_formula_structural       Zn4H12C36O18F16
_chemical_formula_sum              "Zn4 H12 C36 O18 F16"
_cell_length_a       7.97373
_cell_length_b       9.773199999999997
_cell_length_c       19.71613
_cell_angle_alpha    90.06893999999998
_cell_angle_beta     89.95341000000002
_cell_angle_gamma    100.95912

_space_group_name_H-M_alt    "P 1"
_space_group_IT_number       1

loop_
  _space_group_symop_operation_xyz
  'x, y, z'

loop_
  _atom_site_type_symbol
  _atom_site_label
  _atom_site_symmetry_multiplicity
  _atom_site_fract_x
  _atom_site_fract_y
  _atom_site_fract_z
  _atom_site_occupancy
  Zn  Zn1       1.0  0.27049  0.16171  0.29424  1.0000
  Zn  Zn2       1.0  0.63729  0.06962  0.25789  1.0000
  Zn  Zn3       1.0  0.7268  0.8383200000000001  0.79298  1.0000
  Zn  Zn4       1.0  0.36156999999999995  0.9303399999999998  0.75942  1.0000
  H   H1        1.0  0.98521  0.22957  0.29465  1.0000
  H   H2        1.0  0.93223  0.36217  0.38381  1.0000
  H   H3        1.0  0.98069  0.20225  0.41391  1.0000
  H   H4        1.0  0.24282999999999996  0.47798  0.40123  1.0000
  H   H5        1.0  0.2852800000000001  0.31854  0.43431999999999993  1.0000
  H   H6        1.0  0.14698  0.40967  0.47853999999999997  1.0000
  H   H7        1.0  0.01409  0.77047  0.79493  1.0000
  H   H8        1.0  0.06715  0.63816  0.88351  1.0000
  H   H9        1.0  0.01945999999999999  0.7978  0.91449  1.0000
  H   H10       1.0  0.75714  0.52233  0.90112  1.0000
  H   H11       1.0  0.7144300000000003  0.68163  0.9344500000000001  1.0000
  H   H12       1.0  0.85272  0.59039  0.9786  1.0000
  C   C1        1.0  0.47113  0.19195  0.0486  1.0000
  C   C2        1.0  0.51486  0.15741  0.9831299999999998  1.0000
  C   C3        1.0  0.4741400000000001  0.02057  0.95968  1.0000
  C   C4        1.0  0.38468  0.9186000000000001  0.00268  1.0000
  C   C5        1.0  0.34197  0.9523500000000001  0.06823  1.0000
  C   C6        1.0  0.38767  0.08906  0.09282  1.0000
  C   C7        1.0  0.34938  0.11543000000000002  0.16556  1.0000
  C   C8        1.0  0.5148  0.9821199999999999  0.8886499999999999  1.0000
  C   C9        1.0  0.85342  0.71543  0.22305  1.0000
  C   C10       1.0  0.77814  0.57457  0.22345  1.0000
  C   C11       1.0  0.70394  0.51218  0.28277  1.0000
  C   C12       1.0  0.70932  0.59294  0.34168  1.0000
  C   C13       1.0  0.78882  0.7333  0.34165  1.0000
  C   C14       1.0  0.85918  0.79651  0.2818  1.0000
  C   C15       1.0  0.95198  0.94584  0.27881  1.0000
  C   C16       1.0  0.61526  0.36208  0.28197  1.0000
  C   C17       1.0  0.034150000000000014  0.30178  0.38933  1.0000
  C   C18       1.0  0.18643  0.38162  0.42774  1.0000
  C   C19       1.0  0.52861  0.80857  0.54707  1.0000
  C   C20       1.0  0.48536999999999997  0.8429599999999999  0.48155000000000003  1.0000
  C   C21       1.0  0.52576  0.97971  0.45811999999999997  1.0000
  C   C22       1.0  0.6150100000000002  0.08169  0.50119  1.0000
  C   C23       1.0  0.65755  0.04811  0.56672  1.0000
  C   C24       1.0  0.61146  0.9116200000000001  0.59146  1.0000
  C   C25       1.0  0.6489599999999999  0.8842799999999998  0.66428  1.0000
  C   C26       1.0  0.48288  0.01777  0.38733  1.0000
  C   C27       1.0  0.147  0.28444  0.72454  1.0000
  C   C28       1.0  0.22169  0.42533  0.72504  1.0000
  C   C29       1.0  0.29668  0.48751  0.7843  1.0000
  C   C30       1.0  0.29063  0.40678  0.8431800000000002  1.0000
  C   C31       1.0  0.21055  0.2664  0.84309  1.0000
  C   C32       1.0  0.14072  0.20305  0.78311  1.0000
  C   C33       1.0  0.04762  0.05373000000000001  0.77835  1.0000
  C   C34       1.0  0.386  0.6375  0.78352  1.0000
  C   C35       1.0  0.96547  0.69876  0.8895299999999999  1.0000
  C   C36       1.0  0.81334  0.61857  0.92785  1.0000
  O   O1        1.0  0.41915  0.04577  0.21026999999999998  1.0000
  O   O2        1.0  0.24914  0.19316  0.18231  1.0000
  O   O3        1.0  0.61996  0.9021200000000001  0.88169  1.0000
  O   O4        1.0  0.43235  0.03329  0.84254  1.0000
  O   O5        1.0  0.10588  0.9679799999999998  0.29676  1.0000
  O   O6        1.0  0.87484  0.0404  0.25565  1.0000
  O   O7        1.0  0.71132  0.27345  0.26946  1.0000
  O   O8        1.0  0.45751  0.33994  0.29299  1.0000
  O   O9        1.0  0.08715  0.27359  0.32007  1.0000
  O   O10       1.0  0.57628  0.95128  0.70952  1.0000
  O   O11       1.0  0.75029  0.80747  0.68058  1.0000
  O   O12       1.0  0.37845  0.0989  0.3811  1.0000
  O   O13       1.0  0.56196  0.96526  0.34064  1.0000
  O   O14       1.0  0.89323  0.031200000000000002  0.79553  1.0000
  O   O15       1.0  0.12498  0.96029  0.75381  1.0000
  O   O16       1.0  0.29057  0.72642  0.77102  1.0000
  O   O17       1.0  0.54366  0.65939  0.79456  1.0000
  O   O18       1.0  0.91183  0.72856  0.82072  1.0000
  F   F1        1.0  0.51632  0.32629  0.06797  1.0000
  F   F2        1.0  0.59952  0.2595  0.9427399999999999  1.0000
  F   F3        1.0  0.33356  0.78654  0.97981  1.0000
  F   F4        1.0  0.25043  0.85296  0.10783  1.0000
  F   F5        1.0  0.92454  0.77345  0.16503  1.0000
  F   F6        1.0  0.7742800000000001  0.50033  0.16532  1.0000
  F   F7        1.0  0.64179  0.53367  0.40014  1.0000
  F   F8        1.0  0.80017  0.80632  0.40039  1.0000
  F   F9        1.0  0.48365  0.674  0.56613  1.0000
  F   F10       1.0  0.40063  0.74075  0.44115  1.0000
  F   F11       1.0  0.66658  0.21352  0.47813999999999995  1.0000
  F   F12       1.0  0.74988  0.14736  0.60621  1.0000
  F   F13       1.0  0.07543  0.22646000000000002  0.66661  1.0000
  F   F14       1.0  0.22506  0.49988999999999995  0.66712  1.0000
  F   F15       1.0  0.3580000000000001  0.46614  0.90172  1.0000
  F   F16       1.0  0.19961  0.19369  0.9018500000000002  1.0000
