data_image0
_chemical_formula_structural       Mg6H18C42O18
_chemical_formula_sum              "Mg6 H18 C42 O18"
_cell_length_a       6.93378
_cell_length_b       21.31058
_cell_length_c       21.30409
_cell_angle_alpha    118.95024
_cell_angle_beta     96.23023
_cell_angle_gamma    96.22968

_symmetry_space_group_name_H-M    'P 1'
_symmetry_Int_Tables_number       1

loop_
  _symmetry_equiv_pos_as_xyz
  'x,y,z'

loop_
  _atom_site_type_symbol
  _atom_site_label
  _atom_site_symmetry_multiplicity
  _atom_site_fract_x
  _atom_site_fract_y
  _atom_site_fract_z
  _atom_site_occupancy
  Mg  Mg1       1.0  0.79575  0.32485  0.6117  1.0000
  Mg  Mg2       1.0  0.47154999999999997  0.28718  0.67487  1.0000
  Mg  Mg3       1.0  0.18419  0.38826000000000005  0.71279  1.0000
  Mg  Mg4       1.0  0.2042600000000001  0.67515  0.3883  1.0000
  Mg  Mg5       1.0  0.52847  0.71282  0.32513  1.0000
  Mg  Mg6       1.0  0.81583  0.61174  0.28721  1.0000
  H   H1        1.0  0.8594100000000001  0.47067  0.58131  1.0000
  H   H2        1.0  0.48607  0.41174  0.49639  1.0000
  H   H3        1.0  0.29175  0.4756699999999999  0.45064999999999994  1.0000
  H   H4        1.0  0.38914  0.11094  0.52929  1.0000
  H   H5        1.0  0.07473000000000002  0.08488000000000001  0.58807  1.0000
  H   H6        1.0  0.8159  0.9749899999999999  0.52448  1.0000
  H   H7        1.0  0.27787  0.41865  0.88902  1.0000
  H   H8        1.0  0.9900200000000005  0.5036900000000002  0.9154300000000001  1.0000
  H   H9        1.0  0.84115  0.54938  0.02527  1.0000
  H   H10       1.0  0.14061  0.52933  0.41869  1.0000
  H   H11       1.0  0.51394  0.58826  0.50361  1.0000
  H   H12       1.0  0.7082600000000002  0.52433  0.54935  1.0000
  H   H13       1.0  0.6108700000000002  0.8890600000000001  0.47070999999999996  1.0000
  H   H14       1.0  0.92528  0.9151199999999999  0.41193  1.0000
  H   H15       1.0  0.18411000000000005  0.02500000000000001  0.47552000000000005  1.0000
  H   H16       1.0  0.7221399999999999  0.58135  0.11097999999999998  1.0000
  H   H17       1.0  0.009990000000000023  0.49631000000000003  0.08457  1.0000
  H   H18       1.0  0.15886000000000003  0.45062  0.97472  1.0000
  C   C1        1.0  0.42098  0.36938  0.58976  1.0000
  C   C2        1.0  0.28965000000000013  0.40630000000000005  0.56515  1.0000
  C   C3        1.0  0.10588  0.42203  0.58833  1.0000
  C   C4        1.0  0.9967500000000001  0.45903  0.56169  1.0000
  C   C5        1.0  0.05892000000000003  0.4799900000000001  0.51295  1.0000
  C   C6        1.0  0.23816  0.46180000000000004  0.48918999999999996  1.0000
  C   C7        1.0  0.3487600000000001  0.42601  0.5149  1.0000
  C   C8        1.0  0.052309999999999995  0.2207  0.6302  1.0000
  C   C9        1.0  0.8839100000000002  0.15906999999999993  0.59341  1.0000
  C   C10       1.0  0.6844100000000001  0.16644  0.57776  1.0000
  C   C11       1.0  0.5379399999999999  0.10276999999999996  0.54087  1.0000
  C   C12       1.0  0.57905  0.03301  0.52001  1.0000
  C   C13       1.0  0.77652  0.02748000000000002  0.53822  1.0000
  C   C14       1.0  0.92315  0.08907999999999994  0.57384  1.0000
  C   C15       1.0  0.8310500000000002  0.41024  0.77934  1.0000
  C   C16       1.0  0.72462  0.43492  0.84101  1.0000
  C   C17       1.0  0.5177600000000001  0.4116600000000001  0.83349  1.0000
  C   C18       1.0  0.43491000000000013  0.43826999999999994  0.89714  1.0000
  C   C19       1.0  0.54604  0.48703  0.96699  1.0000
  C   C20       1.0  0.7491200000000001  0.51078  0.97269  1.0000
  C   C21       1.0  0.83414  0.48512999999999995  0.9111099999999999  1.0000
  C   C22       1.0  0.5790300000000002  0.63062  0.41024  1.0000
  C   C23       1.0  0.71037  0.5937  0.43485  1.0000
  C   C24       1.0  0.8941300000000001  0.57797  0.41167  1.0000
  C   C25       1.0  0.0032699999999999804  0.54097  0.43831000000000003  1.0000
  C   C26       1.0  0.9410899999999999  0.52001  0.4870499999999999  1.0000
  C   C27       1.0  0.7618500000000002  0.5382  0.51081  1.0000
  C   C28       1.0  0.6512500000000002  0.5739900000000001  0.4850900000000001  1.0000
  C   C29       1.0  0.9477000000000002  0.7793  0.3698  1.0000
  C   C30       1.0  0.11610000000000002  0.8409300000000001  0.40658  1.0000
  C   C31       1.0  0.31560000000000005  0.8335600000000001  0.42224  1.0000
  C   C32       1.0  0.46207  0.89723  0.45912  1.0000
  C   C33       1.0  0.42096  0.96699  0.47999  1.0000
  C   C34       1.0  0.22350000000000006  0.97252  0.46178  1.0000
  C   C35       1.0  0.07686999999999995  0.9109199999999998  0.42616  1.0000
  C   C36       1.0  0.16897000000000004  0.58976  0.22066  1.0000
  C   C37       1.0  0.27539000000000013  0.56508  0.15899  1.0000
  C   C38       1.0  0.4822500000000002  0.58834  0.16651  1.0000
  C   C39       1.0  0.56511  0.56173  0.10286  1.0000
  C   C40       1.0  0.45398  0.51297  0.033  1.0000
  C   C41       1.0  0.25090000000000007  0.48922000000000004  0.027299999999999998  1.0000
  C   C42       1.0  0.16588  0.51487  0.08889  1.0000
  O   O1        1.0  0.58043  0.35553  0.56535  1.0000
  O   O2        1.0  0.3720500000000001  0.35236  0.63747  1.0000
  O   O3        1.0  0.031190000000000002  0.40323000000000003  0.6342  1.0000
  O   O4        1.0  0.22580000000000003  0.21012000000000003  0.64377  1.0000
  O   O5        1.0  0.020199999999999996  0.28553  0.6475  1.0000
  O   O6        1.0  0.6289  0.2312  0.59656  1.0000
  O   O7        1.0  0.014729999999999991  0.43487999999999993  0.78989  1.0000
  O   O8        1.0  0.7346  0.36218  0.71447  1.0000
  O   O9        1.0  0.39792  0.3656799999999999  0.76857  1.0000
  O   O10       1.0  0.41959  0.64447  0.43464  1.0000
  O   O11       1.0  0.6279700000000001  0.64764  0.36253  1.0000
  O   O12       1.0  0.9688300000000002  0.59677  0.36579  1.0000
  O   O13       1.0  0.77421  0.78988  0.35622  1.0000
  O   O14       1.0  0.9798100000000003  0.7144700000000003  0.3525  1.0000
  O   O15       1.0  0.37111  0.76879  0.40343  1.0000
  O   O16       1.0  0.9852800000000002  0.56512  0.21011  1.0000
  O   O17       1.0  0.26542000000000004  0.63782  0.28552  1.0000
  O   O18       1.0  0.60209  0.63432  0.23143  1.0000
