data_image0
_chemical_formula_structural       Co2H12C24N8F4
_chemical_formula_sum              "Co2 H12 C24 N8 F4"
_cell_length_a       6.60531
_cell_length_b       13.38714
_cell_length_c       13.394109999999998
_cell_angle_alpha    75.62421
_cell_angle_beta     83.07454
_cell_angle_gamma    82.71706999999999

_space_group_name_H-M_alt    "P 1"
_space_group_IT_number       1

loop_
  _space_group_symop_operation_xyz
  'x, y, z'

loop_
  _atom_site_type_symbol
  _atom_site_label
  _atom_site_symmetry_multiplicity
  _atom_site_fract_x
  _atom_site_fract_y
  _atom_site_fract_z
  _atom_site_occupancy
  Co  Co1       1.0  0.24909  0.024200000000000055  0.97663  1.0000
  Co  Co2       1.0  0.7509099999999997  0.9758  0.02338  1.0000
  H   H1        1.0  0.32324  0.010330000000000004  0.57236  1.0000
  H   H2        1.0  0.27949  0.07723999999999999  0.19502  1.0000
  H   H3        1.0  0.7313099999999998  0.91586  0.27678  1.0000
  H   H4        1.0  0.17827999999999994  0.4272700000000001  0.98965  1.0000
  H   H5        1.0  0.21664999999999993  0.8065300000000001  0.92327  1.0000
  H   H6        1.0  0.7679899999999998  0.72194  0.08416  1.0000
  H   H7        1.0  0.6767599999999997  0.9896700000000003  0.42764  1.0000
  H   H8        1.0  0.7205099999999999  0.9227600000000001  0.8049900000000001  1.0000
  H   H9        1.0  0.26869  0.08414  0.72322  1.0000
  H   H10       1.0  0.8217199999999998  0.57273  0.01035  1.0000
  H   H11       1.0  0.7833399999999998  0.19347  0.07673  1.0000
  H   H12       1.0  0.23200999999999994  0.27806  0.91585  1.0000
  C   C1        1.0  0.17861999999999992  0.007160000000000004  0.54219  1.0000
  C   C2        1.0  0.1789  0.00784000000000001  0.43854  1.0000
  C   C3        1.0  0.004069999999999996  0.00028999999999998694  0.3917  1.0000
  C   C4        1.0  0.007189999999999968  0.9976200000000001  0.28321  1.0000
  C   C5        1.0  0.14617999999999992  0.03669  0.19845  1.0000
  C   C6        1.0  0.86594  0.9538100000000004  0.24016  1.0000
  C   C7        1.0  0.3223599999999999  0.45768  0.9928  1.0000
  C   C8        1.0  0.3191999999999998  0.5615500000000002  0.99219  1.0000
  C   C9        1.0  0.4936399999999998  0.60846  0.9997700000000002  1.0000
  C   C10       1.0  0.49041000000000007  0.71702  0.00246  1.0000
  C   C11       1.0  0.35129999999999967  0.8025100000000002  0.96338  1.0000
  C   C12       1.0  0.6332999999999998  0.7594300000000002  0.0459  1.0000
  C   C13       1.0  0.8213799999999998  0.99284  0.45780999999999994  1.0000
  C   C14       1.0  0.8210999999999999  0.9921600000000002  0.56147  1.0000
  C   C15       1.0  0.99593  0.9997100000000001  0.60831  1.0000
  C   C16       1.0  0.9927999999999998  0.002379999999999999  0.71679  1.0000
  C   C17       1.0  0.8538199999999995  0.9633100000000002  0.80156  1.0000
  C   C18       1.0  0.13405  0.046189999999999995  0.75984  1.0000
  C   C19       1.0  0.67764  0.5423200000000001  0.0072  1.0000
  C   C20       1.0  0.6807999999999997  0.43845000000000006  0.00781  1.0000
  C   C21       1.0  0.5063599999999999  0.3915400000000001  0.00024  1.0000
  C   C22       1.0  0.50959  0.28298000000000006  0.99754  1.0000
  C   C23       1.0  0.6486999999999998  0.19749000000000005  0.03662  1.0000
  C   C24       1.0  0.36668999999999996  0.24057  0.9541099999999999  1.0000
  N   N1        1.0  0.09072  0.017120000000000003  0.11166999999999999  1.0000
  N   N2        1.0  0.9184599999999999  0.9650300000000003  0.1376  1.0000
  N   N3        1.0  0.4084399999999999  0.8891000000000002  0.98244  1.0000
  N   N4        1.0  0.582  0.8623800000000003  0.03419  1.0000
  N   N5        1.0  0.90927  0.9828800000000001  0.88834  1.0000
  N   N6        1.0  0.08153999999999999  0.03496999999999999  0.8624  1.0000
  N   N7        1.0  0.59156  0.11090000000000003  0.01756  1.0000
  N   N8        1.0  0.418  0.13762000000000002  0.96582  1.0000
  F   F1        1.0  0.3640599999999999  0.014969999999999995  0.37902  1.0000
  F   F2        1.0  0.13212999999999994  0.6208100000000001  0.98506  1.0000
  F   F3        1.0  0.6359299999999999  0.9850300000000002  0.62099  1.0000
  F   F4        1.0  0.8678599999999997  0.37919  0.01495  1.0000
