data_image0
_chemical_formula_structural       Mn4P4H4C4O24
_chemical_formula_sum              "Mn4 P4 H4 C4 O24"
_cell_length_a       5.64377
_cell_length_b       8.34224
_cell_length_c       16.03204
_cell_angle_alpha    89.85874
_cell_angle_beta     90.17838
_cell_angle_gamma    91.35578

_space_group_name_H-M_alt    "P 1"
_space_group_IT_number       1

loop_
  _space_group_symop_operation_xyz
  'x, y, z'

loop_
  _atom_site_type_symbol
  _atom_site_label
  _atom_site_symmetry_multiplicity
  _atom_site_fract_x
  _atom_site_fract_y
  _atom_site_fract_z
  _atom_site_occupancy
  Mn  Mn1       1.0  0.5065  0.48417  0.82916  1.0000
  Mn  Mn2       1.0  0.99906  0.01343  0.32983  1.0000
  Mn  Mn3       1.0  0.49372999999999995  0.51493  0.17156  1.0000
  Mn  Mn4       1.0  0.000580000000000002  0.9865  0.67251  1.0000
  P   P1        1.0  0.02523  0.62803  0.76125  1.0000
  P   P2        1.0  0.47989  0.8703500000000002  0.26168999999999987  1.0000
  P   P3        1.0  0.97484  0.37171  0.23913  1.0000
  P   P4        1.0  0.51918  0.12699  0.7400499999999998  1.0000
  H   H1        1.0  0.95409  0.68193  0.89035  1.0000
  H   H2        1.0  0.55009  0.8172100000000002  0.39105  1.0000
  H   H3        1.0  0.04599  0.31825  0.10992  1.0000
  H   H4        1.0  0.45046  0.18132  0.61084  1.0000
  C   C1        1.0  0.37616  0.4610100000000001  0.9997199999999999  1.0000
  C   C2        1.0  0.12443999999999997  0.03735  0.50169  1.0000
  C   C3        1.0  0.62352  0.53996  0.00086  1.0000
  C   C4        1.0  0.8747199999999999  0.96246  0.50152  1.0000
  O   O1        1.0  0.23193999999999995  0.51074  0.7539  1.0000
  O   O2        1.0  0.27996  0.4321500000000001  0.93031  1.0000
  O   O3        1.0  0.28787  0.43176  0.07153  1.0000
  O   O4        1.0  0.05609  0.72796  0.84551  1.0000
  O   O5        1.0  0.7861599999999999  0.53524  0.75953  1.0000
  O   O6        1.0  0.03569  0.7449800000000002  0.68732  1.0000
  O   O7        1.0  0.27805  0.9924  0.25754  1.0000
  O   O8        1.0  0.22301  0.06462  0.43283  1.0000
  O   O9        1.0  0.21199  0.06482  0.57395  1.0000
  O   O10       1.0  0.4539499999999999  0.7678300000000002  0.3455299999999999  1.0000
  O   O11       1.0  0.7218999999999999  0.9594999999999999  0.25834  1.0000
  O   O12       1.0  0.45553  0.75455  0.18776  1.0000
  O   O13       1.0  0.76877  0.48974  0.24613  1.0000
  O   O14       1.0  0.71947  0.56841  0.0704  1.0000
  O   O15       1.0  0.7124699999999999  0.5686  0.92909  1.0000
  O   O16       1.0  0.9439  0.2721600000000001  0.15471  1.0000
  O   O17       1.0  0.21451999999999993  0.46409  0.24102  1.0000
  O   O18       1.0  0.96361  0.2545900000000001  0.3129  1.0000
  O   O19       1.0  0.72419  0.007570000000000001  0.74599  1.0000
  O   O20       1.0  0.7768099999999999  0.93556  0.57073  1.0000
  O   O21       1.0  0.78701  0.9349200000000001  0.4294399999999999  1.0000
  O   O22       1.0  0.5458999999999999  0.2306  0.65667  1.0000
  O   O23       1.0  0.27994  0.03383  0.74182  1.0000
  O   O24       1.0  0.53553  0.24261  0.81403  1.0000
