data_image0
_chemical_formula_structural       Zn5H26C42O20
_chemical_formula_sum              "Zn5 H26 C42 O20"
_cell_length_a       6.1933
_cell_length_b       12.68347
_cell_length_c       16.086949999999998
_cell_angle_alpha    94.90426999999998
_cell_angle_beta     101.19770999999999
_cell_angle_gamma    100.05623999999999

_symmetry_space_group_name_H-M    'P 1'
_symmetry_Int_Tables_number       1

loop_
  _symmetry_equiv_pos_as_xyz
  'x,y,z'

loop_
  _atom_site_type_symbol
  _atom_site_label
  _atom_site_symmetry_multiplicity
  _atom_site_fract_x
  _atom_site_fract_y
  _atom_site_fract_z
  _atom_site_occupancy
  Zn  Zn1       1.0  0.47848  0.04564  0.8972  1.0000
  Zn  Zn2       1.0  0.91819  0.02707999999999997  0.8091099999999998  1.0000
  Zn  Zn3       1.0  0.52108  0.9540100000000002  0.10275999999999998  1.0000
  Zn  Zn4       1.0  0.08177000000000002  0.9729100000000003  0.19079  1.0000
  Zn  Zn5       1.0  0.00061  0.00152  0.00028  1.0000
  H   H1        1.0  0.8119299999999998  0.25067  0.6367199999999997  1.0000
  H   H2        1.0  0.42363  0.49797  0.58322  1.0000
  H   H3        1.0  0.37175  0.32609  0.80106  1.0000
  H   H4        1.0  0.55536  0.5519800000000001  0.8410499999999997  1.0000
  H   H5        1.0  0.5493100000000001  0.7105800000000002  0.94243  1.0000
  H   H6        1.0  0.8728399999999997  0.7165400000000001  0.8147299999999997  1.0000
  H   H7        1.0  0.8821899999999999  0.55845  0.71214  1.0000
  H   H8        1.0  0.4342099999999999  0.21333999999999997  0.4717699999999999  1.0000
  H   H9        1.0  0.48382  0.08489000000000002  0.35348  1.0000
  H   H10       1.0  0.14194000000000004  0.27007000000000003  0.36349  1.0000
  H   H11       1.0  0.08301999999999998  0.4054800000000001  0.47605999999999987  1.0000
  H   H12       1.0  0.18798000000000006  0.7493300000000003  0.36329  1.0000
  H   H13       1.0  0.5763599999999999  0.50206  0.4167999999999999  1.0000
  H   H14       1.0  0.6282300000000001  0.67395  0.19897  1.0000
  H   H15       1.0  0.44454  0.44822000000000006  0.15907  1.0000
  H   H16       1.0  0.45047  0.28959  0.057649999999999986  1.0000
  H   H17       1.0  0.12693  0.28355  0.18527999999999994  1.0000
  H   H18       1.0  0.11776999999999996  0.4416300000000001  0.2879299999999999  1.0000
  H   H19       1.0  0.56575  0.7866400000000002  0.52823  1.0000
  H   H20       1.0  0.51616  0.9151000000000002  0.6465199999999998  1.0000
  H   H21       1.0  0.8580399999999999  0.7299300000000002  0.6365399999999998  1.0000
  H   H22       1.0  0.9169300000000002  0.59452  0.52396  1.0000
  H   H23       1.0  0.19682999999999992  0.15446  0.9303399999999997  1.0000
  H   H24       1.0  0.32758000000000004  0.10683000000000002  0.11989999999999998  1.0000
  H   H25       1.0  0.80469  0.8464500000000001  0.06884999999999997  1.0000
  H   H26       1.0  0.67476  0.89369  0.88105  1.0000
  C   C1        1.0  0.66696  0.19709000000000002  0.7790599999999998  1.0000
  C   C2        1.0  0.6016199999999999  0.28188  0.7250099999999998  1.0000
  C   C3        1.0  0.6919500000000003  0.29795000000000005  0.65262  1.0000
  C   C4        1.0  0.62846  0.37669  0.60288  1.0000
  C   C5        1.0  0.47535999999999995  0.43829  0.6233399999999998  1.0000
  C   C6        1.0  0.38273999999999986  0.4185800000000001  0.6943399999999997  1.0000
  C   C7        1.0  0.4452599999999997  0.34181  0.7462899999999998  1.0000
  C   C8        1.0  0.21976999999999985  0.54982  0.7689799999999998  1.0000
  C   C9        1.0  0.40789  0.58856  0.83515  1.0000
  C   C10       1.0  0.4018999999999999  0.67685  0.8924099999999998  1.0000
  C   C11       1.0  0.21054999999999993  0.72346  0.88625  1.0000
  C   C12       1.0  0.02014  0.6797300000000001  0.8213999999999998  1.0000
  C   C13       1.0  0.02523999999999997  0.59323  0.76348  1.0000
  C   C14       1.0  0.21265999999999993  0.8211300000000002  0.9446699999999998  1.0000
  C   C15       1.0  0.75468  0.3179100000000001  0.47804999999999986  1.0000
  C   C16       1.0  0.58683  0.22619  0.4470099999999999  1.0000
  C   C17       1.0  0.6172099999999999  0.15352000000000002  0.38207999999999986  1.0000
  C   C18       1.0  0.81703  0.16899  0.35183  1.0000
  C   C19       1.0  0.98788  0.25856  0.38729  1.0000
  C   C20       1.0  0.95583  0.33387  0.4498099999999999  1.0000
  C   C21       1.0  0.84157  0.09420999999999999  0.2788799999999999  1.0000
  C   C22       1.0  0.33295  0.80291  0.22099  1.0000
  C   C23       1.0  0.3982899999999999  0.71813  0.27502  1.0000
  C   C24       1.0  0.30796  0.70205  0.3473999999999999  1.0000
  C   C25       1.0  0.37145000000000006  0.6233000000000001  0.39714  1.0000
  C   C26       1.0  0.52462  0.5617399999999999  0.37668  1.0000
  C   C27       1.0  0.61728  0.5815200000000001  0.3057  1.0000
  C   C28       1.0  0.55469  0.6582500000000001  0.25374  1.0000
  C   C29       1.0  0.7801899999999999  0.4503200000000001  0.23110999999999995  1.0000
  C   C30       1.0  0.59195  0.41161000000000003  0.16496999999999995  1.0000
  C   C31       1.0  0.5978400000000001  0.32333000000000006  0.10768999999999997  1.0000
  C   C32       1.0  0.7892000000000001  0.27678  0.11383999999999997  1.0000
  C   C33       1.0  0.9797  0.3204000000000001  0.17867999999999995  1.0000
  C   C34       1.0  0.97467  0.40688000000000013  0.2366  1.0000
  C   C35       1.0  0.78708  0.17929  0.05533  1.0000
  C   C36       1.0  0.24526000000000012  0.6820800000000001  0.52196  1.0000
  C   C37       1.0  0.41314  0.7738  0.55299  1.0000
  C   C38       1.0  0.38277999999999995  0.8464800000000001  0.6179099999999997  1.0000
  C   C39       1.0  0.18296  0.8310000000000001  0.6481599999999997  1.0000
  C   C40       1.0  0.012079999999999936  0.74144  0.61272  1.0000
  C   C41       1.0  0.04411999999999997  0.66612  0.5502  1.0000
  C   C42       1.0  0.1584299999999999  0.90578  0.7210999999999997  1.0000
  O   O1        1.0  0.73747  0.97078  0.89145  1.0000
  O   O2        1.0  0.17721  0.07861000000000001  0.9088  1.0000
  O   O3        1.0  0.5840999999999998  0.18504000000000004  0.8445899999999998  1.0000
  O   O4        1.0  0.8045899999999999  0.14316  0.7534299999999998  1.0000
  O   O5        1.0  0.2054  0.4695100000000001  0.7037299999999997  1.0000
  O   O6        1.0  0.027719999999999852  0.8410800000000002  0.9582699999999997  1.0000
  O   O7        1.0  0.40566  0.88244  0.97614  1.0000
  O   O8        1.0  0.72032  0.4018400000000001  0.5332  1.0000
  O   O9        1.0  0.66507  0.04652999999999999  0.22620999999999994  1.0000
  O   O10       1.0  0.04345999999999994  0.08501000000000002  0.27456999999999987  1.0000
  O   O11       1.0  0.26327  0.029929999999999995  0.10877999999999999  1.0000
  O   O12       1.0  0.82299  0.9219700000000002  0.09111999999999998  1.0000
  O   O13       1.0  0.4158700000000001  0.8149200000000001  0.15544999999999995  1.0000
  O   O14       1.0  0.19535  0.85687  0.24658  1.0000
  O   O15       1.0  0.79476  0.53071  0.29629  1.0000
  O   O16       1.0  0.97243  0.15963  0.04179  1.0000
  O   O17       1.0  0.5944999999999999  0.11792000000000002  0.023769999999999993  1.0000
  O   O18       1.0  0.2796  0.59816  0.4668099999999999  1.0000
  O   O19       1.0  0.3349400000000002  0.9534900000000003  0.77375  1.0000
  O   O20       1.0  0.95654  0.91497  0.72542  1.0000
