data_image0
_chemical_formula_structural       U3P6H24C18O18
_chemical_formula_sum              "U3 P6 H24 C18 O18"
_cell_length_a       6.20981
_cell_length_b       11.39356
_cell_length_c       12.463979999999998
_cell_angle_alpha    93.57549
_cell_angle_beta     100.08762
_cell_angle_gamma    101.4034

_space_group_name_H-M_alt    "P 1"
_space_group_IT_number       1

loop_
  _space_group_symop_operation_xyz
  'x, y, z'

loop_
  _atom_site_type_symbol
  _atom_site_label
  _atom_site_symmetry_multiplicity
  _atom_site_fract_x
  _atom_site_fract_y
  _atom_site_fract_z
  _atom_site_occupancy
  U   U1        1.0  0.14354  0.08632  0.23009999999999997  1.0000
  U   U2        1.0  0.8556  0.9154700000000001  0.7715799999999999  1.0000
  U   U3        1.0  0.5000899999999999  0.50087  0.4998699999999999  1.0000
  P   P1        1.0  0.38303  0.16953  0.51638  1.0000
  P   P2        1.0  0.9026800000000001  0.59343  0.7249300000000001  1.0000
  P   P3        1.0  0.8889  0.15979  0.96895  1.0000
  P   P4        1.0  0.62039  0.83146  0.48394  1.0000
  P   P5        1.0  0.09236000000000003  0.4071900000000001  0.27634  1.0000
  P   P6        1.0  0.11061  0.84211  0.032  1.0000
  H   H1        1.0  0.14687000000000003  0.43934000000000006  0.59765  1.0000
  H   H2        1.0  0.2278100000000001  0.45462000000000014  0.94742  1.0000
  H   H3        1.0  0.17141  0.11684  0.75453  1.0000
  H   H4        1.0  0.04776999999999999  0.24107  0.49002  1.0000
  H   H5        1.0  0.021710000000000024  0.10783000000000001  0.55742  1.0000
  H   H6        1.0  0.2902100000000002  0.6471200000000001  0.73048  1.0000
  H   H7        1.0  0.23127  0.6363  0.86562  1.0000
  H   H8        1.0  0.25144000000000005  0.27029000000000003  0.04073  1.0000
  H   H9        1.0  0.25397000000000014  0.13330000000000006  0.96473  1.0000
  H   H10       1.0  0.5444299999999999  0.03358000000000001  0.59759  1.0000
  H   H11       1.0  0.6071700000000001  0.4878300000000001  0.7652699999999999  1.0000
  H   H12       1.0  0.81027  0.32788  0.91185  1.0000
  H   H13       1.0  0.85102  0.56038  0.40147  1.0000
  H   H14       1.0  0.7721  0.5443200000000001  0.05249999999999999  1.0000
  H   H15       1.0  0.8276700000000002  0.8824700000000001  0.24408999999999997  1.0000
  H   H16       1.0  0.9499  0.7575  0.50959  1.0000
  H   H17       1.0  0.9809400000000001  0.8911500000000001  0.44224  1.0000
  H   H18       1.0  0.70617  0.3526  0.26965  1.0000
  H   H19       1.0  0.7681  0.3631  0.13538  1.0000
  H   H20       1.0  0.75138  0.7291300000000001  0.95898  1.0000
  H   H21       1.0  0.7430900000000001  0.86553  0.03471  1.0000
  H   H22       1.0  0.4522800000000002  0.9664700000000003  0.40394  1.0000
  H   H23       1.0  0.38683999999999996  0.50849  0.23112999999999997  1.0000
  H   H24       1.0  0.18958000000000005  0.6730500000000001  0.08582  1.0000
  C   C1        1.0  0.17402  0.27145  0.66538  1.0000
  C   C2        1.0  0.19679  0.39812  0.6725999999999999  1.0000
  C   C3        1.0  0.21599000000000004  0.4640300000000001  0.77495  1.0000
  C   C4        1.0  0.22263999999999995  0.4041  0.8696199999999998  1.0000
  C   C5        1.0  0.20542  0.27869  0.86403  1.0000
  C   C6        1.0  0.18556000000000003  0.21487000000000003  0.7618899999999998  1.0000
  C   C7        1.0  0.13051  0.19653  0.55655  1.0000
  C   C8        1.0  0.18908000000000005  0.5920100000000001  0.78129  1.0000
  C   C9        1.0  0.17955  0.21314000000000002  0.9633199999999998  1.0000
  C   C10       1.0  0.8245900000000004  0.7283700000000002  0.33417  1.0000
  C   C11       1.0  0.7995000000000001  0.60166  0.32676  1.0000
  C   C12       1.0  0.7798600000000001  0.5356  0.2246  1.0000
  C   C13       1.0  0.77651  0.59526  0.1298  1.0000
  C   C14       1.0  0.7941400000000002  0.7207  0.13542  1.0000
  C   C15       1.0  0.8133300000000001  0.78449  0.23741  1.0000
  C   C16       1.0  0.87024  0.8031200000000002  0.44328  1.0000
  C   C17       1.0  0.8072600000000001  0.4079400000000001  0.21924  1.0000
  C   C18       1.0  0.82018  0.7865900000000001  0.03633  1.0000
  O   O1        1.0  0.5166100000000001  0.29313999999999996  0.50187  1.0000
  O   O2        1.0  0.32936  0.07678999999999998  0.41234  1.0000
  O   O3        1.0  0.49516  0.11005  0.61598  1.0000
  O   O4        1.0  0.83985  0.71331  0.75259  1.0000
  O   O5        1.0  0.85997  0.55623  0.60078  1.0000
  O   O6        1.0  0.7688  0.49312  0.79032  1.0000
  O   O7        1.0  0.78869  0.28013  0.97309  1.0000
  O   O8        1.0  0.7709700000000002  0.07875000000000001  0.86426  1.0000
  O   O9        1.0  0.8719300000000001  0.10487000000000002  0.07619  1.0000
  O   O10       1.0  0.48341  0.7091200000000001  0.49949999999999994  1.0000
  O   O11       1.0  0.6746200000000001  0.92395  0.58817  1.0000
  O   O12       1.0  0.51235  0.89357  0.38473  1.0000
  O   O13       1.0  0.15529  0.28717000000000004  0.25257  1.0000
  O   O14       1.0  0.14032  0.45022000000000006  0.39952  1.0000
  O   O15       1.0  0.22567000000000004  0.50355  0.20826999999999998  1.0000
  O   O16       1.0  0.21237000000000006  0.7223600000000002  0.0256  1.0000
  O   O17       1.0  0.2257400000000001  0.9216100000000003  0.13716  1.0000
  O   O18       1.0  0.12829  0.8998900000000001  0.9257199999999999  1.0000
