data_image0
_chemical_formula_structural       Pr2H24C48O12
_chemical_formula_sum              "Pr2 H24 C48 O12"
_cell_length_a       10.528
_cell_length_b       11.432670000000002
_cell_length_c       13.02387
_cell_angle_alpha    107.78462000000002
_cell_angle_beta     89.71169999999998
_cell_angle_gamma    93.38109

_symmetry_space_group_name_H-M    'P 1'
_symmetry_Int_Tables_number       1

loop_
  _symmetry_equiv_pos_as_xyz
  'x,y,z'

loop_
  _atom_site_type_symbol
  _atom_site_label
  _atom_site_symmetry_multiplicity
  _atom_site_fract_x
  _atom_site_fract_y
  _atom_site_fract_z
  _atom_site_occupancy
  Pr  Pr1       1.0  0.48446  0.44203000000000003  0.3484400000000001  1.0000
  Pr  Pr2       1.0  0.51877  0.5612200000000002  0.65596  1.0000
  H   H1        1.0  0.39713  0.10574  0.27114  1.0000
  H   H2        1.0  0.27386  0.7705500000000002  0.5252  1.0000
  H   H3        1.0  0.24547999999999998  0.29479  0.40868  1.0000
  H   H4        1.0  0.31022  0.91921  0.30856  1.0000
  H   H5        1.0  0.07523  0.8766900000000001  0.57181  1.0000
  H   H6        1.0  0.15979  0.1454  0.24272  1.0000
  H   H7        1.0  0.30857  0.71503  0.16599  1.0000
  H   H8        1.0  0.07204999999999999  0.10166  0.5958  1.0000
  H   H9        1.0  0.93755  0.15817  0.1802  1.0000
  H   H10       1.0  0.39715999999999996  0.6978500000000001  0.98699  1.0000
  H   H11       1.0  0.26681999999999995  0.21983  0.57122  1.0000
  H   H12       1.0  0.80606  0.32213  0.28121  1.0000
  H   H13       1.0  0.60455  0.8976500000000002  0.73203  1.0000
  H   H14       1.0  0.72721  0.22996  0.47717  1.0000
  H   H15       1.0  0.75785  0.70534  0.59378  1.0000
  H   H16       1.0  0.68972  0.08448  0.69422  1.0000
  H   H17       1.0  0.92462  0.12269000000000001  0.42761  1.0000
  H   H18       1.0  0.84379  0.85531  0.7594799999999999  1.0000
  H   H19       1.0  0.69115  0.28875  0.8364  1.0000
  H   H20       1.0  0.9277099999999999  0.89771  0.40344  1.0000
  H   H21       1.0  0.06598999999999998  0.84222  0.82161  1.0000
  H   H22       1.0  0.60345  0.30573000000000006  0.01571  1.0000
  H   H23       1.0  0.73365  0.78071  0.43079  1.0000
  H   H24       1.0  0.19708999999999996  0.6776900000000001  0.72132  1.0000
  C   C1        1.0  0.49527999999999994  0.2401  0.16487  1.0000
  C   C2        1.0  0.50664  0.74118  0.48277000000000003  1.0000
  C   C3        1.0  0.26215  0.4929700000000001  0.56845  1.0000
  C   C4        1.0  0.4976  0.11747999999999999  0.08064  1.0000
  C   C5        1.0  0.50307  0.87462  0.49122  1.0000
  C   C6        1.0  0.12707  0.49370000000000014  0.53551  1.0000
  C   C7        1.0  0.4465  0.01204  0.10458  1.0000
  C   C8        1.0  0.38821  0.9331299999999999  0.51825  1.0000
  C   C9        1.0  0.0788  0.4044  0.44089  1.0000
  C   C10       1.0  0.39535  0.01774000000000001  0.20784000000000002  1.0000
  C   C11       1.0  0.27317  0.8684000000000002  0.53429  1.0000
  C   C12       1.0  0.15104000000000004  0.30496000000000006  0.38021  1.0000
  C   C13       1.0  0.34732  0.9132200000000001  0.2291  1.0000
  C   C14       1.0  0.16201  0.92754  0.56017  1.0000
  C   C15       1.0  0.10203  0.2193  0.28807  1.0000
  C   C16       1.0  0.34764  0.79688  0.14829  1.0000
  C   C17       1.0  0.16013  0.055620000000000044  0.57319  1.0000
  C   C18       1.0  0.9764499999999999  0.22690000000000002  0.25249  1.0000
  C   C19       1.0  0.39759  0.7870800000000002  0.04851  1.0000
  C   C20       1.0  0.26891  0.12138  0.55871  1.0000
  C   C21       1.0  0.90231  0.3193200000000001  0.30971  1.0000
  C   C22       1.0  0.4494099999999999  0.8932900000000003  0.02319  1.0000
  C   C23       1.0  0.38593  0.06304  0.52989  1.0000
  C   C24       1.0  0.95033  0.41118  0.405  1.0000
  C   C25       1.0  0.50961  0.76286  0.83969  1.0000
  C   C26       1.0  0.49573  0.2597  0.51812  1.0000
  C   C27       1.0  0.7418100000000001  0.5082000000000001  0.43268  1.0000
  C   C28       1.0  0.50538  0.88584  0.92287  1.0000
  C   C29       1.0  0.49867  0.12704  0.51305  1.0000
  C   C30       1.0  0.8764899999999999  0.50676  0.46678000000000003  1.0000
  C   C31       1.0  0.55594  0.9912900000000002  0.89873  1.0000
  C   C32       1.0  0.61337  0.06824999999999998  0.48594999999999994  1.0000
  C   C33       1.0  0.92456  0.59575  0.56161  1.0000
  C   C34       1.0  0.6063  0.98572  0.79527  1.0000
  C   C35       1.0  0.72806  0.13229  0.46854  1.0000
  C   C36       1.0  0.85228  0.6952500000000003  0.62227  1.0000
  C   C37       1.0  0.6532  0.09044000000000003  0.7737900000000001  1.0000
  C   C38       1.0  0.8384499999999998  0.07239  0.44097  1.0000
  C   C39       1.0  0.90132  0.7811500000000001  0.7142  1.0000
  C   C40       1.0  0.65263  0.20687000000000005  0.85439  1.0000
  C   C41       1.0  0.8403499999999999  0.94437  0.42789  1.0000
  C   C42       1.0  0.02691  0.77342  0.74958  1.0000
  C   C43       1.0  0.60354  0.21642  0.95441  1.0000
  C   C44       1.0  0.73197  0.87929  0.44398  1.0000
  C   C45       1.0  0.10101  0.68083  0.69265  1.0000
  C   C46       1.0  0.5528399999999999  0.11005000000000006  0.9800400000000001  1.0000
  C   C47       1.0  0.6156599999999999  0.9384200000000003  0.47413  1.0000
  C   C48       1.0  0.05302  0.58893  0.59751  1.0000
  O   O1        1.0  0.38926  0.29168  0.19189  1.0000
  O   O2        1.0  0.48166  0.6615200000000002  0.39191  1.0000
  O   O3        1.0  0.35  0.51448  0.50402  1.0000
  O   O4        1.0  0.59974  0.29238000000000003  0.2112  1.0000
  O   O5        1.0  0.5360099999999999  0.71561  0.56858  1.0000
  O   O6        1.0  0.29327  0.4799200000000001  0.65725  1.0000
  O   O7        1.0  0.61618  0.71288  0.81323  1.0000
  O   O8        1.0  0.52466  0.34245000000000003  0.60681  1.0000
  O   O9        1.0  0.65298  0.48616  0.49619  1.0000
  O   O10       1.0  0.40560999999999997  0.7080800000000002  0.7937  1.0000
  O   O11       1.0  0.46368  0.2811600000000001  0.43132  1.0000
  O   O12       1.0  0.71258  0.52189  0.34383  1.0000
