data_image0
_chemical_formula_structural       La4H12C36O24
_chemical_formula_sum              "La4 H12 C36 O24"
_cell_length_a       10.64324
_cell_length_b       10.64907
_cell_length_c       14.02603
_cell_angle_alpha    90.0
_cell_angle_beta     90.0
_cell_angle_gamma    90.451

_symmetry_space_group_name_H-M    'P 1'
_symmetry_Int_Tables_number       1

loop_
  _symmetry_equiv_pos_as_xyz
  'x,y,z'

loop_
  _atom_site_type_symbol
  _atom_site_label
  _atom_site_symmetry_multiplicity
  _atom_site_fract_x
  _atom_site_fract_y
  _atom_site_fract_z
  _atom_site_occupancy
  La  La1       1.0  0.38315000000000005  0.6214499999999998  0.82071  1.0000
  La  La2       1.0  0.6225200000000001  0.61878  0.5710599999999999  1.0000
  La  La3       1.0  0.6168400000000002  0.37855  0.32071  1.0000
  La  La4       1.0  0.37747  0.38122  0.07107  1.0000
  H   H1        1.0  0.58492  0.030179999999999995  0.55353  1.0000
  H   H2        1.0  0.45564  0.030869999999999995  0.8447499999999998  1.0000
  H   H3        1.0  0.62012  0.50093  0.9436799999999999  1.0000
  H   H4        1.0  0.03129  0.54778  0.59491  1.0000
  H   H5        1.0  0.5011  0.6202399999999999  0.19268  1.0000
  H   H6        1.0  0.97183  0.58278  0.804  1.0000
  H   H7        1.0  0.02817  0.41722  0.30401  1.0000
  H   H8        1.0  0.37988000000000005  0.49906999999999996  0.44369  1.0000
  H   H9        1.0  0.4988900000000001  0.37976  0.69267  1.0000
  H   H10       1.0  0.54436  0.9691299999999998  0.3447499999999999  1.0000
  H   H11       1.0  0.9687  0.45222  0.09491  1.0000
  H   H12       1.0  0.41507000000000005  0.96982  0.05352999999999999  1.0000
  C   C1        1.0  0.4261400000000001  0.7214199999999998  0.022489999999999996  1.0000
  C   C2        1.0  0.57386  0.27858  0.52249  1.0000
  C   C3        1.0  0.07983  0.44782  0.36693  1.0000
  C   C4        1.0  0.91822  0.47878  0.030599999999999995  1.0000
  C   C5        1.0  0.54495  0.21249  0.61351  1.0000
  C   C6        1.0  0.47681000000000007  0.21337999999999996  0.77889  1.0000
  C   C7        1.0  0.7171600000000002  0.43952  0.11778999999999998  1.0000
  C   C8        1.0  0.7220300000000001  0.5064699999999999  0.94553  1.0000
  C   C9        1.0  0.47955  0.98395  0.19919  1.0000
  C   C10       1.0  0.52045  0.01605  0.69919  1.0000
  C   C11       1.0  0.28284  0.5604799999999999  0.6177899999999997  1.0000
  C   C12       1.0  0.27749  0.42407  0.27375  1.0000
  C   C13       1.0  0.45504  0.78751  0.11351  1.0000
  C   C14       1.0  0.5061  0.27813  0.69468  1.0000
  C   C15       1.0  0.51836  0.91818  0.28038  1.0000
  C   C16       1.0  0.52349  0.87577  0.6995599999999997  1.0000
  C   C17       1.0  0.55868  0.7172799999999998  0.3671599999999999  1.0000
  C   C18       1.0  0.87462  0.4818099999999999  0.44929  1.0000
  C   C19       1.0  0.52319  0.78662  0.27889  1.0000
  C   C20       1.0  0.12537  0.51819  0.9492899999999999  1.0000
  C   C21       1.0  0.49390000000000006  0.72187  0.19467999999999994  1.0000
  C   C22       1.0  0.5542200000000002  0.08131  0.61643  1.0000
  C   C23       1.0  0.21144  0.4548599999999999  0.3643899999999999  1.0000
  C   C24       1.0  0.27797  0.49352  0.44553  1.0000
  C   C25       1.0  0.7225100000000001  0.57593  0.77375  1.0000
  C   C26       1.0  0.015080000000000001  0.48318  0.4493699999999999  1.0000
  C   C27       1.0  0.47651  0.12422999999999997  0.19955999999999993  1.0000
  C   C28       1.0  0.78856  0.5451399999999998  0.86439  1.0000
  C   C29       1.0  0.44131  0.28271999999999997  0.86716  1.0000
  C   C30       1.0  0.21362000000000003  0.52447  0.52934  1.0000
  C   C31       1.0  0.98492  0.51682  0.94937  1.0000
  C   C32       1.0  0.9201600000000001  0.55218  0.86693  1.0000
  C   C33       1.0  0.48163  0.08181999999999999  0.78038  1.0000
  C   C34       1.0  0.4457800000000001  0.91869  0.11642999999999998  1.0000
  C   C35       1.0  0.08177  0.5212199999999999  0.5306  1.0000
  C   C36       1.0  0.78637  0.47551999999999994  0.02934  1.0000
  O   O1        1.0  0.60074  0.57534  0.77068  1.0000
  O   O2        1.0  0.18089000000000002  0.43577  0.99982  1.0000
  O   O3        1.0  0.5635700000000001  0.77566  0.44616  1.0000
  O   O4        1.0  0.4428200000000001  0.81906  0.75161  1.0000
  O   O5        1.0  0.5825800000000001  0.59881  0.36255  1.0000
  O   O6        1.0  0.7763  0.4365499999999999  0.19635999999999995  1.0000
  O   O7        1.0  0.42995000000000005  0.59972  0.01883  1.0000
  O   O8        1.0  0.41742  0.40118  0.86255  1.0000
  O   O9        1.0  0.39496  0.178  0.1475  1.0000
  O   O10       1.0  0.18103000000000002  0.60048  0.8986  1.0000
  O   O11       1.0  0.57005  0.40028  0.51883  1.0000
  O   O12       1.0  0.78681  0.5991399999999999  0.6997  1.0000
  O   O13       1.0  0.81896  0.39951999999999993  0.39860999999999996  1.0000
  O   O14       1.0  0.40138  0.58714  0.61431  1.0000
  O   O15       1.0  0.5989300000000001  0.21445999999999998  0.44882  1.0000
  O   O16       1.0  0.40107000000000004  0.78554  0.9488199999999998  1.0000
  O   O17       1.0  0.39925  0.4246599999999999  0.27068  1.0000
  O   O18       1.0  0.43643  0.22433999999999998  0.94616  1.0000
  O   O19       1.0  0.55718  0.18094  0.25161  1.0000
  O   O20       1.0  0.22369000000000003  0.56345  0.69636  1.0000
  O   O21       1.0  0.8191000000000002  0.56422  0.49982  1.0000
  O   O22       1.0  0.5986100000000001  0.4128599999999999  0.11430999999999997  1.0000
  O   O23       1.0  0.60503  0.8219999999999998  0.6475  1.0000
  O   O24       1.0  0.21319  0.40086  0.1997  1.0000
