data_image0
_chemical_formula_structural       La2H12C18O24
_chemical_formula_sum              "La2 H12 C18 O24"
_cell_length_a       10.31455
_cell_length_b       10.50262
_cell_length_c       10.47152
_cell_angle_alpha    121.7023
_cell_angle_beta     90.60921
_cell_angle_gamma    92.80068000000001

_space_group_name_H-M_alt    "P 1"
_space_group_IT_number       1

loop_
  _space_group_symop_operation_xyz
  'x, y, z'

loop_
  _atom_site_type_symbol
  _atom_site_label
  _atom_site_symmetry_multiplicity
  _atom_site_fract_x
  _atom_site_fract_y
  _atom_site_fract_z
  _atom_site_occupancy
  La  La1       1.0  0.94564  0.6518400000000002  0.32522  1.0000
  La  La2       1.0  0.04854  0.34238  0.67251  1.0000
  H   H1        1.0  0.61295  0.31917000000000006  0.8705800000000001  1.0000
  H   H2        1.0  0.72348  0.55502  0.9475000000000001  1.0000
  H   H3        1.0  0.55642  0.53424  0.65699  1.0000
  H   H4        1.0  0.75343  0.3146900000000001  0.41769  1.0000
  H   H5        1.0  0.5591  0.12203000000000001  0.4671100000000001  1.0000
  H   H6        1.0  0.76359  0.07541  0.64604  1.0000
  H   H7        1.0  0.3953999999999999  0.6731000000000001  0.13086  1.0000
  H   H8        1.0  0.27381  0.43946  0.05429  1.0000
  H   H9        1.0  0.44287  0.45981000000000005  0.33726  1.0000
  H   H10       1.0  0.24239  0.68589  0.58538  1.0000
  H   H11       1.0  0.44205  0.8769600000000001  0.53363  1.0000
  H   H12       1.0  0.23862  0.92887  0.35014  1.0000
  C   C1        1.0  0.6245100000000001  0.40611000000000014  0.9918099999999999  1.0000
  C   C2        1.0  0.86019  0.41111000000000003  0.96358  1.0000
  C   C3        1.0  0.74237  0.5184900000000001  0.02873  1.0000
  C   C4        1.0  0.52251  0.56306  0.57441  1.0000
  C   C5        1.0  0.87265  0.53529  0.56387  1.0000
  C   C6        1.0  0.7975  0.41359  0.41957  1.0000
  C   C7        1.0  0.5171  0.00966999999999998  0.4356  1.0000
  C   C8        1.0  0.88211  0.01088000000000002  0.4415  1.0000
  C   C9        1.0  0.80095  0.9777400000000002  0.5446  1.0000
  C   C10       1.0  0.37743  0.59622  0.00826  1.0000
  C   C11       1.0  0.14026  0.60704  0.0425  1.0000
  C   C12       1.0  0.26962  0.47042000000000006  0.96816  1.0000
  C   C13       1.0  0.47374000000000005  0.43159  0.42111  1.0000
  C   C14       1.0  0.12745  0.46393  0.43732  1.0000
  C   C15       1.0  0.20127  0.58519  0.58236  1.0000
  C   C16       1.0  0.48411999999999994  0.98927  0.56513  1.0000
  C   C17       1.0  0.12230000000000002  0.9871900000000001  0.55583  1.0000
  C   C18       1.0  0.20107  0.023999999999999976  0.4530699999999999  1.0000
  O   O1        1.0  0.54683  0.4147600000000001  0.08177  1.0000
  O   O2        1.0  0.94459  0.42585  0.05914  1.0000
  O   O3        1.0  0.8589300000000001  0.3303  0.82174  1.0000
  O   O4        1.0  0.76493  0.6302  0.16996  1.0000
  O   O5        1.0  0.52193  0.6921000000000002  0.60367  1.0000
  O   O6        1.0  0.91982  0.6473600000000002  0.56147  1.0000
  O   O7        1.0  0.8873299999999998  0.50828  0.66739  1.0000
  O   O8        1.0  0.78983  0.42612000000000005  0.30964  1.0000
  O   O9        1.0  0.49439  0.9083200000000001  0.30512  1.0000
  O   O10       1.0  0.93966  0.90182  0.33889  1.0000
  O   O11       1.0  0.88847  0.14574  0.4743  1.0000
  O   O12       1.0  0.7802  0.84871  0.51521  1.0000
  O   O13       1.0  0.44251  0.6012000000000001  0.9153200000000001  1.0000
  O   O14       1.0  0.07044  0.59177  0.93971  1.0000
  O   O15       1.0  0.15135  0.67562  0.1806  1.0000
  O   O16       1.0  0.24046  0.36822000000000005  0.83211  1.0000
  O   O17       1.0  0.47123  0.30312000000000006  0.39383  1.0000
  O   O18       1.0  0.0764  0.35346  0.4404  1.0000
  O   O19       1.0  0.11717  0.49074  0.3333  1.0000
  O   O20       1.0  0.20994  0.57092  0.69106  1.0000
  O   O21       1.0  0.50623  0.09096000000000001  0.69549  1.0000
  O   O22       1.0  0.06611  0.09646000000000002  0.66062  1.0000
  O   O23       1.0  0.11776  0.8519600000000002  0.52055  1.0000
  O   O24       1.0  0.22026999999999997  0.15411  0.48552  1.0000
