data_image0
_chemical_formula_structural       Gd2H22C44O16
_chemical_formula_sum              "Gd2 H22 C44 O16"
_cell_length_a       5.75049
_cell_length_b       13.72797
_cell_length_c       14.90935
_cell_angle_alpha    59.02912000000001
_cell_angle_beta     83.10878000000001
_cell_angle_gamma    79.19334999999998

_symmetry_space_group_name_H-M    'P 1'
_symmetry_Int_Tables_number       1

loop_
  _symmetry_equiv_pos_as_xyz
  'x,y,z'

loop_
  _atom_site_type_symbol
  _atom_site_label
  _atom_site_symmetry_multiplicity
  _atom_site_fract_x
  _atom_site_fract_y
  _atom_site_fract_z
  _atom_site_occupancy
  Gd  Gd1       1.0  0.5622800000000002  0.44689000000000006  0.84237  1.0000
  Gd  Gd2       1.0  0.43770999999999993  0.5531000000000001  0.15762999999999996  1.0000
  H   H1        1.0  0.9108200000000001  0.4048  0.21725999999999995  1.0000
  H   H2        1.0  0.6344100000000003  0.83781  0.73319  1.0000
  H   H3        1.0  0.11110999999999994  0.8093700000000001  0.00141  1.0000
  H   H4        1.0  0.18103999999999995  0.9897700000000003  0.60745  1.0000
  H   H5        1.0  0.13591  0.15908  0.42809  1.0000
  H   H6        1.0  0.41922000000000004  0.2566800000000002  0.5072699999999999  1.0000
  H   H7        1.0  0.46122000000000013  0.0851500000000001  0.6852999999999998  1.0000
  H   H8        1.0  0.86061  0.15401  0.7204  1.0000
  H   H9        1.0  0.055599999999999976  0.30678  0.70821  1.0000
  H   H10       1.0  0.5861299999999999  0.051870000000000124  0.9189699999999997  1.0000
  H   H11       1.0  0.40269000000000005  0.8977400000000001  0.9296299999999998  1.0000
  H   H12       1.0  0.08916999999999994  0.5951900000000002  0.7827399999999998  1.0000
  H   H13       1.0  0.3655900000000001  0.16219000000000003  0.26681  1.0000
  H   H14       1.0  0.88889  0.19062000000000007  0.9985999999999999  1.0000
  H   H15       1.0  0.81895  0.010230000000000003  0.39255  1.0000
  H   H16       1.0  0.8640800000000002  0.8409199999999999  0.57191  1.0000
  H   H17       1.0  0.58078  0.74331  0.49273  1.0000
  H   H18       1.0  0.5387800000000003  0.91484  0.3147  1.0000
  H   H19       1.0  0.1393899999999999  0.8459800000000001  0.27961  1.0000
  H   H20       1.0  0.94439  0.69322  0.29179999999999995  1.0000
  H   H21       1.0  0.4138699999999999  0.94812  0.08102999999999999  1.0000
  H   H22       1.0  0.5973  0.10225  0.07037  1.0000
  C   C1        1.0  0.6000600000000001  0.646  0.9084399999999999  1.0000
  C   C2        1.0  0.9275400000000001  0.6205400000000002  0.07375999999999999  1.0000
  C   C3        1.0  0.89201  0.72439  0.96683  1.0000
  C   C4        1.0  0.7512  0.73298  0.89086  1.0000
  C   C5        1.0  0.7389200000000001  0.8324400000000001  0.7921699999999998  1.0000
  C   C6        1.0  0.8518899999999999  0.9257600000000005  0.76699  1.0000
  C   C7        1.0  0.9914300000000003  0.91892  0.8429699999999998  1.0000
  C   C8        1.0  0.00810000000000016  0.81682  0.9410599999999998  1.0000
  C   C9        1.0  0.82508  0.026729999999999993  0.65898  1.0000
  C   C10       1.0  0.014890000000000002  0.04816000000000001  0.58581  1.0000
  C   C11       1.0  0.9898099999999999  0.14303000000000002  0.48489  1.0000
  C   C12       1.0  0.7749400000000002  0.21853000000000006  0.4561599999999999  1.0000
  C   C13       1.0  0.58383  0.19713000000000003  0.52893  1.0000
  C   C14       1.0  0.60841  0.10103000000000001  0.62906  1.0000
  C   C15       1.0  0.74573  0.32033  0.3502999999999999  1.0000
  C   C16       1.0  0.11375999999999996  0.013120000000000048  0.8268699999999999  1.0000
  C   C17       1.0  0.020189999999999996  0.1303000000000001  0.7634099999999998  1.0000
  C   C18       1.0  0.12946000000000005  0.21685999999999997  0.75622  1.0000
  C   C19       1.0  0.33269  0.18868  0.8129899999999999  1.0000
  C   C20       1.0  0.42944000000000004  0.07300000000000012  0.8747499999999998  1.0000
  C   C21       1.0  0.32350999999999985  0.9865500000000004  0.8804899999999998  1.0000
  C   C22       1.0  0.43922  0.27825000000000005  0.8143  1.0000
  C   C23       1.0  0.39993999999999996  0.35399000000000014  0.09155999999999997  1.0000
  C   C24       1.0  0.07246000000000002  0.37945  0.92624  1.0000
  C   C25       1.0  0.10797999999999996  0.2756100000000001  0.03316999999999999  1.0000
  C   C26       1.0  0.24879  0.26701  0.10913999999999999  1.0000
  C   C27       1.0  0.26108000000000003  0.1675500000000001  0.20782999999999993  1.0000
  C   C28       1.0  0.1481  0.07423000000000003  0.23300999999999994  1.0000
  C   C29       1.0  0.008570000000000001  0.08107000000000003  0.15702999999999995  1.0000
  C   C30       1.0  0.99189  0.18317  0.05893999999999999  1.0000
  C   C31       1.0  0.17490999999999982  0.9732700000000002  0.34101999999999993  1.0000
  C   C32       1.0  0.9850999999999999  0.9518300000000001  0.41419  1.0000
  C   C33       1.0  0.010179999999999953  0.85697  0.51511  1.0000
  C   C34       1.0  0.22504999999999997  0.7814600000000002  0.54384  1.0000
  C   C35       1.0  0.4161599999999998  0.8028600000000002  0.4710699999999999  1.0000
  C   C36       1.0  0.39157999999999993  0.89896  0.37094  1.0000
  C   C37       1.0  0.25427000000000016  0.67967  0.6497  1.0000
  C   C38       1.0  0.88623  0.98687  0.17313  1.0000
  C   C39       1.0  0.9798  0.86969  0.23659999999999998  1.0000
  C   C40       1.0  0.8705400000000001  0.78313  0.24377999999999994  1.0000
  C   C41       1.0  0.6672999999999999  0.8113200000000003  0.18700999999999995  1.0000
  C   C42       1.0  0.5705499999999999  0.9269900000000001  0.12525  1.0000
  C   C43       1.0  0.67648  0.013440000000000007  0.11951  1.0000
  C   C44       1.0  0.56078  0.72174  0.1857  1.0000
  O   O1        1.0  0.6323700000000002  0.6092100000000003  0.8444699999999998  1.0000
  O   O2        1.0  0.43881  0.6208300000000001  0.97949  1.0000
  O   O3        1.0  0.8293299999999999  0.53212  0.1009  1.0000
  O   O4        1.0  0.05049999999999996  0.62245  0.13806  1.0000
  O   O5        1.0  0.5570099999999999  0.38894000000000023  0.32333  1.0000
  O   O6        1.0  0.93514  0.3317000000000001  0.2871099999999999  1.0000
  O   O7        1.0  0.41056  0.3826899999999999  0.73921  1.0000
  O   O8        1.0  0.55149  0.24985000000000004  0.8960899999999999  1.0000
  O   O9        1.0  0.36762  0.3907900000000001  0.15553999999999998  1.0000
  O   O10       1.0  0.5611800000000001  0.37915999999999994  0.02051  1.0000
  O   O11       1.0  0.17065999999999992  0.4678800000000002  0.8990999999999998  1.0000
  O   O12       1.0  0.9494899999999998  0.3775400000000003  0.8619399999999998  1.0000
  O   O13       1.0  0.44298999999999994  0.6110599999999999  0.67668  1.0000
  O   O14       1.0  0.06486000000000008  0.66829  0.7128899999999999  1.0000
  O   O15       1.0  0.5894299999999999  0.6173  0.26079  1.0000
  O   O16       1.0  0.44849999999999995  0.7501500000000001  0.10391  1.0000
