data_image0
_chemical_formula_structural       Ca2Cu2H8C24S4O16
_chemical_formula_sum              "Ca2 Cu2 H8 C24 S4 O16"
_cell_length_a       9.85238
_cell_length_b       10.02217
_cell_length_c       11.90755
_cell_angle_alpha    101.90397999999999
_cell_angle_beta     102.02693000000001
_cell_angle_gamma    123.33464

_space_group_name_H-M_alt    "P 1"
_space_group_IT_number       1

loop_
  _space_group_symop_operation_xyz
  'x, y, z'

loop_
  _atom_site_type_symbol
  _atom_site_label
  _atom_site_symmetry_multiplicity
  _atom_site_fract_x
  _atom_site_fract_y
  _atom_site_fract_z
  _atom_site_occupancy
  Ca  Ca1       1.0  0.0  0.5  0.5  1.0000
  Ca  Ca2       1.0  0.5  0.0  0.0  1.0000
  Cu  Cu1       1.0  0.83411  0.16827000000000003  0.24441999999999997  1.0000
  Cu  Cu2       1.0  0.16589000000000007  0.83173  0.75558  1.0000
  H   H1        1.0  0.40877  0.34983  0.60708  1.0000
  H   H2        1.0  0.61322  0.2667  0.56526  1.0000
  H   H3        1.0  0.64315  0.60187  0.90321  1.0000
  H   H4        1.0  0.71608  0.39052  0.9379  1.0000
  H   H5        1.0  0.59123  0.65018  0.39292000000000005  1.0000
  H   H6        1.0  0.3867800000000002  0.7333000000000001  0.43474000000000007  1.0000
  H   H7        1.0  0.35685000000000006  0.39813000000000004  0.09679  1.0000
  H   H8        1.0  0.28391000000000005  0.6094800000000001  0.06210000000000001  1.0000
  C   C1        1.0  0.16422000000000012  0.3067700000000001  0.3878  1.0000
  C   C2        1.0  0.29147000000000006  0.2709200000000001  0.40657  1.0000
  C   C3        1.0  0.40486000000000005  0.29806  0.51582  1.0000
  C   C4        1.0  0.5132699999999999  0.2541399999999999  0.49349999999999994  1.0000
  C   C5        1.0  0.47620000000000007  0.18888000000000005  0.36676  1.0000
  C   C6        1.0  0.56443  0.1395000000000001  0.30415  1.0000
  C   C7        1.0  0.72582  0.8621400000000002  0.13172  1.0000
  C   C8        1.0  0.74683  0.7266  0.10584  1.0000
  C   C9        1.0  0.7018600000000002  0.6068000000000001  0.99353  1.0000
  C   C10       1.0  0.74001  0.49431  0.01205  1.0000
  C   C11       1.0  0.8158600000000001  0.53277  0.13817  1.0000
  C   C12       1.0  0.8667999999999999  0.44598  0.20048000000000002  1.0000
  C   C13       1.0  0.83578  0.69323  0.6122  1.0000
  C   C14       1.0  0.70853  0.7290800000000002  0.59343  1.0000
  C   C15       1.0  0.5951400000000001  0.70195  0.48416999999999993  1.0000
  C   C16       1.0  0.48673  0.74586  0.5065  1.0000
  C   C17       1.0  0.5238000000000003  0.8111200000000002  0.63324  1.0000
  C   C18       1.0  0.4355700000000001  0.8605  0.69585  1.0000
  C   C19       1.0  0.2741800000000001  0.13786000000000007  0.8682800000000002  1.0000
  C   C20       1.0  0.2531700000000001  0.27341000000000015  0.89416  1.0000
  C   C21       1.0  0.29814  0.3932  0.006469999999999999  1.0000
  C   C22       1.0  0.25999  0.5056900000000001  0.9879500000000001  1.0000
  C   C23       1.0  0.18414000000000008  0.46724  0.86183  1.0000
  C   C24       1.0  0.13320000000000018  0.5540300000000001  0.7995200000000001  1.0000
  S   S1        1.0  0.3088  0.18123  0.27546  1.0000
  S   S2        1.0  0.84296  0.70753  0.23402  1.0000
  S   S3        1.0  0.6912000000000001  0.81878  0.72454  1.0000
  S   S4        1.0  0.15704000000000004  0.2924800000000001  0.76598  1.0000
  O   O1        1.0  0.07907999999999998  0.26515  0.27142  1.0000
  O   O2        1.0  0.14227  0.37066999999999994  0.47904  1.0000
  O   O3        1.0  0.7287700000000001  0.21133  0.36595  1.0000
  O   O4        1.0  0.48128  0.034550000000000025  0.19078000000000003  1.0000
  O   O5        1.0  0.7836400000000002  0.9522400000000002  0.24926  1.0000
  O   O6        1.0  0.6606399999999999  0.8923  0.04539  1.0000
  O   O7        1.0  0.97723  0.52982  0.31215  1.0000
  O   O8        1.0  0.78958  0.28244  0.13921  1.0000
  O   O9        1.0  0.9209199999999998  0.73486  0.72858  1.0000
  O   O10       1.0  0.8577300000000001  0.62933  0.52096  1.0000
  O   O11       1.0  0.27123  0.78867  0.63405  1.0000
  O   O12       1.0  0.5187199999999997  0.96545  0.8092199999999999  1.0000
  O   O13       1.0  0.21636  0.04775999999999998  0.75074  1.0000
  O   O14       1.0  0.33936  0.1076999999999999  0.95461  1.0000
  O   O15       1.0  0.02277000000000004  0.47018  0.68785  1.0000
  O   O16       1.0  0.21041999999999997  0.71756  0.8607899999999999  1.0000
