data_image0
_chemical_formula_structural       La2H18C42O12
_chemical_formula_sum              "La2 H18 C42 O12"
_cell_length_a       7.92013
_cell_length_b       11.62031
_cell_length_c       11.62067
_cell_angle_alpha    72.77569
_cell_angle_beta     88.56751
_cell_angle_gamma    88.56884

_symmetry_space_group_name_H-M    'P 1'
_symmetry_Int_Tables_number       1

loop_
  _symmetry_equiv_pos_as_xyz
  'x,y,z'

loop_
  _atom_site_type_symbol
  _atom_site_label
  _atom_site_symmetry_multiplicity
  _atom_site_fract_x
  _atom_site_fract_y
  _atom_site_fract_z
  _atom_site_occupancy
  La  La1       1.0  0.25701  0.007950000000000007  0.97551  1.0000
  La  La2       1.0  0.7570199999999998  0.9755100000000002  0.00795  1.0000
  H   H1        1.0  0.6321999999999998  0.7068000000000001  0.8660800000000001  1.0000
  H   H2        1.0  0.68292  0.53919  0.9139400000000002  1.0000
  H   H3        1.0  0.7953399999999998  0.33121  0.98914  1.0000
  H   H4        1.0  0.06753000000000002  0.37114  0.65858  1.0000
  H   H5        1.0  0.09836  0.4621  0.4893400000000001  1.0000
  H   H6        1.0  0.17409  0.58993  0.28452000000000005  1.0000
  H   H7        1.0  0.8861800000000001  0.88278  0.34256  1.0000
  H   H8        1.0  0.7348099999999997  0.9448300000000002  0.44184  1.0000
  H   H9        1.0  0.55871  0.029020000000000004  0.57632  1.0000
  H   H10       1.0  0.1322  0.86609  0.7067900000000001  1.0000
  H   H11       1.0  0.18291999999999994  0.9139500000000004  0.53918  1.0000
  H   H12       1.0  0.29534  0.9891500000000001  0.33120000000000005  1.0000
  H   H13       1.0  0.56753  0.6585900000000002  0.37114  1.0000
  H   H14       1.0  0.59836  0.48934000000000005  0.46209  1.0000
  H   H15       1.0  0.6740899999999997  0.28452  0.58993  1.0000
  H   H16       1.0  0.3861799999999999  0.34257  0.88277  1.0000
  H   H17       1.0  0.23481  0.4418399999999999  0.9448100000000003  1.0000
  H   H18       1.0  0.058719999999999994  0.57632  0.02901  1.0000
  C   C1        1.0  0.48362  0.9229800000000001  0.81032  1.0000
  C   C2        1.0  0.5872399999999998  0.87148  0.72963  1.0000
  C   C3        1.0  0.65404  0.7552400000000001  0.77182  1.0000
  C   C4        1.0  0.7468899999999997  0.7018700000000001  0.69548  1.0000
  C   C5        1.0  0.80852  0.57761  0.7387  1.0000
  C   C6        1.0  0.76585  0.5040599999999998  0.85588  1.0000
  C   C7        1.0  0.82855  0.38761  0.89919  1.0000
  C   C8        1.0  0.93982  0.34143000000000007  0.8271200000000002  1.0000
  C   C9        1.0  0.019600000000000003  0.22110999999999995  0.8758500000000001  1.0000
  C   C10       1.0  0.9807799999999995  0.4111  0.71046  1.0000
  C   C11       1.0  0.91301  0.52831  0.6626800000000002  1.0000
  C   C12       1.0  0.9493599999999998  0.6001  0.5385400000000001  1.0000
  C   C13       1.0  0.04920000000000001  0.55393  0.4590300000000001  1.0000
  C   C14       1.0  0.09203000000000001  0.6242200000000001  0.34383  1.0000
  C   C15       1.0  0.03236  0.74409  0.30254000000000003  1.0000
  C   C16       1.0  0.08827999999999998  0.8240500000000001  0.18383000000000002  1.0000
  C   C17       1.0  0.9284099999999997  0.78967  0.37746  1.0000
  C   C18       1.0  0.8848  0.72063  0.49544  1.0000
  C   C19       1.0  0.78208  0.77211  0.5746600000000001  1.0000
  C   C20       1.0  0.71343  0.89053  0.5343100000000001  1.0000
  C   C21       1.0  0.6144599999999998  0.93901  0.6086300000000001  1.0000
  C   C22       1.0  0.98361  0.81033  0.9229700000000001  1.0000
  C   C23       1.0  0.08722999999999999  0.72964  0.8714700000000001  1.0000
  C   C24       1.0  0.15403999999999993  0.7718300000000001  0.7552300000000001  1.0000
  C   C25       1.0  0.24688999999999997  0.69548  0.70186  1.0000
  C   C26       1.0  0.30852  0.73871  0.57761  1.0000
  C   C27       1.0  0.26584999999999986  0.85589  0.50405  1.0000
  C   C28       1.0  0.3285499999999999  0.89919  0.3876000000000001  1.0000
  C   C29       1.0  0.43983  0.8271200000000001  0.34143  1.0000
  C   C30       1.0  0.5195999999999997  0.8758500000000001  0.22111  1.0000
  C   C31       1.0  0.48077999999999976  0.71047  0.4111000000000001  1.0000
  C   C32       1.0  0.4130099999999999  0.6626900000000002  0.52831  1.0000
  C   C33       1.0  0.44935999999999987  0.53855  0.6001  1.0000
  C   C34       1.0  0.5492  0.45903000000000005  0.55392  1.0000
  C   C35       1.0  0.5920299999999997  0.34383000000000014  0.62422  1.0000
  C   C36       1.0  0.53236  0.30254999999999993  0.7440800000000002  1.0000
  C   C37       1.0  0.58828  0.18383  0.8240500000000001  1.0000
  C   C38       1.0  0.4284099999999999  0.37745999999999996  0.7896700000000001  1.0000
  C   C39       1.0  0.38479  0.49544000000000005  0.72063  1.0000
  C   C40       1.0  0.28207999999999983  0.57467  0.7721000000000001  1.0000
  C   C41       1.0  0.21343000000000004  0.5343099999999998  0.89052  1.0000
  C   C42       1.0  0.11446  0.60864  0.939  1.0000
  O   O1        1.0  0.5159899999999997  0.8895  0.9256600000000003  1.0000
  O   O2        1.0  0.3644399999999998  0.9972300000000001  0.7700700000000003  1.0000
  O   O3        1.0  0.9617399999999998  0.14762999999999998  0.9760600000000003  1.0000
  O   O4        1.0  0.14964999999999995  0.19347000000000011  0.82289  1.0000
  O   O5        1.0  0.20801  0.7927400000000001  0.12460000000000002  1.0000
  O   O6        1.0  0.01685  0.9308500000000001  0.14313  1.0000
  O   O7        1.0  0.015989999999999994  0.9256700000000001  0.8894900000000002  1.0000
  O   O8        1.0  0.8644299999999998  0.77008  0.9972200000000001  1.0000
  O   O9        1.0  0.4617399999999999  0.9760700000000001  0.14762  1.0000
  O   O10       1.0  0.6496599999999998  0.82289  0.19347000000000003  1.0000
  O   O11       1.0  0.7080099999999998  0.12459999999999996  0.79274  1.0000
  O   O12       1.0  0.51685  0.14312999999999998  0.9308400000000002  1.0000
