data_image0
_chemical_formula_structural       Nd2H24C42O12
_chemical_formula_sum              "Nd2 H24 C42 O12"
_cell_length_a       8.97066
_cell_length_b       14.238180000000002
_cell_length_c       15.297309999999998
_cell_angle_alpha    115.00842999999999
_cell_angle_beta     106.88366
_cell_angle_gamma    89.98523999999999

_space_group_name_H-M_alt    "P 1"
_space_group_IT_number       1

loop_
  _space_group_symop_operation_xyz
  'x, y, z'

loop_
  _atom_site_type_symbol
  _atom_site_label
  _atom_site_symmetry_multiplicity
  _atom_site_fract_x
  _atom_site_fract_y
  _atom_site_fract_z
  _atom_site_occupancy
  Nd  Nd1       1.0  0.3616400000000001  0.99184  0.4621100000000001  1.0000
  Nd  Nd2       1.0  0.8991199999999998  0.008800000000000014  0.53889  1.0000
  H   H1        1.0  0.18936  0.19751  0.33385  1.0000
  H   H2        1.0  0.18487999999999993  0.3634100000000001  0.31586  1.0000
  H   H3        1.0  0.83247  0.44676  0.4654900000000001  1.0000
  H   H4        1.0  0.8356399999999998  0.2798400000000001  0.4801100000000001  1.0000
  H   H5        1.0  0.07934  0.46195000000000014  0.24818  1.0000
  H   H6        1.0  0.12495000000000005  0.63716  0.25473000000000007  1.0000
  H   H7        1.0  0.9880199999999999  0.7763700000000002  0.52412  1.0000
  H   H8        1.0  0.9546299999999998  0.60415  0.52299  1.0000
  H   H9        1.0  0.5754299999999999  0.2789000000000001  0.7681000000000002  1.0000
  H   H10       1.0  0.6606499999999997  0.44259000000000004  0.92759  1.0000
  H   H11       1.0  0.19562000000000002  0.42750000000000016  0.9512600000000002  1.0000
  H   H12       1.0  0.10899000000000002  0.26965  0.78575  1.0000
  H   H13       1.0  0.8533  0.8026100000000003  0.66566  1.0000
  H   H14       1.0  0.8675599999999999  0.63689  0.68369  1.0000
  H   H15       1.0  0.3676  0.55314  0.53477  1.0000
  H   H16       1.0  0.3557100000000001  0.7200700000000002  0.51991  1.0000
  H   H17       1.0  0.83006  0.53772  0.75122  1.0000
  H   H18       1.0  0.86881  0.3621900000000002  0.7440500000000001  1.0000
  H   H19       1.0  0.46458  0.22387000000000007  0.47627  1.0000
  H   H20       1.0  0.43204999999999993  0.39635000000000004  0.4774100000000001  1.0000
  H   H21       1.0  0.8068399999999998  0.7197900000000003  0.23069  1.0000
  H   H22       1.0  0.73181  0.5561000000000001  0.07103  1.0000
  H   H23       1.0  0.24440999999999996  0.5735300000000002  0.049950000000000015  1.0000
  H   H24       1.0  0.32354  0.73143  0.21546  1.0000
  C   C1        1.0  0.028170000000000008  0.13150000000000006  0.42474  1.0000
  C   C2        1.0  0.01550999999999998  0.22889  0.40979  1.0000
  C   C3        1.0  0.11134  0.25278  0.36196  1.0000
  C   C4        1.0  0.10822999999999998  0.3456  0.35202  1.0000
  C   C5        1.0  0.010640000000000002  0.41867  0.39105  1.0000
  C   C6        1.0  0.91178  0.39303  0.43669  1.0000
  C   C7        1.0  0.9128899999999999  0.29915000000000014  0.4450400000000001  1.0000
  C   C8        1.0  0.017060000000000016  0.51993  0.38636000000000004  1.0000
  C   C9        1.0  0.061219999999999955  0.5308300000000001  0.3096  1.0000
  C   C10       1.0  0.08491  0.6286200000000001  0.31210000000000004  1.0000
  C   C11       1.0  0.061210000000000056  0.71843  0.3905400000000001  1.0000
  C   C12       1.0  0.008240000000000051  0.70732  0.46373  1.0000
  C   C13       1.0  0.98788  0.60987  0.4623700000000001  1.0000
  C   C14       1.0  0.10868999999999997  0.8240500000000002  0.40218  1.0000
  C   C15       1.0  0.28184  0.16398  0.66977  1.0000
  C   C16       1.0  0.33581  0.26388000000000017  0.7656400000000002  1.0000
  C   C17       1.0  0.49209  0.31346000000000007  0.80765  1.0000
  C   C18       1.0  0.53939  0.40565  0.8982600000000001  1.0000
  C   C19       1.0  0.43368999999999996  0.4511700000000002  0.9515900000000003  1.0000
  C   C20       1.0  0.27856000000000003  0.3983100000000002  0.9099600000000002  1.0000
  C   C21       1.0  0.22999  0.30787  0.81833  1.0000
  C   C22       1.0  0.6041799999999998  0.86904  0.57564  1.0000
  C   C23       1.0  0.60543  0.7716800000000003  0.5904300000000001  1.0000
  C   C24       1.0  0.74803  0.7473800000000004  0.6377700000000002  1.0000
  C   C25       1.0  0.75517  0.65467  0.64774  1.0000
  C   C26       1.0  0.61921  0.58163  0.60902  1.0000
  C   C27       1.0  0.4751  0.60723  0.56336  1.0000
  C   C28       1.0  0.46786000000000005  0.7011900000000002  0.5549100000000001  1.0000
  C   C29       1.0  0.6304899999999999  0.48013000000000006  0.61362  1.0000
  C   C30       1.0  0.7511299999999999  0.46888  0.68993  1.0000
  C   C31       1.0  0.7720899999999999  0.37087000000000014  0.6870400000000002  1.0000
  C   C32       1.0  0.66981  0.28131000000000006  0.6092200000000001  1.0000
  C   C33       1.0  0.5445599999999998  0.29282  0.53623  1.0000
  C   C34       1.0  0.5256299999999998  0.39039000000000007  0.53772  1.0000
  C   C35       1.0  0.7046200000000001  0.17530000000000012  0.5969000000000001  1.0000
  C   C36       1.0  0.6122999999999998  0.83595  0.33025  1.0000
  C   C37       1.0  0.5701000000000002  0.73599  0.23436000000000007  1.0000
  C   C38       1.0  0.6839699999999996  0.68587  0.19178  1.0000
  C   C39       1.0  0.6406  0.59376  0.10115000000000003  1.0000
  C   C40       1.0  0.48177  0.54883  0.0484  1.0000
  C   C41       1.0  0.36859  0.6021200000000001  0.09065000000000002  1.0000
  C   C42       1.0  0.4116  0.69258  0.18229  1.0000
  O   O1        1.0  0.14769  0.08517000000000005  0.41373000000000004  1.0000
  O   O2        1.0  0.91704  0.10149000000000008  0.44840000000000013  1.0000
  O   O3        1.0  0.10162999999999998  0.9057900000000002  0.48137  1.0000
  O   O4        1.0  0.17015  0.8326700000000001  0.34021  1.0000
  O   O5        1.0  0.37974000000000013  0.12913000000000013  0.6209400000000003  1.0000
  O   O6        1.0  0.14275999999999994  0.11822000000000005  0.64246  1.0000
  O   O7        1.0  0.7343800000000001  0.91569  0.5866100000000001  1.0000
  O   O8        1.0  0.46973  0.8989600000000002  0.55169  1.0000
  O   O9        1.0  0.6169799999999999  0.09401000000000004  0.5183  1.0000
  O   O10       1.0  0.82923  0.16605000000000003  0.6575000000000001  1.0000
  O   O11       1.0  0.75789  0.8712  0.37934000000000007  1.0000
  O   O12       1.0  0.50001  0.8817500000000001  0.35763  1.0000
