data_image0
_chemical_formula_structural       Zn2H16C32N2O10
_chemical_formula_sum              "Zn2 H16 C32 N2 O10"
_cell_length_a       14.46633
_cell_length_b       16.1989
_cell_length_c       14.884640000000001
_cell_angle_alpha    90.02797999999999
_cell_angle_beta     89.9628
_cell_angle_gamma    83.68119000000002

_space_group_name_H-M_alt    "P 1"
_space_group_IT_number       1

loop_
  _space_group_symop_operation_xyz
  'x, y, z'

loop_
  _atom_site_type_symbol
  _atom_site_label
  _atom_site_symmetry_multiplicity
  _atom_site_fract_x
  _atom_site_fract_y
  _atom_site_fract_z
  _atom_site_occupancy
  Zn  Zn1       1.0  0.8726600000000002  0.01869  0.89748  1.0000
  Zn  Zn2       1.0  0.8727100000000002  0.018669999999999992  0.08889  1.0000
  H   H1        1.0  0.72105  0.46123  0.99911  1.0000
  H   H2        1.0  0.72681  0.6139  0.99922  1.0000
  H   H3        1.0  0.16639000000000007  0.75486  0.58917  1.0000
  H   H4        1.0  0.15146000000000007  0.84209  0.66272  1.0000
  H   H5        1.0  0.069  0.76813  0.66322  1.0000
  H   H6        1.0  0.10422000000000002  0.8844899999999998  0.5051  1.0000
  H   H7        1.0  0.02291000000000002  0.8089099999999998  0.50376  1.0000
  H   H8        1.0  0.02647  0.57543  0.99921  1.0000
  H   H9        1.0  0.020550000000000013  0.4227899999999999  0.99905  1.0000
  H   H10       1.0  0.9833100000000001  0.9184199999999998  0.40753  1.0000
  H   H11       1.0  0.76132  0.11963  0.40701  1.0000
  H   H12       1.0  0.57792  0.2842599999999999  0.5882800000000001  1.0000
  H   H13       1.0  0.5923000000000003  0.19704  0.66194  1.0000
  H   H14       1.0  0.6754600000000001  0.27042  0.662  1.0000
  H   H15       1.0  0.63891  0.15481  0.5035  1.0000
  H   H16       1.0  0.7224400000000002  0.22854  0.50356  1.0000
  C   C1        1.0  0.8652200000000002  0.18009999999999995  0.99542  1.0000
  C   C2        1.0  0.86507  0.26938  0.99605  1.0000
  C   C3        1.0  0.05304  0.01236  0.99417  1.0000
  C   C4        1.0  0.15293  0.01279  0.99447  1.0000
  C   C5        1.0  0.7875800000000001  0.4865799999999999  0.99867  1.0000
  C   C6        1.0  0.79085  0.5719299999999998  0.99866  1.0000
  C   C7        1.0  0.9598400000000002  0.55027  0.99864  1.0000
  C   C8        1.0  0.9565900000000003  0.4649  0.99864  1.0000
  C   C9        1.0  0.8703799999999999  0.43153  0.99824  1.0000
  C   C10       1.0  0.87705  0.6053499999999998  0.99818  1.0000
  C   C11       1.0  0.8799000000000002  0.69249  0.9973  1.0000
  C   C12       1.0  0.8672400000000002  0.34445  0.9974  1.0000
  C   C13       1.0  0.5078  0.02214  0.99582  1.0000
  C   C14       1.0  0.4152900000000001  0.01965  0.99602  1.0000
  C   C15       1.0  0.33013  0.0172  0.99597  1.0000
  C   C16       1.0  0.23764000000000002  0.01482  0.99544  1.0000
  C   C17       1.0  0.88032  0.85708  0.9953  1.0000
  C   C18       1.0  0.88117  0.76768  0.99602  1.0000
  C   C19       1.0  0.69241  0.025  0.99519  1.0000
  C   C20       1.0  0.5925  0.02431  0.99539  1.0000
  C   C21       1.0  0.93503  0.9608499999999998  0.53981  1.0000
  C   C22       1.0  0.9357400000000002  0.96142  0.44575000000000004  1.0000
  C   C23       1.0  0.80862  0.07674  0.44552  1.0000
  C   C24       1.0  0.8079500000000002  0.07684  0.53963  1.0000
  C   C25       1.0  0.8714400000000002  0.01892  0.5867  1.0000
  C   C26       1.0  0.8725200000000002  0.019229999999999994  0.40091  1.0000
  C   C27       1.0  0.8728500000000002  0.019229999999999994  0.30537  1.0000
  C   C28       1.0  0.8716300000000001  0.018969999999999994  0.68165  1.0000
  C   C29       1.0  0.11465  0.80098  0.62029  1.0000
  C   C30       1.0  0.059710000000000034  0.8494599999999998  0.54713  1.0000
  C   C31       1.0  0.62932  0.23787  0.61932  1.0000
  C   C32       1.0  0.6838600000000002  0.18878  0.54625  1.0000
  N   N1        1.0  0.87214  0.019039999999999994  0.75976  1.0000
  N   N2        1.0  0.87317  0.01889  0.22736  1.0000
  O   O1        1.0  0.8797300000000002  0.8920499999999998  0.07219  1.0000
  O   O2        1.0  0.86557  0.14527  0.07233  1.0000
  O   O3        1.0  0.014420000000000007  0.01242  0.07117999999999998  1.0000
  O   O4        1.0  0.73094  0.025059999999999992  0.0722  1.0000
  O   O5        1.0  0.014370000000000003  0.01239  0.91737  1.0000
  O   O6        1.0  0.8656700000000003  0.14545  0.91848  1.0000
  O   O7        1.0  0.8796100000000001  0.8918  0.91841  1.0000
  O   O8        1.0  0.73102  0.02502  0.91825  1.0000
  O   O9        1.0  0.9908200000000001  0.9085999999999997  0.59142  1.0000
  O   O10       1.0  0.75083  0.12836  0.59107  1.0000
