data_image0
_chemical_formula_structural       Co3H24C38N12O8
_chemical_formula_sum              "Co3 H24 C38 N12 O8"
_cell_length_a       11.44453
_cell_length_b       11.698999999999998
_cell_length_c       11.8616
_cell_angle_alpha    64.68762
_cell_angle_beta     81.43415
_cell_angle_gamma    72.1551

_symmetry_space_group_name_H-M    'P 1'
_symmetry_Int_Tables_number       1

loop_
  _symmetry_equiv_pos_as_xyz
  'x,y,z'

loop_
  _atom_site_type_symbol
  _atom_site_label
  _atom_site_symmetry_multiplicity
  _atom_site_fract_x
  _atom_site_fract_y
  _atom_site_fract_z
  _atom_site_occupancy
  Co  Co1       1.0  0.9999400000000002  0.00016999999999999999  6.000000000000001e-05  1.0000
  Co  Co2       1.0  0.00032999999999999897  0.9998600000000001  0.49973  1.0000
  Co  Co3       1.0  0.99983  0.49943999999999994  0.50078  1.0000
  H   H1        1.0  0.55414  0.56344  0.66788  1.0000
  H   H2        1.0  0.21021  0.018119999999999987  0.30069  1.0000
  H   H3        1.0  0.13908000000000004  0.19135  0.9856999999999999  1.0000
  H   H4        1.0  0.36562000000000006  0.5850099999999998  0.63734  1.0000
  H   H5        1.0  0.8468100000000001  0.27413  0.3597  1.0000
  H   H6        1.0  0.64688  0.7977899999999999  0.01988  1.0000
  H   H7        1.0  0.74647  0.19896999999999998  0.96307  1.0000
  H   H8        1.0  0.4266400000000001  0.8913000000000001  0.28497  1.0000
  H   H9        1.0  0.4734300000000001  0.7941  0.03145  1.0000
  H   H10       1.0  0.21964000000000006  0.53499  0.32787  1.0000
  H   H11       1.0  0.35313  0.20219999999999994  0.9801200000000001  1.0000
  H   H12       1.0  0.5733699999999998  0.10870000000000005  0.71502  1.0000
  H   H13       1.0  0.78979  0.98192  0.69932  1.0000
  H   H14       1.0  0.8096300000000001  0.62893  0.28633  1.0000
  H   H15       1.0  0.7804200000000001  0.4650399999999999  0.6721  1.0000
  H   H16       1.0  0.52658  0.20588999999999993  0.96855  1.0000
  H   H17       1.0  0.44589000000000006  0.43655  0.33212  1.0000
  H   H18       1.0  0.63441  0.41496999999999995  0.36265  1.0000
  H   H19       1.0  0.19035999999999995  0.3711099999999999  0.71367  1.0000
  H   H20       1.0  0.8609200000000001  0.8086399999999999  0.01431  1.0000
  H   H21       1.0  0.25354999999999994  0.8010300000000001  0.03694  1.0000
  H   H22       1.0  0.15323999999999996  0.7258200000000001  0.64033  1.0000
  H   H23       1.0  0.41612  0.26779  0.73415  1.0000
  H   H24       1.0  0.5839000000000001  0.7322000000000001  0.26585  1.0000
  C   C1        1.0  0.26706  0.4761099999999999  0.41621  1.0000
  C   C2        1.0  0.4515199999999999  0.3426100000000001  0.53364  1.0000
  C   C3        1.0  0.37649999999999995  0.32671  0.64225  1.0000
  C   C4        1.0  0.038069999999999965  0.9706900000000002  0.76806  1.0000
  C   C5        1.0  0.4028899999999999  0.88506  0.0208  1.0000
  C   C6        1.0  0.71899  0.11155000000000005  0.97644  1.0000
  C   C7        1.0  0.56496  0.000580000000000008  0.99722  1.0000
  C   C8        1.0  0.24835999999999997  0.92137  0.37337000000000004  1.0000
  C   C9        1.0  0.96168  0.03025  0.233  1.0000
  C   C10       1.0  0.63126  0.15029  0.63492  1.0000
  C   C11       1.0  0.39313  0.42221  0.41969999999999996  1.0000
  C   C12       1.0  0.017109999999999997  0.11156000000000002  0.73119  1.0000
  C   C13       1.0  0.54845  0.6574199999999999  0.46637  1.0000
  C   C14       1.0  0.9523  0.7523800000000002  0.51287  1.0000
  C   C15       1.0  0.6633499999999999  0.8900300000000001  0.00804  1.0000
  C   C16       1.0  0.9788600000000001  0.77822  0.37994000000000006  1.0000
  C   C17       1.0  0.75146  0.07867000000000002  0.6267  1.0000
  C   C18       1.0  0.7832800000000001  0.24118000000000006  0.43683999999999995  1.0000
  C   C19       1.0  0.5971399999999998  0.11497  0.9791  1.0000
  C   C20       1.0  0.25066  0.3844499999999999  0.63073  1.0000
  C   C21       1.0  0.021039999999999993  0.22205  0.62009  1.0000
  C   C22       1.0  0.9829799999999999  0.88797  0.26897  1.0000
  C   C23       1.0  0.2810200000000001  0.88842  0.02363  1.0000
  C   C24       1.0  0.4350399999999999  0.99938  0.00285  1.0000
  C   C25       1.0  0.7330400000000001  0.52373  0.58404  1.0000
  C   C26       1.0  0.60696  0.57774  0.58021  1.0000
  C   C27       1.0  0.36876  0.8496400000000001  0.36505  1.0000
  C   C28       1.0  0.7828700000000001  0.89422  0.00503  1.0000
  C   C29       1.0  0.04753  0.24813999999999994  0.48758  1.0000
  C   C30       1.0  0.58331  0.27198  0.53783  1.0000
  C   C31       1.0  0.6235499999999999  0.67323  0.35772  1.0000
  C   C32       1.0  0.21687000000000006  0.75887  0.56296  1.0000
  C   C33       1.0  0.74908  0.6156299999999999  0.36919  1.0000
  C   C34       1.0  0.6640599999999999  0.31854999999999994  0.4383000000000001  1.0000
  C   C35       1.0  0.21710000000000004  0.10576000000000002  0.9950499999999999  1.0000
  C   C36       1.0  0.4166700000000001  0.72804  0.46216  1.0000
  C   C37       1.0  0.33601000000000003  0.6812999999999999  0.56174  1.0000
  C   C38       1.0  0.3366700000000001  0.10998999999999998  0.99187  1.0000
  N   N1        1.0  0.9948799999999999  0.32525  0.65324  1.0000
  N   N2        1.0  0.81199  0.0038599999999999906  0.99002  1.0000
  N   N3        1.0  0.18799999999999997  0.99615  0.0099  1.0000
  N   N4        1.0  0.024410000000000008  0.71471  0.22333  1.0000
  N   N5        1.0  0.19614000000000006  0.4571700000000001  0.51994  1.0000
  N   N6        1.0  0.004459999999999964  0.6735400000000001  0.34809  1.0000
  N   N7        1.0  0.82651  0.12125000000000002  0.52854  1.0000
  N   N8        1.0  0.9896899999999998  0.15489  0.8245800000000001  1.0000
  N   N9        1.0  0.17439999999999997  0.87822  0.47279  1.0000
  N   N10       1.0  0.010410000000000056  0.8444799999999999  0.17585  1.0000
  N   N11       1.0  0.9756699999999998  0.28518000000000004  0.7761499999999999  1.0000
  N   N12       1.0  0.80491  0.54392  0.47883  1.0000
  O   O1        1.0  0.04500999999999998  0.92344  0.68477  1.0000
  O   O2        1.0  0.95313  0.10167  0.11508  1.0000
  O   O3        1.0  0.04696000000000003  0.89835  0.88416  1.0000
  O   O4        1.0  0.95427  0.6342300000000001  0.58485  1.0000
  O   O5        1.0  0.9262200000000003  0.8439999999999999  0.55082  1.0000
  O   O6        1.0  0.04558000000000001  0.36668  0.41406  1.0000
  O   O7        1.0  0.9543399999999999  0.07720999999999999  0.31264  1.0000
  O   O8        1.0  0.07347  0.1552  0.4501800000000001  1.0000
