data_image0
_chemical_formula_structural       Mn2H36C36S2N12O8
_chemical_formula_sum              "Mn2 H36 C36 S2 N12 O8"
_cell_length_a       8.94328
_cell_length_b       9.93475
_cell_length_c       12.24536
_cell_angle_alpha    98.24386
_cell_angle_beta     95.40412
_cell_angle_gamma    90.96322

_space_group_name_H-M_alt    "P 1"
_space_group_IT_number       1

loop_
  _space_group_symop_operation_xyz
  'x, y, z'

loop_
  _atom_site_type_symbol
  _atom_site_label
  _atom_site_symmetry_multiplicity
  _atom_site_fract_x
  _atom_site_fract_y
  _atom_site_fract_z
  _atom_site_occupancy
  Mn  Mn1       1.0  0.0019499999999999995  0.99936  0.00192  1.0000
  Mn  Mn2       1.0  0.9842  0.99749  0.50553  1.0000
  H   H1        1.0  0.34815  0.69713  0.20125  1.0000
  H   H2        1.0  0.82893  0.68302  0.1973  1.0000
  H   H3        1.0  0.5857899999999999  0.35532  0.30194  1.0000
  H   H4        1.0  0.32433  0.38949  0.33867  1.0000
  H   H5        1.0  0.23417  0.54021  0.3087  1.0000
  H   H6        1.0  0.59559  0.9220399999999999  0.22272  1.0000
  H   H7        1.0  0.6978599999999999  0.8553600000000001  0.11302000000000002  1.0000
  H   H8        1.0  0.9613999999999999  0.52132  0.28282  1.0000
  H   H9        1.0  0.8938  0.37342  0.19217  1.0000
  H   H10       1.0  0.18217999999999995  0.53295  0.07286000000000001  1.0000
  H   H11       1.0  0.020210000000000013  0.31581  0.9384400000000002  1.0000
  H   H12       1.0  0.2016  0.18072  0.23291000000000003  1.0000
  H   H13       1.0  0.53409  0.75066  0.9222900000000003  1.0000
  H   H14       1.0  0.25492999999999993  0.83221  0.8383800000000002  1.0000
  H   H15       1.0  0.31888  0.9711700000000001  0.18175000000000002  1.0000
  H   H16       1.0  0.81259  0.51453  0.4886300000000001  1.0000
  H   H17       1.0  0.8549200000000001  0.29645000000000005  0.6108300000000001  1.0000
  H   H18       1.0  0.9442  0.16665  0.28136  1.0000
  H   H19       1.0  0.6538399999999999  0.3035  0.79924  1.0000
  H   H20       1.0  0.17398  0.31864000000000003  0.8070300000000001  1.0000
  H   H21       1.0  0.41461  0.64429  0.69795  1.0000
  H   H22       1.0  0.67582  0.61224  0.66257  1.0000
  H   H23       1.0  0.7672299999999999  0.46204000000000006  0.69185  1.0000
  H   H24       1.0  0.40566  0.07885000000000002  0.7775000000000001  1.0000
  H   H25       1.0  0.3047799999999999  0.14472  0.88824  1.0000
  H   H26       1.0  0.040579999999999984  0.4759300000000001  0.71757  1.0000
  H   H27       1.0  0.10530000000000002  0.62386  0.8094000000000001  1.0000
  H   H28       1.0  0.81738  0.46835  0.92867  1.0000
  H   H29       1.0  0.9800799999999998  0.68548  0.06287000000000001  1.0000
  H   H30       1.0  0.7992199999999998  0.8195000000000001  0.76796  1.0000
  H   H31       1.0  0.46769  0.24735  0.07826  1.0000
  H   H32       1.0  0.7478  0.16713  0.16166  1.0000
  H   H33       1.0  0.68321  0.029009999999999984  0.81838  1.0000
  H   H34       1.0  0.18778999999999998  0.4883700000000001  0.5112800000000001  1.0000
  H   H35       1.0  0.13673  0.70761  0.39166000000000006  1.0000
  H   H36       1.0  0.052409999999999984  0.83043  0.72329  1.0000
  C   C1        1.0  0.45213999999999993  0.51862  0.2515  1.0000
  C   C2        1.0  0.4532399999999999  0.64419  0.21205  1.0000
  C   C3        1.0  0.5886199999999999  0.70266  0.19025  1.0000
  C   C4        1.0  0.7226  0.63567  0.20961  1.0000
  C   C5        1.0  0.7225299999999999  0.51026  0.2487  1.0000
  C   C6        1.0  0.58667  0.45167  0.26927  1.0000
  C   C7        1.0  0.30543  0.45815  0.2765  1.0000
  C   C8        1.0  0.59422  0.8406800000000001  0.15172000000000002  1.0000
  C   C9        1.0  0.8711999999999998  0.44272  0.2667300000000001  1.0000
  C   C10       1.0  0.16196  0.42846  0.08426  1.0000
  C   C11       1.0  0.08295  0.32131  0.019340000000000003  1.0000
  C   C12       1.0  0.17559  0.24493000000000006  0.16919000000000003  1.0000
  C   C13       1.0  0.44764999999999994  0.80885  0.9615900000000002  1.0000
  C   C14       1.0  0.30841  0.84769  0.92227  1.0000
  C   C15       1.0  0.33759  0.92608  0.09829  1.0000
  C   C16       1.0  0.84552  0.4108  0.46601  1.0000
  C   C17       1.0  0.8660199999999999  0.30341  0.5244  1.0000
  C   C18       1.0  0.91499  0.23046000000000003  0.3552900000000001  1.0000
  C   C19       1.0  0.5490499999999999  0.48186  0.7492000000000001  1.0000
  C   C20       1.0  0.54866  0.35637  0.7888  1.0000
  C   C21       1.0  0.41369999999999996  0.29798000000000013  0.8114500000000002  1.0000
  C   C22       1.0  0.27986  0.36533000000000004  0.79326  1.0000
  C   C23       1.0  0.27897  0.4899  0.75297  1.0000
  C   C24       1.0  0.41425  0.54839  0.73134  1.0000
  C   C25       1.0  0.69527  0.54321  0.72442  1.0000
  C   C26       1.0  0.408  0.15951000000000004  0.8490800000000002  1.0000
  C   C27       1.0  0.12951000000000001  0.5557200000000001  0.7346300000000001  1.0000
  C   C28       1.0  0.8380299999999999  0.5726800000000002  0.9170300000000002  1.0000
  C   C29       1.0  0.9174999999999999  0.6796700000000001  0.98183  1.0000
  C   C30       1.0  0.8253599999999999  0.75592  0.8319000000000001  1.0000
  C   C31       1.0  0.55466  0.1901  0.03876  1.0000
  C   C32       1.0  0.69433  0.15193  0.07778  1.0000
  C   C33       1.0  0.66539  0.07439000000000004  0.9017900000000002  1.0000
  C   C34       1.0  0.15302999999999997  0.59119  0.53544  1.0000
  C   C35       1.0  0.12841  0.69922  0.47828  1.0000
  C   C36       1.0  0.08158  0.76828  0.64854  1.0000
  S   S1        1.0  0.9653099999999999  0.09809000000000002  0.73172  1.0000
  S   S2        1.0  0.04395000000000001  0.90516  0.26636000000000004  1.0000
  N   N1        1.0  0.09258999999999996  0.20743  0.07277  1.0000
  N   N2        1.0  0.22000000000000003  0.37868000000000007  0.17914000000000005  1.0000
  N   N3        1.0  0.23997999999999997  0.92072  0.00813  1.0000
  N   N4        1.0  0.46535  0.8607000000000001  0.07338  1.0000
  N   N5        1.0  0.90985  0.19143000000000002  0.45481  1.0000
  N   N6        1.0  0.8774  0.36326  0.35874  1.0000
  N   N7        1.0  0.90856  0.79329  0.9281300000000002  1.0000
  N   N8        1.0  0.7802  0.62243  0.82206  1.0000
  N   N9        1.0  0.76321  0.07991000000000002  0.9917300000000001  1.0000
  N   N10       1.0  0.53705  0.13876000000000002  0.9269100000000001  1.0000
  N   N11       1.0  0.08347999999999998  0.8092  0.54948  1.0000
  N   N12       1.0  0.12236  0.63628  0.64345  1.0000
  O   O1        1.0  0.022550000000000025  0.026240000000000024  0.8274400000000001  1.0000
  O   O2        1.0  0.09282999999999998  0.11377  0.66087  1.0000
  O   O3        1.0  0.8478099999999997  0.007080000000000008  0.65581  1.0000
  O   O4        1.0  0.90323  0.23205  0.7731  1.0000
  O   O5        1.0  0.96995  0.96643  0.16856000000000004  1.0000
  O   O6        1.0  0.9226399999999999  0.89327  0.34472  1.0000
  O   O7        1.0  0.16633  0.9996200000000001  0.32742  1.0000
  O   O8        1.0  0.09861  0.76699  0.22752  1.0000
