data_image0
_chemical_formula_structural       Sr3H12C24O18
_chemical_formula_sum              "Sr3 H12 C24 O18"
_cell_length_a       11.42156
_cell_length_b       12.033759999999997
_cell_length_c       12.21444
_cell_angle_alpha    100.86104
_cell_angle_beta     106.53955
_cell_angle_gamma    107.9218

_symmetry_space_group_name_H-M    'P 1'
_symmetry_Int_Tables_number       1

loop_
  _symmetry_equiv_pos_as_xyz
  'x,y,z'

loop_
  _atom_site_type_symbol
  _atom_site_label
  _atom_site_symmetry_multiplicity
  _atom_site_fract_x
  _atom_site_fract_y
  _atom_site_fract_z
  _atom_site_occupancy
  Sr  Sr1       1.0  0.27077999999999985  0.26596999999999993  0.7529499999999999  1.0000
  Sr  Sr2       1.0  0.72921  0.73402  0.24704999999999994  1.0000
  Sr  Sr3       1.0  0.0  0.9999999999999999  0.4999999999999999  1.0000
  H   H1        1.0  0.11307999999999997  0.47742999999999997  0.69559  1.0000
  H   H2        1.0  0.21000999999999992  0.13343999999999995  0.9928299999999998  1.0000
  H   H3        1.0  0.25536  0.93486  0.4319  1.0000
  H   H4        1.0  0.8687299999999999  0.22645999999999997  0.32084  1.0000
  H   H5        1.0  0.8042099999999999  0.89062  0.72515  1.0000
  H   H6        1.0  0.6092599999999999  0.25112999999999996  0.7107399999999999  1.0000
  H   H7        1.0  0.8869099999999999  0.52257  0.30441  1.0000
  H   H8        1.0  0.7899899999999999  0.8665499999999998  0.007169999999999998  1.0000
  H   H9        1.0  0.7446299999999999  0.06513999999999999  0.5681  1.0000
  H   H10       1.0  0.13125999999999993  0.7735399999999999  0.67916  1.0000
  H   H11       1.0  0.19578999999999996  0.10937999999999999  0.27485  1.0000
  H   H12       1.0  0.39073  0.74887  0.28925999999999996  1.0000
  C   C1        1.0  0.001040000000000003  0.26383  0.51465  1.0000
  C   C2        1.0  0.99861  0.38455  0.50772  1.0000
  C   C3        1.0  0.9308799999999999  0.39634999999999987  0.39577  1.0000
  C   C4        1.0  0.06491000000000001  0.48763  0.60967  1.0000
  C   C5        1.0  0.01655000000000002  0.02541999999999999  0.77401  1.0000
  C   C6        1.0  0.0078099999999998995  0.011559999999999895  0.8895999999999997  1.0000
  C   C7        1.0  0.11783999999999997  0.07581999999999994  0.99638  1.0000
  C   C8        1.0  0.8873100000000002  0.9336099999999999  0.89272  1.0000
  C   C9        1.0  0.38426  0.14292999999999997  0.61599  1.0000
  C   C10       1.0  0.44427999999999995  0.07125999999999995  0.5555799999999999  1.0000
  C   C11       1.0  0.58458  0.11013000000000003  0.59438  1.0000
  C   C12       1.0  0.36208999999999986  0.9626199999999997  0.46174999999999994  1.0000
  C   C13       1.0  0.9989500000000001  0.7361699999999999  0.48535  1.0000
  C   C14       1.0  0.0013800000000000025  0.61544  0.49228  1.0000
  C   C15       1.0  0.06910999999999995  0.60365  0.60423  1.0000
  C   C16       1.0  0.9350799999999998  0.5123699999999998  0.3903299999999999  1.0000
  C   C17       1.0  0.9834399999999998  0.9745799999999998  0.22598999999999994  1.0000
  C   C18       1.0  0.99218  0.98843  0.1104  1.0000
  C   C19       1.0  0.88215  0.92418  0.0036099999999999995  1.0000
  C   C20       1.0  0.11268999999999998  0.06639  0.10726999999999998  1.0000
  C   C21       1.0  0.61573  0.8570699999999998  0.3840099999999999  1.0000
  C   C22       1.0  0.5557199999999999  0.9287399999999998  0.44441999999999987  1.0000
  C   C23       1.0  0.41541000000000006  0.88987  0.40560999999999997  1.0000
  C   C24       1.0  0.63791  0.037380000000000004  0.53825  1.0000
  O   O1        1.0  0.9259599999999999  0.16811999999999996  0.42623999999999995  1.0000
  O   O2        1.0  0.08086999999999996  0.25662999999999997  0.6100399999999999  1.0000
  O   O3        1.0  0.86336  0.29977999999999994  0.29456  1.0000
  O   O4        1.0  0.9153699999999999  0.96789  0.67738  1.0000
  O   O5        1.0  0.12719  0.09571999999999999  0.7729799999999999  1.0000
  O   O6        1.0  0.7779399999999996  0.86808  0.7924899999999998  1.0000
  O   O7        1.0  0.25822999999999996  0.10662999999999995  0.5854899999999998  1.0000
  O   O8        1.0  0.46075999999999995  0.24357  0.70354  1.0000
  O   O9        1.0  0.6683199999999999  0.21520999999999998  0.6835699999999999  1.0000
  O   O10       1.0  0.07403999999999993  0.8318799999999998  0.57376  1.0000
  O   O11       1.0  0.91912  0.7433699999999998  0.3899499999999999  1.0000
  O   O12       1.0  0.13663999999999998  0.70022  0.7054399999999998  1.0000
  O   O13       1.0  0.08462  0.03211  0.32262  1.0000
  O   O14       1.0  0.8728  0.9042799999999999  0.22701999999999997  1.0000
  O   O15       1.0  0.22205000000000003  0.13192  0.20751  1.0000
  O   O16       1.0  0.74177  0.89337  0.41451  1.0000
  O   O17       1.0  0.53923  0.75643  0.29645  1.0000
  O   O18       1.0  0.3316699999999999  0.7847899999999998  0.3164199999999999  1.0000
