data_image0
_chemical_formula_structural       Eu4H8C28N8O24
_chemical_formula_sum              "Eu4 H8 C28 N8 O24"
_cell_length_a       8.33241
_cell_length_b       9.63389
_cell_length_c       16.61916
_cell_angle_alpha    89.7129
_cell_angle_beta     89.80139
_cell_angle_gamma    97.30944999999998

_symmetry_space_group_name_H-M    'P 1'
_symmetry_Int_Tables_number       1

loop_
  _symmetry_equiv_pos_as_xyz
  'x,y,z'

loop_
  _atom_site_type_symbol
  _atom_site_label
  _atom_site_symmetry_multiplicity
  _atom_site_fract_x
  _atom_site_fract_y
  _atom_site_fract_z
  _atom_site_occupancy
  Eu  Eu1       1.0  0.95381  0.13491  0.33243  1.0000
  Eu  Eu2       1.0  0.5524599999999997  0.35997  0.82511  1.0000
  Eu  Eu3       1.0  0.05005999999999997  0.86436  0.6657499999999997  1.0000
  Eu  Eu4       1.0  0.44914  0.63722  0.17329  1.0000
  H   H1        1.0  0.9746400000000001  0.70531  0.3865699999999999  1.0000
  H   H2        1.0  0.61019  0.33372  0.26167  1.0000
  H   H3        1.0  0.5261799999999998  0.79662  0.88603  1.0000
  H   H4        1.0  0.89161  0.1657  0.7563499999999997  1.0000
  H   H5        1.0  0.027159999999999993  0.29474  0.61243  1.0000
  H   H6        1.0  0.3882799999999999  0.66559  0.7404  1.0000
  H   H7        1.0  0.47814999999999996  0.20155  0.11382  1.0000
  H   H8        1.0  0.11016  0.8337  0.24305  1.0000
  C   C1        1.0  0.91709  0.48274999999999996  0.36715  1.0000
  C   C2        1.0  0.73307  0.79967  0.28965  1.0000
  C   C3        1.0  0.8936799999999998  0.62286  0.35785  1.0000
  C   C4        1.0  0.76576  0.65159  0.30954  1.0000
  C   C5        1.0  0.06289999999999997  0.4437900000000001  0.41315  1.0000
  C   C6        1.0  0.69353  0.41605  0.28928  1.0000
  C   C7        1.0  0.91324  0.0075699999999999995  0.51129  1.0000
  C   C8        1.0  0.5865799999999999  0.018760000000000002  0.8661999999999997  1.0000
  C   C9        1.0  0.7700699999999998  0.70131  0.78948  1.0000
  C   C10       1.0  0.60836  0.87845  0.85683  1.0000
  C   C11       1.0  0.73652  0.84919  0.8083899999999998  1.0000
  C   C12       1.0  0.4441299999999999  0.06055  0.9143499999999998  1.0000
  C   C13       1.0  0.8089899999999998  0.08407  0.7857  1.0000
  C   C14       1.0  0.6187399999999997  0.48458  0.01574  1.0000
  C   C15       1.0  0.08694999999999999  0.5173299999999998  0.63086  1.0000
  C   C16       1.0  0.26756999999999986  0.20005  0.70975  1.0000
  C   C17       1.0  0.10828  0.37707  0.64119  1.0000
  C   C18       1.0  0.23517  0.3481  0.69018  1.0000
  C   C19       1.0  0.9464199999999999  0.5589  0.58183  1.0000
  C   C20       1.0  0.30686  0.58343  0.7114199999999999  1.0000
  C   C21       1.0  0.09107999999999997  0.98938  0.48616999999999994  1.0000
  C   C22       1.0  0.4157999999999999  0.97979  0.13339  1.0000
  C   C23       1.0  0.23585000000000003  0.29817  0.21042  1.0000
  C   C24       1.0  0.3953299999999999  0.12023  0.14298999999999995  1.0000
  C   C25       1.0  0.26788  0.15009  0.19156999999999993  1.0000
  C   C26       1.0  0.55817  0.93816  0.08529  1.0000
  C   C27       1.0  0.19323  0.9152000000000001  0.21381  1.0000
  C   C28       1.0  0.38938  0.51532  0.9824299999999999  1.0000
  N   N1        1.0  0.81643  0.37855  0.33299  1.0000
  N   N2        1.0  0.66455  0.54774  0.2753899999999999  1.0000
  N   N3        1.0  0.68748  0.12215999999999999  0.8304099999999999  1.0000
  N   N4        1.0  0.8379  0.9524099999999999  0.77313  1.0000
  N   N5        1.0  0.18624  0.62108  0.6663  1.0000
  N   N6        1.0  0.33585999999999994  0.45161  0.72492  1.0000
  N   N7        1.0  0.3142699999999999  0.87654  0.16896  1.0000
  N   N8        1.0  0.16556  0.04718  0.22655999999999996  1.0000
  O   O1        1.0  0.07893999999999997  0.31403  0.4199599999999999  1.0000
  O   O2        1.0  0.84867  0.8960100000000001  0.30109  1.0000
  O   O3        1.0  0.82516  0.049359999999999994  0.4567  1.0000
  O   O4        1.0  0.59507  0.81315  0.26142  1.0000
  O   O5        1.0  0.87215  0.98075  0.5835199999999998  1.0000
  O   O6        1.0  0.15997  0.54162  0.44077  1.0000
  O   O7        1.0  0.43619  0.19265  0.9204199999999998  1.0000
  O   O8        1.0  0.6578699999999997  0.60348  0.8054599999999997  1.0000
  O   O9        1.0  0.68949  0.44413  0.9578399999999998  1.0000
  O   O10       1.0  0.90528  0.68774  0.7577499999999998  1.0000
  O   O11       1.0  0.63543  0.51331  0.08701  1.0000
  O   O12       1.0  0.3453699999999999  0.96579  0.94399  1.0000
  O   O13       1.0  0.9420799999999998  0.69012  0.57157  1.0000
  O   O14       1.0  0.15209999999999996  0.10386000000000002  0.6984299999999998  1.0000
  O   O15       1.0  0.17779999999999999  0.9438499999999999  0.54016  1.0000
  O   O16       1.0  0.4058799999999999  0.18639  0.73773  1.0000
  O   O17       1.0  0.1349  0.02073  0.41484  1.0000
  O   O18       1.0  0.8430499999999996  0.46454999999999996  0.55574  1.0000
  O   O19       1.0  0.56479  0.80588  0.07928  1.0000
  O   O20       1.0  0.3491399999999999  0.39543  0.19448  1.0000
  O   O21       1.0  0.31771  0.5553  0.04013  1.0000
  O   O22       1.0  0.10102999999999997  0.31285  0.24189  1.0000
  O   O23       1.0  0.37218000000000007  0.48749  0.9110699999999998  1.0000
  O   O24       1.0  0.65767  0.03273  0.05602999999999999  1.0000
