data_image0
_chemical_formula_structural       Cd2H24C36N12O8
_chemical_formula_sum              "Cd2 H24 C36 N12 O8"
_cell_length_a       9.39959
_cell_length_b       11.21477
_cell_length_c       11.21478
_cell_angle_alpha    91.25811
_cell_angle_beta     99.23416999999999
_cell_angle_gamma    99.23416999999999

_symmetry_space_group_name_H-M    'P 1'
_symmetry_Int_Tables_number       1

loop_
  _symmetry_equiv_pos_as_xyz
  'x,y,z'

loop_
  _atom_site_type_symbol
  _atom_site_label
  _atom_site_symmetry_multiplicity
  _atom_site_fract_x
  _atom_site_fract_y
  _atom_site_fract_z
  _atom_site_occupancy
  Cd  Cd1       1.0  1.181139841870929e-17  0.5  0.5  1.0000
  Cd  Cd2       1.0  0.5  0.5  0.5  1.0000
  H   H1        1.0  0.9254399999999997  0.74104  0.31576  1.0000
  H   H2        1.0  0.18811000000000005  0.48576  0.2529  1.0000
  H   H3        1.0  0.024960000000000034  0.73299  0.94343  1.0000
  H   H4        1.0  0.3247800000000002  0.50617  0.10616999999999999  1.0000
  H   H5        1.0  0.10832000000000001  0.70392  0.74343  1.0000
  H   H6        1.0  0.40684000000000003  0.48084  0.9079199999999998  1.0000
  H   H7        1.0  0.57456  0.68424  0.25896  1.0000
  H   H8        1.0  0.31188  0.7471  0.51424  1.0000
  H   H9        1.0  0.47504  0.05657  0.26701  1.0000
  H   H10       1.0  0.17521999999999996  0.8938299999999998  0.49383  1.0000
  H   H11       1.0  0.39168  0.25657  0.29608  1.0000
  H   H12       1.0  0.09315  0.09207  0.51915  1.0000
  H   H13       1.0  0.07455999999999999  0.25896  0.68424  1.0000
  H   H14       1.0  0.81189  0.51424  0.7471  1.0000
  H   H15       1.0  0.9750400000000001  0.26701  0.05657  1.0000
  H   H16       1.0  0.67522  0.49382999999999994  0.89383  1.0000
  H   H17       1.0  0.89168  0.29608000000000007  0.25657  1.0000
  H   H18       1.0  0.59315  0.51915  0.09207999999999998  1.0000
  H   H19       1.0  0.42544  0.31576  0.74104  1.0000
  H   H20       1.0  0.68811  0.25289  0.48576  1.0000
  H   H21       1.0  0.52496  0.94343  0.7329900000000001  1.0000
  H   H22       1.0  0.82478  0.10616999999999997  0.50617  1.0000
  H   H23       1.0  0.60832  0.74343  0.70392  1.0000
  H   H24       1.0  0.90685  0.90792  0.48084  1.0000
  C   C1        1.0  0.9924799999999999  0.6906  0.27098  1.0000
  C   C2        1.0  0.1255  0.55909  0.24103999999999998  1.0000
  C   C3        1.0  0.1674  0.61959  0.03466  1.0000
  C   C4        1.0  0.10790000000000001  0.6778  0.9340099999999999  1.0000
  C   C5        1.0  0.27622  0.54897  0.02705  1.0000
  C   C6        1.0  0.15519999999999998  0.66232  0.8240799999999999  1.0000
  C   C7        1.0  0.32281  0.53525  0.91638  1.0000
  C   C8        1.0  0.26180000000000003  0.59014  0.8137800000000001  1.0000
  C   C9        1.0  0.30728  0.57123  0.69319  1.0000
  C   C10       1.0  0.50752  0.7290099999999999  0.3094  1.0000
  C   C11       1.0  0.3745  0.75895  0.4409  1.0000
  C   C12       1.0  0.33259  0.9653399999999999  0.3804  1.0000
  C   C13       1.0  0.39209000000000005  0.06598  0.32219  1.0000
  C   C14       1.0  0.22378000000000003  0.97295  0.45102  1.0000
  C   C15       1.0  0.3448  0.17592  0.33767  1.0000
  C   C16       1.0  0.17719  0.08362  0.46475  1.0000
  C   C17       1.0  0.23820000000000002  0.18621  0.40985  1.0000
  C   C18       1.0  0.19272  0.3068  0.42877  1.0000
  C   C19       1.0  0.007520000000000012  0.3094  0.72901  1.0000
  C   C20       1.0  0.8745000000000002  0.44089999999999996  0.7589499999999999  1.0000
  C   C21       1.0  0.8325900000000002  0.3804  0.96534  1.0000
  C   C22       1.0  0.8921000000000001  0.32219  0.06598  1.0000
  C   C23       1.0  0.72378  0.4510199999999999  0.97295  1.0000
  C   C24       1.0  0.8448  0.33767  0.17592  1.0000
  C   C25       1.0  0.67719  0.46475  0.08362  1.0000
  C   C26       1.0  0.7382  0.40984999999999994  0.18621999999999997  1.0000
  C   C27       1.0  0.6927200000000002  0.42877  0.3068  1.0000
  C   C28       1.0  0.4924800000000001  0.27098  0.6906  1.0000
  C   C29       1.0  0.6255  0.24104  0.55909  1.0000
  C   C30       1.0  0.6674  0.03466  0.61959  1.0000
  C   C31       1.0  0.6079  0.93401  0.67781  1.0000
  C   C32       1.0  0.7762200000000002  0.02705  0.54897  1.0000
  C   C33       1.0  0.6551999999999999  0.82408  0.66232  1.0000
  C   C34       1.0  0.82281  0.91638  0.53525  1.0000
  C   C35       1.0  0.7618  0.81378  0.59014  1.0000
  C   C36       1.0  0.8072799999999999  0.69319  0.57123  1.0000
  N   N1        1.0  0.05092999999999999  0.5956299999999999  0.32243  1.0000
  N   N2        1.0  0.026869999999999995  0.71509  0.16301  1.0000
  N   N3        1.0  0.11282  0.6301  0.14497  1.0000
  N   N4        1.0  0.4490700000000001  0.67757  0.40436  1.0000
  N   N5        1.0  0.47313  0.83699  0.28491  1.0000
  N   N6        1.0  0.38718  0.8550199999999999  0.36988999999999994  1.0000
  N   N7        1.0  0.94907  0.40435999999999994  0.67757  1.0000
  N   N8        1.0  0.97313  0.28491  0.83699  1.0000
  N   N9        1.0  0.8871800000000001  0.36989  0.85502  1.0000
  N   N10       1.0  0.55093  0.32243  0.59563  1.0000
  N   N11       1.0  0.52687  0.16301  0.71509  1.0000
  N   N12       1.0  0.61282  0.14496999999999996  0.6301  1.0000
  O   O1        1.0  0.42396  0.5275  0.69126  1.0000
  O   O2        1.0  0.22744  0.60162  0.59974  1.0000
  O   O3        1.0  0.07603  0.30873  0.4725  1.0000
  O   O4        1.0  0.27256  0.40025999999999995  0.39838  1.0000
  O   O5        1.0  0.5760300000000002  0.4724999999999999  0.30873  1.0000
  O   O6        1.0  0.77256  0.39837999999999996  0.40026  1.0000
  O   O7        1.0  0.9239700000000001  0.6912599999999999  0.5275  1.0000
  O   O8        1.0  0.7274400000000001  0.59974  0.60162  1.0000
