data_image0
_chemical_formula_structural       Cd6H12C36N16O16
_chemical_formula_sum              "Cd6 H12 C36 N16 O16"
_cell_length_a       11.97383
_cell_length_b       11.944189999999999
_cell_length_c       12.30953
_cell_angle_alpha    109.02829000000001
_cell_angle_beta     108.90299
_cell_angle_gamma    102.88474

_space_group_name_H-M_alt    "P 1"
_space_group_IT_number       1

loop_
  _space_group_symop_operation_xyz
  'x, y, z'

loop_
  _atom_site_type_symbol
  _atom_site_label
  _atom_site_symmetry_multiplicity
  _atom_site_fract_x
  _atom_site_fract_y
  _atom_site_fract_z
  _atom_site_occupancy
  Cd  Cd1       1.0  0.17180000000000004  0.71258  0.59201  1.0000
  Cd  Cd2       1.0  0.7917499999999998  0.33278  0.91115  1.0000
  Cd  Cd3       1.0  0.8282100000000002  0.28742000000000006  0.4079900000000001  1.0000
  Cd  Cd4       1.0  0.20825000000000002  0.66721  0.08885  1.0000
  Cd  Cd5       1.0  0.22512000000000004  0.27624  0.25083000000000005  1.0000
  Cd  Cd6       1.0  0.77489  0.72376  0.74917  1.0000
  H   H1        1.0  0.20736000000000002  0.051940000000000014  0.59216  1.0000
  H   H2        1.0  0.98927  0.2874900000000001  0.66519  1.0000
  H   H3        1.0  0.07792000000000011  0.0750100000000001  0.8819400000000001  1.0000
  H   H4        1.0  0.4472800000000001  0.29365000000000013  0.9081800000000002  1.0000
  H   H5        1.0  0.21266  0.51218  0.83459  1.0000
  H   H6        1.0  0.42721000000000003  0.42446  0.61959  1.0000
  H   H7        1.0  0.7926400000000001  0.9480600000000002  0.40784  1.0000
  H   H8        1.0  0.01073000000000002  0.71251  0.33481  1.0000
  H   H9        1.0  0.9220800000000002  0.92499  0.11806000000000001  1.0000
  H   H10       1.0  0.5527200000000001  0.70635  0.09182000000000001  1.0000
  H   H11       1.0  0.7873400000000003  0.48782000000000003  0.16541000000000003  1.0000
  H   H12       1.0  0.57279  0.5755400000000002  0.3804  1.0000
  C   C1        1.0  0.09491  0.16972  0.61271  1.0000
  C   C2        1.0  0.10126000000000002  0.20484  0.51209  1.0000
  C   C3        1.0  0.15068  0.05753000000000001  0.74168  1.0000
  C   C4        1.0  0.025300000000000034  0.18712000000000004  0.77977  1.0000
  C   C5        1.0  0.15722000000000003  0.09129000000000002  0.64487  1.0000
  C   C6        1.0  0.030940000000000016  0.21888000000000002  0.68157  1.0000
  C   C7        1.0  0.9571700000000004  0.24507000000000007  0.85059  1.0000
  C   C8        1.0  0.19904  0.95548  0.75897  1.0000
  C   C9        1.0  0.08326999999999998  0.10391999999999998  0.80812  1.0000
  C   C10       1.0  0.32946000000000003  0.40549  0.8863700000000001  1.0000
  C   C11       1.0  0.29405000000000003  0.39909000000000017  0.9871200000000001  1.0000
  C   C12       1.0  0.44519  0.3528  0.76014  1.0000
  C   C13       1.0  0.3124700000000001  0.4746300000000001  0.7193400000000001  1.0000
  C   C14       1.0  0.4096100000000001  0.34468  0.8555300000000001  1.0000
  C   C15       1.0  0.27961  0.46855  0.81676  1.0000
  C   C16       1.0  0.25727  0.54428  0.64957  1.0000
  C   C17       1.0  0.54783  0.30469  0.74265  1.0000
  C   C18       1.0  0.3974800000000001  0.41892  0.69274  1.0000
  C   C19       1.0  0.90509  0.8302800000000001  0.38729  1.0000
  C   C20       1.0  0.8987500000000003  0.7951600000000001  0.4879100000000001  1.0000
  C   C21       1.0  0.8493300000000003  0.94247  0.25831  1.0000
  C   C22       1.0  0.9747000000000002  0.81288  0.22023000000000004  1.0000
  C   C23       1.0  0.84278  0.9087100000000001  0.35513  1.0000
  C   C24       1.0  0.9690600000000003  0.78112  0.31842  1.0000
  C   C25       1.0  0.04282999999999993  0.75493  0.14941  1.0000
  C   C26       1.0  0.80096  0.04452000000000002  0.24102  1.0000
  C   C27       1.0  0.91673  0.8960800000000001  0.19188  1.0000
  C   C28       1.0  0.67055  0.5945  0.11363000000000001  1.0000
  C   C29       1.0  0.7059500000000002  0.6009100000000002  0.01288  1.0000
  C   C30       1.0  0.55481  0.6472  0.23986  1.0000
  C   C31       1.0  0.6875300000000002  0.52537  0.28066  1.0000
  C   C32       1.0  0.5904000000000001  0.6553200000000001  0.14447  1.0000
  C   C33       1.0  0.7203900000000001  0.5314500000000001  0.18324  1.0000
  C   C34       1.0  0.7427300000000001  0.45572  0.3504300000000001  1.0000
  C   C35       1.0  0.45217000000000007  0.69531  0.25735  1.0000
  C   C36       1.0  0.6025199999999998  0.58108  0.30725  1.0000
  N   N1        1.0  0.07127000000000003  0.29685000000000006  0.38571  1.0000
  N   N2        1.0  0.15589  0.24198  0.37807  1.0000
  N   N3        1.0  0.03525  0.27354000000000006  0.46967  1.0000
  N   N4        1.0  0.1772  0.18307000000000004  0.45457  1.0000
  N   N5        1.0  0.20139  0.42672000000000004  0.11328  1.0000
  N   N6        1.0  0.25837  0.34375  0.12168  1.0000
  N   N7        1.0  0.22361000000000006  0.46305  0.02895  1.0000
  N   N8        1.0  0.31755  0.32392  0.04532  1.0000
  N   N9        1.0  0.9287300000000003  0.70314  0.61429  1.0000
  N   N10       1.0  0.84412  0.7580200000000001  0.62193  1.0000
  N   N11       1.0  0.9647500000000001  0.7264600000000002  0.53032  1.0000
  N   N12       1.0  0.8228000000000001  0.81693  0.54542  1.0000
  N   N13       1.0  0.7986100000000003  0.57328  0.88671  1.0000
  N   N14       1.0  0.7416300000000002  0.6562500000000001  0.87832  1.0000
  N   N15       1.0  0.7764  0.53695  0.97105  1.0000
  N   N16       1.0  0.68245  0.6760800000000001  0.9546800000000001  1.0000
  O   O1        1.0  0.2522100000000001  0.91493  0.68364  1.0000
  O   O2        1.0  0.91652  0.19688  0.9150000000000001  1.0000
  O   O3        1.0  0.1783400000000001  0.90956  0.83132  1.0000
  O   O4        1.0  0.93725  0.3430100000000001  0.83858  1.0000
  O   O5        1.0  0.5881  0.25244  0.81904  1.0000
  O   O6        1.0  0.3055900000000001  0.58356  0.58485  1.0000
  O   O7        1.0  0.5933  0.32393  0.67035  1.0000
  O   O8        1.0  0.16115000000000002  0.5667600000000002  0.66363  1.0000
  O   O9        1.0  0.7477900000000001  0.08507000000000003  0.31636  1.0000
  O   O10       1.0  0.08349000000000004  0.8031200000000002  0.08499  1.0000
  O   O11       1.0  0.82166  0.09044  0.16867  1.0000
  O   O12       1.0  0.06275000000000003  0.6569900000000001  0.16142  1.0000
  O   O13       1.0  0.4119100000000001  0.74756  0.18096  1.0000
  O   O14       1.0  0.6944100000000002  0.4164400000000001  0.41515  1.0000
  O   O15       1.0  0.40670000000000006  0.67607  0.32964000000000004  1.0000
  O   O16       1.0  0.8388500000000001  0.43324  0.33637  1.0000
