data_image0
_chemical_formula_structural       Pr2H24C24N2O12
_chemical_formula_sum              "Pr2 H24 C24 N2 O12"
_cell_length_a       7.81091
_cell_length_b       9.60509
_cell_length_c       11.549849999999998
_cell_angle_alpha    92.38845
_cell_angle_beta     106.02967999999998
_cell_angle_gamma    102.69102

_symmetry_space_group_name_H-M    'P 1'
_symmetry_Int_Tables_number       1

loop_
  _symmetry_equiv_pos_as_xyz
  'x,y,z'

loop_
  _atom_site_type_symbol
  _atom_site_label
  _atom_site_symmetry_multiplicity
  _atom_site_fract_x
  _atom_site_fract_y
  _atom_site_fract_z
  _atom_site_occupancy
  Pr  Pr1       1.0  0.71334  0.41675  0.48315  1.0000
  Pr  Pr2       1.0  0.28413000000000005  0.58005  0.5170999999999999  1.0000
  H   H1        1.0  0.95736  0.27641000000000004  0.31422  1.0000
  H   H2        1.0  0.03352000000000001  0.05462  0.24220999999999998  1.0000
  H   H3        1.0  0.9008900000000002  0.81957  0.30785  1.0000
  H   H4        1.0  0.63488  0.04817999999999999  0.5051599999999999  1.0000
  H   H5        1.0  0.28088  0.40992  0.8033  1.0000
  H   H6        1.0  0.21764000000000003  0.56051  0.84912  1.0000
  H   H7        1.0  0.9885800000000001  0.3944099999999999  0.9385699999999999  1.0000
  H   H8        1.0  0.07870000000000003  0.2514  0.9046199999999999  1.0000
  H   H9        1.0  0.31266  0.52967  0.06414  1.0000
  H   H10       1.0  0.3911300000000001  0.37626  0.03773  1.0000
  H   H11       1.0  0.17148000000000008  0.23289000000000007  0.13772  1.0000
  H   H12       1.0  0.10608000000000002  0.39179  0.17282  1.0000
  H   H13       1.0  0.04194999999999998  0.72265  0.68509  1.0000
  H   H14       1.0  0.96626  0.94432  0.7578399999999997  1.0000
  H   H15       1.0  0.09779999999999989  0.17931  0.6923099999999998  1.0000
  H   H16       1.0  0.3653700000000001  0.95146  0.4951299999999999  1.0000
  H   H17       1.0  0.7179200000000002  0.58956  0.19691  1.0000
  H   H18       1.0  0.7798500000000003  0.43883999999999995  0.15016999999999997  1.0000
  H   H19       1.0  0.010450000000000006  0.60499  0.061799999999999994  1.0000
  H   H20       1.0  0.92067  0.74818  0.09592999999999999  1.0000
  H   H21       1.0  0.68664  0.47035  0.9358  1.0000
  H   H22       1.0  0.6082600000000002  0.62368  0.96223  1.0000
  H   H23       1.0  0.82651  0.76727  0.8619799999999999  1.0000
  H   H24       1.0  0.8953700000000002  0.60962  0.82844  1.0000
  C   C1        1.0  0.9017299999999999  0.17207  0.33919999999999995  1.0000
  C   C2        1.0  0.9427600000000003  0.04824999999999999  0.2992699999999999  1.0000
  C   C3        1.0  0.86809  0.9176800000000002  0.33483  1.0000
  C   C4        1.0  0.7512000000000002  0.9140499999999999  0.40773  1.0000
  C   C5        1.0  0.7201700000000002  0.04435999999999998  0.44555999999999996  1.0000
  C   C6        1.0  0.66208  0.77338  0.44372  1.0000
  C   C7        1.0  0.013709999999999984  0.42149  0.7063599999999999  1.0000
  C   C8        1.0  0.16580999999999999  0.44404  0.82409  1.0000
  C   C9        1.0  0.11382  0.3684  0.92766  1.0000
  C   C10       1.0  0.2703200000000001  0.41191  0.04619  1.0000
  C   C11       1.0  0.21811000000000005  0.35063  0.15586  1.0000
  C   C12       1.0  0.38046000000000013  0.3840799999999999  0.2690199999999999  1.0000
  C   C13       1.0  0.09766000000000002  0.8271  0.66028  1.0000
  C   C14       1.0  0.05675000000000003  0.95079  0.7006  1.0000
  C   C15       1.0  0.13114000000000006  0.08150999999999999  0.6651799999999999  1.0000
  C   C16       1.0  0.2481600000000001  0.08551  0.59237  1.0000
  C   C17       1.0  0.2795400000000002  0.95535  0.5543499999999999  1.0000
  C   C18       1.0  0.3374100000000001  0.22642  0.55737  1.0000
  C   C19       1.0  0.9846400000000003  0.57652  0.2934  1.0000
  C   C20       1.0  0.8326000000000002  0.55519  0.17579  1.0000
  C   C21       1.0  0.8852800000000002  0.63122  0.07257999999999999  1.0000
  C   C22       1.0  0.72914  0.58809  0.9539  1.0000
  C   C23       1.0  0.7816600000000002  0.64941  0.84432  1.0000
  C   C24       1.0  0.6195700000000002  0.61338  0.73084  1.0000
  N   N1        1.0  0.79398  0.17171  0.41273999999999994  1.0000
  N   N2        1.0  0.20548000000000002  0.8278  0.58671  1.0000
  O   O1        1.0  0.03740000000000002  0.50698  0.6241  1.0000
  O   O2        1.0  0.8673700000000002  0.32573  0.6873399999999998  1.0000
  O   O3        1.0  0.36902000000000007  0.44881999999999994  0.36558  1.0000
  O   O4        1.0  0.5254900000000002  0.34691  0.26664  1.0000
  O   O5        1.0  0.5276300000000003  0.77207  0.48625  1.0000
  O   O6        1.0  0.728  0.66666  0.42755  1.0000
  O   O7        1.0  0.9594500000000002  0.49237999999999993  0.3763099999999999  1.0000
  O   O8        1.0  0.13318000000000005  0.6698  0.31197  1.0000
  O   O9        1.0  0.6323  0.54902  0.63477  1.0000
  O   O10       1.0  0.4723400000000001  0.64771  0.73255  1.0000
  O   O11       1.0  0.47354  0.22854  0.51636  1.0000
  O   O12       1.0  0.2707300000000001  0.33301000000000003  0.57279  1.0000
