data_image0
_chemical_formula_structural       Cu4H32C44N8O8
_chemical_formula_sum              "Cu4 H32 C44 N8 O8"
_cell_length_a       10.69361
_cell_length_b       10.6107
_cell_length_c       14.69524
_cell_angle_alpha    88.47849000000001
_cell_angle_beta     104.60938000000002
_cell_angle_gamma    134.41581

_space_group_name_H-M_alt    "P 1"
_space_group_IT_number       1

loop_
  _space_group_symop_operation_xyz
  'x, y, z'

loop_
  _atom_site_type_symbol
  _atom_site_label
  _atom_site_symmetry_multiplicity
  _atom_site_fract_x
  _atom_site_fract_y
  _atom_site_fract_z
  _atom_site_occupancy
  Cu  Cu1       1.0  0.79137  0.97598  0.33318  1.0000
  Cu  Cu2       1.0  0.85734  0.53785  0.83217  1.0000
  Cu  Cu3       1.0  0.14269000000000004  0.46220000000000006  0.16783  1.0000
  Cu  Cu4       1.0  0.20852999999999994  0.02393999999999997  0.6667899999999999  1.0000
  H   H1        1.0  0.02711999999999993  0.34836999999999996  0.6135399999999999  1.0000
  H   H2        1.0  0.76506  0.93156  0.89461  1.0000
  H   H3        1.0  0.46535  0.13694  0.40504  1.0000
  H   H4        1.0  0.15465999999999996  0.34591  0.34998  1.0000
  H   H5        1.0  0.65188  0.40905  0.99863  1.0000
  H   H6        1.0  0.58722  0.23303  0.13828  1.0000
  H   H7        1.0  0.4915  0.80945  0.14454  1.0000
  H   H8        1.0  0.22226000000000004  0.39131  0.88832  1.0000
  H   H9        1.0  0.41279  0.76702  0.8617  1.0000
  H   H10       1.0  0.34808  0.59094  0.00134  1.0000
  H   H11       1.0  0.09194000000000006  0.18525000000000005  0.06773  1.0000
  H   H12       1.0  0.9134200000000005  0.8376600000000002  0.25183  1.0000
  H   H13       1.0  0.50851  0.1906  0.8554  1.0000
  H   H14       1.0  0.53463  0.86309  0.59496  1.0000
  H   H15       1.0  0.7495800000000001  0.14074  0.18719  1.0000
  H   H16       1.0  0.90807  0.8148  0.9322500000000001  1.0000
  H   H17       1.0  0.97287  0.65166  0.38643999999999995  1.0000
  H   H18       1.0  0.54093  0.41905  0.67882  1.0000
  H   H19       1.0  0.40451000000000004  0.53574  0.62621  1.0000
  H   H20       1.0  0.8453200000000001  0.6541  0.65001  1.0000
  H   H21       1.0  0.45909000000000005  0.581  0.32114999999999994  1.0000
  H   H22       1.0  0.94994  0.35894  0.75558  1.0000
  H   H23       1.0  0.61386  0.025490000000000023  0.4377  1.0000
  H   H24       1.0  0.59547  0.4642900000000001  0.37378  1.0000
  H   H25       1.0  0.2349  0.06845  0.10537  1.0000
  H   H26       1.0  0.38608000000000003  0.97451  0.56228  1.0000
  H   H27       1.0  0.08656  0.16233  0.74812  1.0000
  H   H28       1.0  0.9087200000000001  0.65111  0.5041  1.0000
  H   H29       1.0  0.05000000000000004  0.64103  0.24438  1.0000
  H   H30       1.0  0.09130000000000009  0.34893000000000013  0.49589  1.0000
  H   H31       1.0  0.25035  0.85924  0.8127899999999999  1.0000
  H   H32       1.0  0.77763  0.6086  0.11167  1.0000
  C   C1        1.0  0.4447  0.23477000000000006  0.86395  1.0000
  C   C2        1.0  0.4784600000000002  0.8660100000000002  0.64629  1.0000
  C   C3        1.0  0.78613  0.77664  0.19506  1.0000
  C   C4        1.0  0.47275000000000006  0.63882  0.053610000000000005  1.0000
  C   C5        1.0  0.6045  0.07367  0.37246  1.0000
  C   C6        1.0  0.08063000000000002  0.41844  0.44412  1.0000
  C   C7        1.0  0.29133  0.35182  0.88435  1.0000
  C   C8        1.0  0.28332000000000007  0.17901000000000006  0.15507  1.0000
  C   C9        1.0  0.21384000000000009  0.22335000000000005  0.8049  1.0000
  C   C10       1.0  0.7954000000000002  0.7566400000000002  0.86617  1.0000
  C   C11       1.0  0.7086  0.64814  0.11562  1.0000
  C   C12       1.0  0.3954200000000001  0.92631  0.62752  1.0000
  C   C13       1.0  0.59345  0.53715  0.72341  1.0000
  C   C14       1.0  0.8826200000000001  0.58432  0.6394  1.0000
  C   C15       1.0  0.9137  0.3964200000000001  0.98378  1.0000
  C   C16       1.0  0.41108999999999996  0.81229  0.79472  1.0000
  C   C17       1.0  0.71667  0.8210100000000002  0.84491  1.0000
  C   C18       1.0  0.11738000000000008  0.4157000000000001  0.36058  1.0000
  C   C19       1.0  0.48949  0.80927  0.73247  1.0000
  C   C20       1.0  0.51047  0.19075  0.26751  1.0000
  C   C21       1.0  0.52722  0.36117  0.94636  1.0000
  C   C22       1.0  0.48561  0.40012000000000003  0.30505  1.0000
  C   C23       1.0  0.40656  0.46288  0.27657  1.0000
  C   C24       1.0  0.056219999999999985  0.57762  0.30208  1.0000
  C   C25       1.0  0.20459  0.2434  0.13381  1.0000
  C   C26       1.0  0.42533  0.25698  0.24293000000000003  1.0000
  C   C27       1.0  0.08802000000000003  0.07021999999999999  0.48455  1.0000
  C   C28       1.0  0.6767400000000001  0.13332000000000005  0.2311  1.0000
  C   C29       1.0  0.08612999999999998  0.60363  0.01629  1.0000
  C   C30       1.0  0.3231700000000002  0.8666500000000003  0.7688699999999999  1.0000
  C   C31       1.0  0.58888  0.18773  0.20526000000000003  1.0000
  C   C32       1.0  0.97608  0.49925  0.54287  1.0000
  C   C33       1.0  0.51437  0.5999  0.69493  1.0000
  C   C34       1.0  0.98581  0.41662  0.61727  1.0000
  C   C35       1.0  0.54457  0.57091  0.04196  1.0000
  C   C36       1.0  0.02393000000000003  0.50078  0.45709999999999995  1.0000
  C   C37       1.0  0.01417999999999992  0.5833999999999999  0.38270999999999994  1.0000
  C   C38       1.0  0.55529  0.76524  0.136  1.0000
  C   C39       1.0  0.5746500000000002  0.74304  0.7570500000000001  1.0000
  C   C40       1.0  0.91178  0.92955  0.51529  1.0000
  C   C41       1.0  0.45536  0.42903  0.95802  1.0000
  C   C42       1.0  0.9437500000000001  0.42238000000000003  0.6978900000000001  1.0000
  C   C43       1.0  0.91938  0.58159  0.55587  1.0000
  C   C44       1.0  0.52151  0.13402  0.35371  1.0000
  N   N1        1.0  0.2915  0.16730999999999996  0.7922799999999999  1.0000
  N   N2        1.0  0.7341799999999999  0.6153799999999999  0.8071999999999999  1.0000
  N   N3        1.0  0.10534000000000002  0.49296  0.28904  1.0000
  N   N4        1.0  0.3166200000000002  0.9262000000000002  0.6868  1.0000
  N   N5        1.0  0.68327  0.07375000000000001  0.31317  1.0000
  N   N6        1.0  0.89463  0.50705  0.71093  1.0000
  N   N7        1.0  0.26584  0.38467  0.19278  1.0000
  N   N8        1.0  0.70849  0.83272  0.20768  1.0000
  O   O1        1.0  0.09799999999999996  0.69906  0.9579700000000001  1.0000
  O   O2        1.0  0.06628  0.10993  0.40432  1.0000
  O   O3        1.0  0.20412  0.66347  0.09902  1.0000
  O   O4        1.0  0.79593  0.33658  0.90099  1.0000
  O   O5        1.0  0.7588  0.86429  0.45775  1.0000
  O   O6        1.0  0.24113999999999997  0.13552000000000003  0.54232  1.0000
  O   O7        1.0  0.9337500000000004  0.8902700000000002  0.59597  1.0000
  O   O8        1.0  0.90199  0.30106  0.04197  1.0000
