data_image0
_chemical_formula_structural       Pr2H6C18N6O12
_chemical_formula_sum              "Pr2 H6 C18 N6 O12"
_cell_length_a       4.14658
_cell_length_b       12.848530000000002
_cell_length_c       14.54668
_cell_angle_alpha    65.23244
_cell_angle_beta     104.28684
_cell_angle_gamma    87.32951

_space_group_name_H-M_alt    "P 1"
_space_group_IT_number       1

loop_
  _space_group_symop_operation_xyz
  'x, y, z'

loop_
  _atom_site_type_symbol
  _atom_site_label
  _atom_site_symmetry_multiplicity
  _atom_site_fract_x
  _atom_site_fract_y
  _atom_site_fract_z
  _atom_site_occupancy
  Pr  Pr1       1.0  0.23251999999999973  0.6609200000000001  0.6840799999999998  1.0000
  Pr  Pr2       1.0  0.7853800000000002  0.34412  0.30981  1.0000
  H   H1        1.0  0.8017199999999999  0.9299900000000001  0.6507699999999997  1.0000
  H   H2        1.0  0.8054300000000001  0.4294700000000001  0.9064099999999998  1.0000
  H   H3        1.0  0.35112  0.65396  0.4518  1.0000
  H   H4        1.0  0.21973999999999996  0.07598000000000006  0.34407999999999994  1.0000
  H   H5        1.0  0.2061000000000001  0.57724  0.08682  1.0000
  H   H6        1.0  0.6548900000000002  0.35355999999999993  0.54062  1.0000
  C   C1        1.0  0.23757  0.9289599999999999  0.49127  1.0000
  C   C2        1.0  0.9019800000000003  0.9619099999999999  0.58324  1.0000
  C   C3        1.0  0.22869999999999976  0.58584  0.9366299999999997  1.0000
  C   C4        1.0  0.6669800000000001  0.4618900000000001  0.9463799999999999  1.0000
  C   C5        1.0  0.8879499999999999  0.48230999999999996  0.5802899999999999  1.0000
  C   C6        1.0  0.19452999999999993  0.587  0.4726999999999999  1.0000
  C   C7        1.0  0.5116  0.85301  0.48627  1.0000
  C   C8        1.0  0.9037099999999999  0.66969  0.87399  1.0000
  C   C9        1.0  0.7254600000000002  0.4630399999999999  0.66574  1.0000
  C   C10       1.0  0.7817300000000001  0.07641999999999997  0.50305  1.0000
  C   C11       1.0  0.11836999999999989  0.043570000000000074  0.41132999999999986  1.0000
  C   C12       1.0  0.7829  0.42074  0.0568  1.0000
  C   C13       1.0  0.3448100000000001  0.54472  0.04699999999999999  1.0000
  C   C14       1.0  0.11868999999999995  0.52513  0.4123699999999999  1.0000
  C   C15       1.0  0.8114300000000002  0.42056999999999994  0.51979  1.0000
  C   C16       1.0  0.50587  0.15225  0.50734  1.0000
  C   C17       1.0  0.10625999999999998  0.33603  0.12005999999999997  1.0000
  C   C18       1.0  0.2825700000000001  0.54423  0.32733  1.0000
  N   N1        1.0  0.12516000000000008  0.88866  0.57712  1.0000
  N   N2        1.0  0.3923500000000001  0.5433099999999998  0.88739  1.0000
  N   N3        1.0  0.07493999999999998  0.56672  0.55504  1.0000
  N   N4        1.0  0.8942900000000001  0.11667000000000002  0.4172699999999999  1.0000
  N   N5        1.0  0.6189  0.46323  0.10603  1.0000
  N   N6        1.0  0.9317699999999998  0.4406999999999998  0.43752999999999986  1.0000
  O   O1        1.0  0.6086  0.7504399999999999  0.56945  1.0000
  O   O2        1.0  0.8147599999999998  0.69642  0.7722499999999998  1.0000
  O   O3        1.0  0.7761900000000004  0.53536  0.7084799999999999  1.0000
  O   O4        1.0  0.53287  0.39117  0.68268  1.0000
  O   O5        1.0  0.6395100000000002  0.89082  0.41308  1.0000
  O   O6        1.0  0.7339600000000001  0.6990299999999998  0.9205399999999998  1.0000
  O   O7        1.0  0.40636  0.25399000000000005  0.4233099999999999  1.0000
  O   O8        1.0  0.19048999999999994  0.30743  0.22214999999999993  1.0000
  O   O9        1.0  0.23599  0.47082  0.28575  1.0000
  O   O10       1.0  0.47166000000000013  0.6171499999999998  0.30967  1.0000
  O   O11       1.0  0.37836  0.11470999999999998  0.58065  1.0000
  O   O12       1.0  0.2796700000000001  0.30708999999999986  0.07417999999999998  1.0000
