data_image0
_chemical_formula_structural       Zn2H24C32N4O8
_chemical_formula_sum              "Zn2 H24 C32 N4 O8"
_cell_length_a       9.02695
_cell_length_b       11.63383
_cell_length_c       13.438160000000002
_cell_angle_alpha    87.57981
_cell_angle_beta     83.81817
_cell_angle_gamma    67.02401

_space_group_name_H-M_alt    "P 1"
_space_group_IT_number       1

loop_
  _space_group_symop_operation_xyz
  'x, y, z'

loop_
  _atom_site_type_symbol
  _atom_site_label
  _atom_site_symmetry_multiplicity
  _atom_site_fract_x
  _atom_site_fract_y
  _atom_site_fract_z
  _atom_site_occupancy
  Zn  Zn1       1.0  0.14961000000000002  0.70184  0.75038  1.0000
  Zn  Zn2       1.0  0.8503899999999999  0.29816  0.24962  1.0000
  H   H1        1.0  0.8584499999999999  0.60515  0.05740999999999999  1.0000
  H   H2        1.0  0.010620000000000048  0.94396  0.8626099999999999  1.0000
  H   H3        1.0  0.11438  0.07374  0.95777  1.0000
  H   H4        1.0  0.5971100000000003  0.7977599999999999  0.8805399999999999  1.0000
  H   H5        1.0  0.4736399999999999  0.68515  0.7846399999999998  1.0000
  H   H6        1.0  0.32842  0.10387  0.020629999999999996  1.0000
  H   H7        1.0  0.5354499999999998  0.60534  0.4425999999999999  1.0000
  H   H8        1.0  0.04572000000000003  0.9433699999999999  0.6377099999999999  1.0000
  H   H9        1.0  0.81209  0.07325  0.5424499999999999  1.0000
  H   H10       1.0  0.6058300000000001  0.7978699999999999  0.61969  1.0000
  H   H11       1.0  0.8418399999999999  0.68515  0.7157399999999998  1.0000
  H   H12       1.0  0.56753  0.10364  0.47938  1.0000
  H   H13       1.0  0.14156000000000005  0.39485  0.9425899999999998  1.0000
  H   H14       1.0  0.9893799999999999  0.05604  0.13739  1.0000
  H   H15       1.0  0.8856300000000001  0.9262599999999999  0.04223  1.0000
  H   H16       1.0  0.40289  0.20224  0.11945999999999997  1.0000
  H   H17       1.0  0.52636  0.31485  0.21536  1.0000
  H   H18       1.0  0.6715800000000001  0.8961299999999999  0.9793699999999997  1.0000
  H   H19       1.0  0.4645500000000001  0.3946599999999999  0.5574  1.0000
  H   H20       1.0  0.95428  0.05663  0.3622899999999999  1.0000
  H   H21       1.0  0.18791  0.92675  0.45755  1.0000
  H   H22       1.0  0.39418000000000014  0.20212999999999998  0.38030999999999987  1.0000
  H   H23       1.0  0.15817000000000003  0.31484  0.28427  1.0000
  H   H24       1.0  0.43248000000000003  0.8963599999999998  0.5206199999999999  1.0000
  C   C1        1.0  0.9861299999999998  0.64483  0.9188499999999998  1.0000
  C   C2        1.0  0.9558  0.56171  0.99877  1.0000
  C   C3        1.0  0.13937000000000016  0.91718  0.8674899999999998  1.0000
  C   C4        1.0  0.19745999999999997  0.98741  0.9209699999999997  1.0000
  C   C5        1.0  0.36480000000000007  0.9457  0.9291499999999998  1.0000
  C   C6        1.0  0.46652000000000027  0.83455  0.8784399999999998  1.0000
  C   C7        1.0  0.39924000000000004  0.77109  0.8249299999999998  1.0000
  C   C8        1.0  0.42231999999999986  0.0175  0.9900199999999999  1.0000
  C   C9        1.0  0.37153  0.64429  0.5826499999999998  1.0000
  C   C10       1.0  0.48312999999999995  0.56152  0.50175  1.0000
  C   C11       1.0  0.9439199999999999  0.9166199999999998  0.63279  1.0000
  C   C12       1.0  0.81534  0.98701  0.5792599999999999  1.0000
  C   C13       1.0  0.68977  0.9455399999999999  0.5709599999999999  1.0000
  C   C14       1.0  0.6995200000000001  0.83453  0.6217899999999997  1.0000
  C   C15       1.0  0.8304799999999999  0.77091  0.67537  1.0000
  C   C16       1.0  0.56015  0.0174  0.51003  1.0000
  C   C17       1.0  0.01386999999999999  0.35517  0.08115  1.0000
  C   C18       1.0  0.04420000000000003  0.4382899999999999  0.00124  1.0000
  C   C19       1.0  0.86063  0.08280999999999998  0.13251  1.0000
  C   C20       1.0  0.80254  0.01259  0.07902999999999998  1.0000
  C   C21       1.0  0.6352  0.0543  0.07085  1.0000
  C   C22       1.0  0.5334900000000001  0.16545  0.12156999999999997  1.0000
  C   C23       1.0  0.60077  0.22891  0.17507  1.0000
  C   C24       1.0  0.57769  0.9824999999999999  0.00999  1.0000
  C   C25       1.0  0.6284699999999999  0.35571  0.4173499999999999  1.0000
  C   C26       1.0  0.51688  0.43848  0.4982499999999999  1.0000
  C   C27       1.0  0.05609000000000001  0.08338  0.36720999999999987  1.0000
  C   C28       1.0  0.18466000000000002  0.012979999999999998  0.4207499999999999  1.0000
  C   C29       1.0  0.31023  0.05445  0.42904  1.0000
  C   C30       1.0  0.30048  0.16546  0.3782099999999999  1.0000
  C   C31       1.0  0.16951999999999998  0.22909  0.32462999999999986  1.0000
  C   C32       1.0  0.43985  0.9826  0.4899699999999999  1.0000
  N   N1        1.0  0.23793000000000003  0.81023  0.82018  1.0000
  N   N2        1.0  0.9527700000000002  0.80966  0.6801299999999998  1.0000
  N   N3        1.0  0.76207  0.18976  0.17982  1.0000
  N   N4        1.0  0.04724  0.19033999999999998  0.3198799999999999  1.0000
  O   O1        1.0  0.0967400000000001  0.58934  0.8468999999999998  1.0000
  O   O2        1.0  0.9060300000000001  0.76092  0.92423  1.0000
  O   O3        1.0  0.31968999999999986  0.58898  0.65629  1.0000
  O   O4        1.0  0.33318000000000003  0.7604899999999999  0.57599  1.0000
  O   O5        1.0  0.90326  0.41065999999999997  0.15309999999999996  1.0000
  O   O6        1.0  0.09397999999999997  0.23908  0.07577  1.0000
  O   O7        1.0  0.68031  0.41102  0.34371  1.0000
  O   O8        1.0  0.66682  0.23950999999999995  0.4240099999999999  1.0000
