data_image0
_chemical_formula_structural       Zn6H16C28N12O12
_chemical_formula_sum              "Zn6 H16 C28 N12 O12"
_cell_length_a       11.07049
_cell_length_b       11.07962
_cell_length_c       11.11611
_cell_angle_alpha    87.81032000000002
_cell_angle_beta     87.91178
_cell_angle_gamma    71.28033

_symmetry_space_group_name_H-M    'P 1'
_symmetry_Int_Tables_number       1

loop_
  _symmetry_equiv_pos_as_xyz
  'x,y,z'

loop_
  _atom_site_type_symbol
  _atom_site_label
  _atom_site_symmetry_multiplicity
  _atom_site_fract_x
  _atom_site_fract_y
  _atom_site_fract_z
  _atom_site_occupancy
  Zn  Zn1       1.0  0.4707799999999999  0.36033  0.00242  1.0000
  Zn  Zn2       1.0  0.63928  0.52943  0.49890000000000007  1.0000
  Zn  Zn3       1.0  0.5292200000000001  0.6396799999999999  0.9975800000000001  1.0000
  Zn  Zn4       1.0  0.36073  0.47058  0.5011  1.0000
  Zn  Zn5       1.0  0.5978400000000001  0.40229  0.25085  1.0000
  Zn  Zn6       1.0  0.4021699999999999  0.59771  0.7491500000000001  1.0000
  H   H1        1.0  0.5591799999999998  0.9352  0.05534000000000001  1.0000
  H   H2        1.0  0.6351199999999999  0.84959  0.50124  1.0000
  H   H3        1.0  0.6354099999999999  0.05637999999999999  0.40088  1.0000
  H   H4        1.0  0.68896  0.38204999999999995  0.04012  1.0000
  H   H5        1.0  0.06493  0.44055  0.44501  1.0000
  H   H6        1.0  0.14953000000000002  0.36535999999999996  0.9991400000000001  1.0000
  H   H7        1.0  0.9428399999999999  0.36459  0.09956000000000001  1.0000
  H   H8        1.0  0.6179999999999998  0.31153  0.46173  1.0000
  H   H9        1.0  0.44082  0.06481  0.9446600000000002  1.0000
  H   H10       1.0  0.36489  0.15041999999999994  0.49875000000000014  1.0000
  H   H11       1.0  0.3646  0.94363  0.5991200000000001  1.0000
  H   H12       1.0  0.3110399999999999  0.61796  0.9598800000000002  1.0000
  H   H13       1.0  0.9350699999999996  0.55946  0.5549900000000001  1.0000
  H   H14       1.0  0.85047  0.63465  0.00086  1.0000
  H   H15       1.0  0.057159999999999975  0.63542  0.9004400000000001  1.0000
  H   H16       1.0  0.38199999999999995  0.6884799999999999  0.5382700000000001  1.0000
  C   C1        1.0  0.5898299999999999  0.13811  0.17387000000000002  1.0000
  C   C2        1.0  0.59654  0.007430000000000002  0.22398  1.0000
  C   C3        1.0  0.57609  0.9169599999999999  0.15086000000000002  1.0000
  C   C4        1.0  0.5772499999999999  0.8005499999999999  0.20648  1.0000
  C   C5        1.0  0.5983899999999999  0.7769799999999999  0.33140000000000003  1.0000
  C   C6        1.0  0.61979  0.868  0.40524  1.0000
  C   C7        1.0  0.61911  0.9818500000000001  0.34945  1.0000
  C   C8        1.0  0.8619099999999998  0.40908999999999995  0.32667000000000007  1.0000
  C   C9        1.0  0.9922199999999999  0.40321  0.27636  1.0000
  C   C10       1.0  0.08282000000000003  0.42378999999999994  0.34945  1.0000
  C   C11       1.0  0.19914999999999994  0.42268  0.29371  1.0000
  C   C12       1.0  0.22254000000000002  0.40164999999999995  0.16886  1.0000
  C   C13       1.0  0.13124  0.38045  0.09509  1.0000
  C   C14       1.0  0.017460000000000028  0.38093999999999995  0.15096  1.0000
  C   C15       1.0  0.41017000000000003  0.8619  0.82613  1.0000
  C   C16       1.0  0.40346  0.99258  0.7760200000000002  1.0000
  C   C17       1.0  0.42391  0.08303999999999997  0.8491400000000001  1.0000
  C   C18       1.0  0.4227499999999999  0.19946  0.7935200000000001  1.0000
  C   C19       1.0  0.40161  0.22302999999999998  0.6686  1.0000
  C   C20       1.0  0.38020999999999994  0.132  0.59476  1.0000
  C   C21       1.0  0.3808999999999999  0.018149999999999996  0.65054  1.0000
  C   C22       1.0  0.13808999999999994  0.59092  0.6733200000000001  1.0000
  C   C23       1.0  0.007789999999999989  0.5968  0.7236400000000001  1.0000
  C   C24       1.0  0.91718  0.57621  0.6505500000000001  1.0000
  C   C25       1.0  0.8008499999999997  0.57732  0.70629  1.0000
  C   C26       1.0  0.7774599999999999  0.59835  0.83113  1.0000
  C   C27       1.0  0.86876  0.61955  0.90491  1.0000
  C   C28       1.0  0.98254  0.61906  0.84904  1.0000
  N   N1        1.0  0.5605  0.69234  0.16281  1.0000
  N   N2        1.0  0.57054  0.60952  0.25544  1.0000
  N   N3        1.0  0.5931399999999999  0.6573299999999999  0.35714000000000007  1.0000
  N   N4        1.0  0.30754999999999993  0.43943  0.33715  1.0000
  N   N5        1.0  0.3902999999999999  0.42945  0.24467000000000005  1.0000
  N   N6        1.0  0.3423099999999999  0.40679999999999994  0.14311  1.0000
  N   N7        1.0  0.4395  0.30767  0.83718  1.0000
  N   N8        1.0  0.4294599999999999  0.39049  0.74456  1.0000
  N   N9        1.0  0.4068599999999999  0.34267  0.64286  1.0000
  N   N10       1.0  0.6924499999999998  0.56057  0.6628500000000002  1.0000
  N   N11       1.0  0.6097  0.57056  0.7553300000000001  1.0000
  N   N12       1.0  0.65769  0.5932  0.8568900000000003  1.0000
  O   O1        1.0  0.5470099999999999  0.16949  0.06785  1.0000
  O   O2        1.0  0.62534  0.20732  0.24423000000000003  1.0000
  O   O3        1.0  0.60194  0.43024000000000007  0.06362  1.0000
  O   O4        1.0  0.83009  0.45476  0.43134  1.0000
  O   O5        1.0  0.7936000000000001  0.36986  0.25832  1.0000
  O   O6        1.0  0.56999  0.3983  0.43717000000000006  1.0000
  O   O7        1.0  0.45299000000000006  0.83052  0.93215  1.0000
  O   O8        1.0  0.37467000000000006  0.79269  0.75577  1.0000
  O   O9        1.0  0.39805999999999986  0.56977  0.93638  1.0000
  O   O10       1.0  0.16992  0.54524  0.5686600000000002  1.0000
  O   O11       1.0  0.20641  0.63015  0.74168  1.0000
  O   O12       1.0  0.43001999999999996  0.6017  0.56283  1.0000
