data_image0
_chemical_formula_structural       Cd4H20C18N12O8
_chemical_formula_sum              "Cd4 H20 C18 N12 O8"
_cell_length_a       7.31535
_cell_length_b       10.331530000000003
_cell_length_c       12.65616
_cell_angle_alpha    111.7285
_cell_angle_beta     103.67822
_cell_angle_gamma    97.0956

_symmetry_space_group_name_H-M    'P 1'
_symmetry_Int_Tables_number       1

loop_
  _symmetry_equiv_pos_as_xyz
  'x,y,z'

loop_
  _atom_site_type_symbol
  _atom_site_label
  _atom_site_symmetry_multiplicity
  _atom_site_fract_x
  _atom_site_fract_y
  _atom_site_fract_z
  _atom_site_occupancy
  Cd  Cd1       1.0  0.96783  0.49667  0.2423  1.0000
  Cd  Cd2       1.0  0.42591  0.32991  0.3203  1.0000
  Cd  Cd3       1.0  0.2246600000000001  0.25407  0.7621200000000001  1.0000
  Cd  Cd4       1.0  0.6061100000000001  0.011470000000000074  0.6866600000000002  1.0000
  H   H1        1.0  0.19780999999999996  0.8193499999999999  0.48603  1.0000
  H   H2        1.0  0.65506  0.63508  0.5817800000000001  1.0000
  H   H3        1.0  0.10883999999999999  0.49599999999999994  0.99601  1.0000
  H   H4        1.0  0.35661  0.15284999999999999  0.00274  1.0000
  H   H5        1.0  0.82876  0.17792000000000002  0.4230300000000001  1.0000
  H   H6        1.0  0.63285  0.09696  0.28915  1.0000
  H   H7        1.0  0.03601  0.03157000000000001  0.31805  1.0000
  H   H8        1.0  0.84131  0.9504399999999998  0.18537000000000003  1.0000
  H   H9        1.0  0.8319199999999998  0.9426399999999999  0.42554  1.0000
  H   H10       1.0  0.63729  0.86253  0.29251  1.0000
  H   H11       1.0  0.21166  0.33274  0.51803  1.0000
  H   H12       1.0  0.58349  0.05990000000000004  0.4271300000000001  1.0000
  H   H13       1.0  0.61355  0.5031  0.0072900000000000005  1.0000
  H   H14       1.0  0.85801  0.15559  0.00348  1.0000
  H   H15       1.0  0.90212  0.75677  0.58316  1.0000
  H   H16       1.0  0.8444  0.80955  0.7186300000000001  1.0000
  H   H17       1.0  0.21515000000000004  0.71267  0.68493  1.0000
  H   H18       1.0  0.15506  0.76254  0.81862  1.0000
  H   H19       1.0  0.9050700000000002  0.5171  0.57863  1.0000
  H   H20       1.0  0.8427099999999998  0.5697199999999999  0.71209  1.0000
  C   C1        1.0  0.28853000000000006  0.7445  0.48777000000000004  1.0000
  C   C2        1.0  0.5218  0.65227  0.53698  1.0000
  C   C3        1.0  0.17348  0.42210999999999993  0.02634  1.0000
  C   C4        1.0  0.29831  0.24727  0.02924  1.0000
  C   C5        1.0  0.84858  0.25664000000000003  0.2964200000000001  1.0000
  C   C6        1.0  0.79163  0.13118000000000002  0.3245700000000001  1.0000
  C   C7        1.0  0.8775500000000002  0.00044999999999999527  0.28304  1.0000
  C   C8        1.0  0.79683  0.89327  0.32752  1.0000
  C   C9        1.0  0.8608  0.75319  0.29397  1.0000
  C   C10       1.0  0.30254  0.25757  0.51714  1.0000
  C   C11       1.0  0.4918  0.11979000000000005  0.4704  1.0000
  C   C12       1.0  0.64848  0.39916999999999997  0.97791  1.0000
  C   C13       1.0  0.7719400000000001  0.2226  0.9765100000000001  1.0000
  C   C14       1.0  0.05195000000000006  0.96079  0.7092400000000001  1.0000
  C   C15       1.0  0.96602  0.8075800000000002  0.6814100000000001  1.0000
  C   C16       1.0  0.09264000000000004  0.71672  0.72107  1.0000
  C   C17       1.0  0.9672000000000002  0.56543  0.67669  1.0000
  C   C18       1.0  0.06582999999999999  0.45974999999999994  0.71118  1.0000
  N   N1        1.0  0.38870000000000005  0.54798  0.44264000000000003  1.0000
  N   N2        1.0  0.23818  0.60774  0.4114  1.0000
  N   N3        1.0  0.46649  0.7785299999999999  0.56898  1.0000
  N   N4        1.0  0.29545000000000005  0.32266000000000006  0.14051  1.0000
  N   N5        1.0  0.21512999999999996  0.43614  0.13905  1.0000
  N   N6        1.0  0.22098000000000007  0.30564  0.95457  1.0000
  N   N7        1.0  0.44978  0.10768  0.56359  1.0000
  N   N8        1.0  0.32721000000000006  0.19635  0.59328  1.0000
  N   N9        1.0  0.40329000000000004  0.21316  0.43755000000000005  1.0000
  N   N10       1.0  0.65549  0.18497999999999992  0.8656  1.0000
  N   N11       1.0  0.57568  0.29924000000000006  0.8660600000000002  1.0000
  N   N12       1.0  0.76998  0.35608  0.05009  1.0000
  O   O1        1.0  0.007659999999999985  0.28143  0.27576  1.0000
  O   O2        1.0  0.73168  0.34131999999999996  0.29808  1.0000
  O   O3        1.0  0.93447  0.71237  0.20894  1.0000
  O   O4        1.0  0.83423  0.68043  0.35424  1.0000
  O   O5        1.0  0.23149  0.005720000000000002  0.72979  1.0000
  O   O6        1.0  0.93389  0.04411999999999998  0.70756  1.0000
  O   O7        1.0  0.22298999999999994  0.50488  0.79677  1.0000
  O   O8        1.0  0.98162  0.32645  0.651  1.0000
