data_image0
_chemical_formula_structural       Ni4H16C28N4O18
_chemical_formula_sum              "Ni4 H16 C28 N4 O18"
_cell_length_a       10.97191
_cell_length_b       11.11258
_cell_length_c       11.118529999999998
_cell_angle_alpha    73.41953
_cell_angle_beta     61.20725999999998
_cell_angle_gamma    61.26590999999999

_symmetry_space_group_name_H-M    'P 1'
_symmetry_Int_Tables_number       1

loop_
  _symmetry_equiv_pos_as_xyz
  'x,y,z'

loop_
  _atom_site_type_symbol
  _atom_site_label
  _atom_site_symmetry_multiplicity
  _atom_site_fract_x
  _atom_site_fract_y
  _atom_site_fract_z
  _atom_site_occupancy
  Ni  Ni1       1.0  0.4464199999999999  0.20230999999999996  0.64968  1.0000
  Ni  Ni2       1.0  0.053129999999999955  0.35055000000000003  0.79737  1.0000
  Ni  Ni3       1.0  0.9468700000000001  0.64945  0.20262  1.0000
  Ni  Ni4       1.0  0.5535799999999998  0.7976900000000001  0.35032  1.0000
  H   H1        1.0  0.41570000000000007  0.58788  0.48380000000000006  1.0000
  H   H2        1.0  0.71879  0.014879999999999997  0.4401900000000001  1.0000
  H   H3        1.0  0.91545  0.48402  0.58805  1.0000
  H   H4        1.0  0.92822  0.032799999999999996  0.21339  1.0000
  H   H5        1.0  0.78429  0.80535  0.08283  1.0000
  H   H6        1.0  0.21570999999999996  0.19465  0.91716  1.0000
  H   H7        1.0  0.71686  0.9170699999999999  0.19454  1.0000
  H   H8        1.0  0.21956000000000003  0.43979999999999997  0.01477  1.0000
  H   H9        1.0  0.5713100000000002  0.7870699999999999  0.9671299999999999  1.0000
  H   H10       1.0  0.2812100000000001  0.9851299999999998  0.55981  1.0000
  H   H11       1.0  0.78044  0.5601999999999999  0.9852199999999999  1.0000
  H   H12       1.0  0.28313999999999995  0.08293  0.80546  1.0000
  H   H13       1.0  0.07178000000000007  0.9672099999999999  0.78661  1.0000
  H   H14       1.0  0.42869  0.21293  0.03286  1.0000
  H   H15       1.0  0.5843  0.41211999999999993  0.51619  1.0000
  H   H16       1.0  0.08455000000000004  0.5159799999999999  0.41194  1.0000
  C   C1        1.0  0.7686200000000001  0.35437  0.31697  1.0000
  C   C2        1.0  0.14594000000000013  0.8800499999999999  0.72269  1.0000
  C   C3        1.0  0.6456200000000002  0.7230099999999999  0.88008  1.0000
  C   C4        1.0  0.98736  0.2581  0.08798  1.0000
  C   C5        1.0  0.83854  0.55499  0.66871  1.0000
  C   C6        1.0  0.26864  0.31672999999999996  0.35439000000000004  1.0000
  C   C7        1.0  0.26743000000000006  0.28059999999999996  0.49562000000000006  1.0000
  C   C8        1.0  0.73894  0.10811999999999997  0.4038  1.0000
  C   C9        1.0  0.37037999999999993  0.23062  0.24472  1.0000
  C   C10       1.0  0.76793  0.49545999999999996  0.28078  1.0000
  C   C11       1.0  0.73258  0.7194  0.50438  1.0000
  C   C12       1.0  0.87024  0.24476999999999996  0.23073999999999997  1.0000
  C   C13       1.0  0.23206999999999997  0.50454  0.71922  1.0000
  C   C14       1.0  0.23944000000000004  0.40343999999999997  0.10806  1.0000
  C   C15       1.0  0.26106000000000007  0.8918799999999999  0.5962  1.0000
  C   C16       1.0  0.48761000000000004  0.08813999999999998  0.25793  1.0000
  C   C17       1.0  0.12975999999999988  0.75523  0.76926  1.0000
  C   C18       1.0  0.7313699999999997  0.68327  0.6456  1.0000
  C   C19       1.0  0.85407  0.11995  0.27731  1.0000
  C   C20       1.0  0.16146000000000016  0.44500999999999996  0.33129  1.0000
  C   C21       1.0  0.35438  0.27699  0.11992000000000001  1.0000
  C   C22       1.0  0.6296200000000001  0.7693799999999998  0.75528  1.0000
  C   C23       1.0  0.7605600000000006  0.59656  0.89194  1.0000
  C   C24       1.0  0.5123900000000001  0.9118599999999999  0.7420700000000001  1.0000
  C   C25       1.0  0.33878999999999987  0.66863  0.55469  1.0000
  C   C26       1.0  0.66121  0.33137  0.44531000000000004  1.0000
  C   C27       1.0  0.012649999999999998  0.7419  0.91201  1.0000
  C   C28       1.0  0.23137999999999995  0.64563  0.68302  1.0000
  N   N1        1.0  0.6437000000000002  0.21245999999999998  0.48815  1.0000
  N   N2        1.0  0.35629999999999995  0.78754  0.51185  1.0000
  N   N3        1.0  0.14422000000000004  0.48783999999999994  0.21236  1.0000
  N   N4        1.0  0.8557799999999999  0.51216  0.78764  1.0000
  O   O1        1.0  0.9315499999999998  0.31798  0.99767  1.0000
  O   O2        1.0  0.8742799999999998  0.7962199999999999  0.9319800000000001  1.0000
  O   O3        1.0  0.64243  0.59169  0.34569  1.0000
  O   O4        1.0  0.6099600000000001  0.80846  0.49300000000000005  1.0000
  O   O5        1.0  0.37412999999999985  0.93148  0.79653  1.0000
  O   O6        1.0  0.8583600000000001  0.65435  0.40837  1.0000
  O   O7        1.0  0.06845  0.68202  0.00233  1.0000
  O   O8        1.0  0.56831  0.00223  0.68184  1.0000
  O   O9        1.0  0.6258699999999998  0.06851999999999997  0.20347  1.0000
  O   O10       1.0  0.75042  0.8125000000000001  0.18758  1.0000
  O   O11       1.0  0.3900400000000001  0.19154000000000002  0.507  1.0000
  O   O12       1.0  0.14164000000000002  0.34565  0.59163  1.0000
  O   O13       1.0  0.3575700000000001  0.40831  0.6543  1.0000
  O   O14       1.0  0.10904999999999995  0.4936  0.80821  1.0000
  O   O15       1.0  0.12572000000000005  0.20378  0.06801  1.0000
  O   O16       1.0  0.24958000000000002  0.18749999999999994  0.81242  1.0000
  O   O17       1.0  0.8909500000000002  0.5063999999999999  0.19178  1.0000
  O   O18       1.0  0.4316900000000001  0.9977699999999999  0.31816  1.0000
