data_image0
_chemical_formula_structural       Zn2H30C34N4O8
_chemical_formula_sum              "Zn2 H30 C34 N4 O8"
_cell_length_a       8.3014
_cell_length_b       10.297300000000002
_cell_length_c       13.35086
_cell_angle_alpha    64.63785
_cell_angle_beta     78.43517999999999
_cell_angle_gamma    78.32857

_symmetry_space_group_name_H-M    'P 1'
_symmetry_Int_Tables_number       1

loop_
  _symmetry_equiv_pos_as_xyz
  'x,y,z'

loop_
  _atom_site_type_symbol
  _atom_site_label
  _atom_site_symmetry_multiplicity
  _atom_site_fract_x
  _atom_site_fract_y
  _atom_site_fract_z
  _atom_site_occupancy
  Zn  Zn1       1.0  0.94201  0.42212000000000005  0.16039  1.0000
  Zn  Zn2       1.0  0.057989999999999965  0.5778800000000001  0.83961  1.0000
  H   H1        1.0  0.25665  0.23574999999999996  0.06796000000000002  1.0000
  H   H2        1.0  0.51874  0.24281000000000003  0.30573  1.0000
  H   H3        1.0  0.19750999999999996  0.39264  0.31986000000000003  1.0000
  H   H4        1.0  0.66896  0.19159999999999996  0.10403  1.0000
  H   H5        1.0  0.61117  0.03595000000000001  0.22012  1.0000
  H   H6        1.0  0.40735999999999994  0.9162400000000002  0.28527  1.0000
  H   H7        1.0  0.3546400000000002  0.7702400000000001  0.26832  1.0000
  H   H8        1.0  0.56242  0.7737400000000001  0.27623  1.0000
  H   H9        1.0  0.5961800000000002  0.33669  0.96042  1.0000
  H   H10       1.0  0.7115899999999998  0.30321  0.84561  1.0000
  H   H11       1.0  0.49700000000000016  0.3674499999999999  0.8456400000000002  1.0000
  H   H12       1.0  0.9389799999999999  0.025900000000000006  0.18106  1.0000
  H   H13       1.0  0.05102999999999997  0.21784999999999988  0.8231400000000002  1.0000
  H   H14       1.0  0.78848  0.5139  0.51768  1.0000
  H   H15       1.0  0.45121999999999995  0.45077  0.34309  1.0000
  H   H16       1.0  0.7433400000000001  0.7642499999999999  0.9320300000000002  1.0000
  H   H17       1.0  0.48125  0.7572  0.6942700000000002  1.0000
  H   H18       1.0  0.80249  0.60736  0.68014  1.0000
  H   H19       1.0  0.33104  0.8084000000000001  0.89597  1.0000
  H   H20       1.0  0.38882  0.96405  0.77988  1.0000
  H   H21       1.0  0.5926300000000001  0.0837599999999999  0.7147200000000002  1.0000
  H   H22       1.0  0.64535  0.2297599999999999  0.7316800000000001  1.0000
  H   H23       1.0  0.43757  0.22626000000000004  0.72377  1.0000
  H   H24       1.0  0.40380999999999995  0.66331  0.03958  1.0000
  H   H25       1.0  0.2884  0.69679  0.15439  1.0000
  H   H26       1.0  0.5030000000000001  0.63255  0.15436  1.0000
  H   H27       1.0  0.061020000000000046  0.9740999999999997  0.8189400000000002  1.0000
  H   H28       1.0  0.9489599999999998  0.78215  0.17686000000000002  1.0000
  H   H29       1.0  0.21151999999999996  0.4861  0.48232  1.0000
  H   H30       1.0  0.5487700000000001  0.54923  0.65691  1.0000
  C   C1        1.0  0.27913  0.25734  0.13598  1.0000
  C   C2        1.0  0.41444000000000003  0.26175  0.26164  1.0000
  C   C3        1.0  0.25860000000000005  0.33757999999999994  0.26643  1.0000
  C   C4        1.0  0.5693  0.12340999999999998  0.14382  1.0000
  C   C5        1.0  0.5301  0.06149999999999999  0.06857  1.0000
  C   C6        1.0  0.47735000000000016  0.92314  0.11733000000000002  1.0000
  C   C7        1.0  0.54954  0.1407  0.95166  1.0000
  C   C8        1.0  0.44923  0.84262  0.24274  1.0000
  C   C9        1.0  0.59117  0.29419  0.89889  1.0000
  C   C10       1.0  0.98473  0.27918  0.005300000000000002  1.0000
  C   C11       1.0  0.9923800000000002  0.13491  0.0025500000000000006  1.0000
  C   C12       1.0  0.9644700000000002  0.012999999999999998  0.10247  1.0000
  C   C13       1.0  0.029110000000000046  0.12183999999999995  0.89971  1.0000
  C   C14       1.0  0.7763199999999999  0.46089  0.33923  1.0000
  C   C15       1.0  0.6336  0.47847  0.42318  1.0000
  C   C16       1.0  0.66169  0.5083299999999998  0.5108700000000002  1.0000
  C   C17       1.0  0.4711300000000002  0.47042999999999996  0.41305  1.0000
  C   C18       1.0  0.7208600000000003  0.74266  0.86402  1.0000
  C   C19       1.0  0.5855500000000001  0.73825  0.7383600000000001  1.0000
  C   C20       1.0  0.7413899999999999  0.6624199999999999  0.73357  1.0000
  C   C21       1.0  0.43070000000000014  0.8765999999999998  0.8561700000000002  1.0000
  C   C22       1.0  0.46989999999999993  0.9385  0.9314300000000001  1.0000
  C   C23       1.0  0.5226500000000004  0.07685999999999998  0.88267  1.0000
  C   C24       1.0  0.45045000000000024  0.8593  0.04834  1.0000
  C   C25       1.0  0.5507700000000002  0.15738000000000002  0.75726  1.0000
  C   C26       1.0  0.4088300000000001  0.70581  0.10111000000000003  1.0000
  C   C27       1.0  0.015259999999999937  0.7208199999999998  0.9947000000000003  1.0000
  C   C28       1.0  0.007619999999999943  0.8650900000000001  0.9974500000000002  1.0000
  C   C29       1.0  0.035520000000000114  0.9869999999999997  0.89753  1.0000
  C   C30       1.0  0.9708900000000001  0.8781600000000002  0.10029  1.0000
  C   C31       1.0  0.22366999999999995  0.53911  0.66077  1.0000
  C   C32       1.0  0.3663899999999999  0.5215299999999999  0.5768200000000001  1.0000
  C   C33       1.0  0.33831000000000017  0.49168  0.48913  1.0000
  C   C34       1.0  0.5288600000000001  0.5295699999999999  0.5869500000000001  1.0000
  N   N1        1.0  0.17528000000000005  0.33427000000000007  0.18746  1.0000
  N   N2        1.0  0.42441999999999985  0.21123  0.17926  1.0000
  N   N3        1.0  0.8247200000000003  0.6657299999999998  0.8125400000000002  1.0000
  N   N4        1.0  0.5755699999999999  0.78877  0.82074  1.0000
  O   O1        1.0  0.88945  0.30435  0.08488  1.0000
  O   O2        1.0  0.07917999999999997  0.36495000000000005  0.92877  1.0000
  O   O3        1.0  0.74569  0.40823000000000004  0.27249  1.0000
  O   O4        1.0  0.9136200000000001  0.49770999999999993  0.3341  1.0000
  O   O5        1.0  0.11053999999999997  0.6956599999999998  0.9151100000000002  1.0000
  O   O6        1.0  0.9208100000000004  0.63506  0.07123  1.0000
  O   O7        1.0  0.2543100000000001  0.5917699999999999  0.72751  1.0000
  O   O8        1.0  0.08637000000000003  0.5023  0.6659  1.0000
