data_image0
_chemical_formula_structural       Mn2H32C48N4O10
_chemical_formula_sum              "Mn2 H32 C48 N4 O10"
_cell_length_a       9.31365
_cell_length_b       11.80884
_cell_length_c       13.269249999999998
_cell_angle_alpha    90.0
_cell_angle_beta     89.70275999999998
_cell_angle_gamma    90.0

_symmetry_space_group_name_H-M    'P 1'
_symmetry_Int_Tables_number       1

loop_
  _symmetry_equiv_pos_as_xyz
  'x,y,z'

loop_
  _atom_site_type_symbol
  _atom_site_label
  _atom_site_symmetry_multiplicity
  _atom_site_fract_x
  _atom_site_fract_y
  _atom_site_fract_z
  _atom_site_occupancy
  Mn  Mn1       1.0  0.24999999999999994  0.05313  0.0  1.0000
  Mn  Mn2       1.0  0.7499999999999998  0.94687  0.0  1.0000
  H   H1        1.0  0.5852099999999999  0.7885399999999999  0.74464  1.0000
  H   H2        1.0  0.48032999999999987  0.69753  0.59086  1.0000
  H   H3        1.0  0.14713  0.95035  0.58692  1.0000
  H   H4        1.0  0.25099  0.03786  0.7420600000000003  1.0000
  H   H5        1.0  0.3597  0.8454  0.13521000000000002  1.0000
  H   H6        1.0  0.35981  0.63604  0.14339000000000002  1.0000
  H   H7        1.0  0.44211999999999996  0.47037  0.09072000000000002  1.0000
  H   H8        1.0  0.43409999999999993  0.25972  0.08555  1.0000
  H   H9        1.0  0.9147899999999999  0.7885399999999999  0.25536000000000003  1.0000
  H   H10       1.0  0.019669999999999993  0.69753  0.4091400000000001  1.0000
  H   H11       1.0  0.35286999999999996  0.95035  0.4130800000000001  1.0000
  H   H12       1.0  0.24901  0.03786  0.25794  1.0000
  H   H13       1.0  0.14029999999999992  0.8454  0.86479  1.0000
  H   H14       1.0  0.14019  0.63604  0.8566000000000003  1.0000
  H   H15       1.0  0.05788  0.47037  0.90928  1.0000
  H   H16       1.0  0.0659  0.25972  0.9144500000000002  1.0000
  H   H17       1.0  0.41479  0.21146  0.25536000000000003  1.0000
  H   H18       1.0  0.5196699999999999  0.30248  0.4091400000000001  1.0000
  H   H19       1.0  0.8528699999999998  0.04964999999999999  0.4130800000000001  1.0000
  H   H20       1.0  0.74901  0.96215  0.25794  1.0000
  H   H21       1.0  0.6403  0.15461  0.86479  1.0000
  H   H22       1.0  0.64019  0.36396  0.8566000000000003  1.0000
  H   H23       1.0  0.5578799999999998  0.52963  0.90928  1.0000
  H   H24       1.0  0.5658999999999998  0.7402799999999999  0.9144500000000002  1.0000
  H   H25       1.0  0.08520999999999997  0.21146  0.74464  1.0000
  H   H26       1.0  0.9803299999999999  0.30248  0.59086  1.0000
  H   H27       1.0  0.64713  0.04964999999999999  0.58692  1.0000
  H   H28       1.0  0.7509899999999999  0.96215  0.7420600000000003  1.0000
  H   H29       1.0  0.8597  0.15461  0.13521000000000002  1.0000
  H   H30       1.0  0.85981  0.36396  0.14339000000000002  1.0000
  H   H31       1.0  0.9421199999999998  0.52963  0.09072000000000002  1.0000
  H   H32       1.0  0.9341  0.7402799999999999  0.08555  1.0000
  C   C1        1.0  0.48279  0.97107  0.84736  1.0000
  C   C2        1.0  0.4242799999999998  0.91911  0.75309  1.0000
  C   C3        1.0  0.4890399999999999  0.82304  0.71009  1.0000
  C   C4        1.0  0.43153  0.77227  0.6245  1.0000
  C   C5        1.0  0.30842  0.81865  0.58062  1.0000
  C   C6        1.0  0.24324999999999994  0.9153599999999998  0.6213  1.0000
  C   C7        1.0  0.30185  0.96477  0.7071700000000002  1.0000
  C   C8        1.0  0.31009  0.79598  0.07582  1.0000
  C   C9        1.0  0.31152  0.6781399999999999  0.07902  1.0000
  C   C10       1.0  0.35559  0.42815999999999993  0.05094000000000001  1.0000
  C   C11       1.0  0.35254  0.31032  0.04821000000000002  1.0000
  C   C12       1.0  0.01721  0.97107  0.15264  1.0000
  C   C13       1.0  0.07572  0.91911  0.24691  1.0000
  C   C14       1.0  0.010959999999999998  0.82304  0.2899  1.0000
  C   C15       1.0  0.06846999999999998  0.77227  0.3755000000000001  1.0000
  C   C16       1.0  0.19158999999999998  0.81865  0.4193800000000001  1.0000
  C   C17       1.0  0.25674999999999987  0.9153599999999998  0.37869000000000014  1.0000
  C   C18       1.0  0.19815  0.96477  0.29283000000000003  1.0000
  C   C19       1.0  0.18992  0.79599  0.92418  1.0000
  C   C20       1.0  0.18848  0.6781399999999999  0.9209800000000002  1.0000
  C   C21       1.0  0.14442  0.42815999999999993  0.94906  1.0000
  C   C22       1.0  0.14746999999999996  0.31032  0.9517900000000001  1.0000
  C   C23       1.0  0.51721  0.02894  0.15264  1.0000
  C   C24       1.0  0.5757199999999999  0.08089  0.24691  1.0000
  C   C25       1.0  0.51096  0.17697  0.2899  1.0000
  C   C26       1.0  0.56847  0.22772999999999996  0.3755000000000001  1.0000
  C   C27       1.0  0.69159  0.18135  0.4193800000000001  1.0000
  C   C28       1.0  0.7567499999999998  0.08464  0.3787000000000001  1.0000
  C   C29       1.0  0.69815  0.03524  0.29283000000000003  1.0000
  C   C30       1.0  0.68991  0.20401999999999998  0.92418  1.0000
  C   C31       1.0  0.6884799999999998  0.32186  0.9209800000000002  1.0000
  C   C32       1.0  0.6444199999999999  0.57185  0.94906  1.0000
  C   C33       1.0  0.6474699999999999  0.68969  0.9517900000000001  1.0000
  C   C34       1.0  0.9827899999999999  0.02894  0.84736  1.0000
  C   C35       1.0  0.9242799999999999  0.08089  0.75309  1.0000
  C   C36       1.0  0.9890399999999998  0.17697  0.71009  1.0000
  C   C37       1.0  0.93153  0.22772999999999996  0.6245  1.0000
  C   C38       1.0  0.80842  0.18135999999999997  0.58062  1.0000
  C   C39       1.0  0.74325  0.08464  0.6213  1.0000
  C   C40       1.0  0.8018499999999998  0.03524  0.7071700000000002  1.0000
  C   C41       1.0  0.8100899999999998  0.20401999999999998  0.07582  1.0000
  C   C42       1.0  0.81152  0.32186  0.07902  1.0000
  C   C43       1.0  0.85559  0.57185  0.05094000000000001  1.0000
  C   C44       1.0  0.8525299999999999  0.68969  0.04821000000000002  1.0000
  C   C45       1.0  0.24999999999999994  0.61596  0.0  1.0000
  C   C46       1.0  0.24999999999999994  0.49058  0.0  1.0000
  C   C47       1.0  0.7499999999999998  0.38403999999999994  0.0  1.0000
  C   C48       1.0  0.7499999999999998  0.50942  0.0  1.0000
  N   N1        1.0  0.24999999999999994  0.85514  0.0  1.0000
  N   N2        1.0  0.24999999999999994  0.25116  0.0  1.0000
  N   N3        1.0  0.7499999999999998  0.14487  0.0  1.0000
  N   N4        1.0  0.7499999999999998  0.74884  0.0  1.0000
  O   O1        1.0  0.41402  0.05218  0.88861  1.0000
  O   O2        1.0  0.6013799999999999  0.93063  0.8792600000000003  1.0000
  O   O3        1.0  0.08599  0.05218  0.11138000000000003  1.0000
  O   O4        1.0  0.89862  0.93063  0.12074000000000003  1.0000
  O   O5        1.0  0.58599  0.94783  0.11138000000000003  1.0000
  O   O6        1.0  0.39863  0.06937  0.12074000000000003  1.0000
  O   O7        1.0  0.9140199999999999  0.94783  0.8886200000000002  1.0000
  O   O8        1.0  0.10137999999999998  0.06937  0.8792600000000003  1.0000
  O   O9        1.0  0.24999999999999994  0.75956  0.5  1.0000
  O   O10       1.0  0.7499999999999998  0.24044999999999997  0.5  1.0000
