data_image0
_chemical_formula_structural       Zn2H8C4N20
_chemical_formula_sum              "Zn2 H8 C4 N20"
_cell_length_a       9.03102
_cell_length_b       10.357370000000001
_cell_length_c       10.08058
_cell_angle_alpha    121.08421
_cell_angle_beta     116.70903999999999
_cell_angle_gamma    89.80375000000001

_symmetry_space_group_name_H-M    'P 1'
_symmetry_Int_Tables_number       1

loop_
  _symmetry_equiv_pos_as_xyz
  'x,y,z'

loop_
  _atom_site_type_symbol
  _atom_site_label
  _atom_site_symmetry_multiplicity
  _atom_site_fract_x
  _atom_site_fract_y
  _atom_site_fract_z
  _atom_site_occupancy
  Zn  Zn1       1.0  0.31021000000000004  0.16459000000000004  0.2809800000000001  1.0000
  Zn  Zn2       1.0  0.5270299999999999  0.88464  0.71878  1.0000
  H   H1        1.0  0.33585000000000004  0.82872  0.17697  1.0000
  H   H2        1.0  0.34734  0.73742  0.28981  1.0000
  H   H3        1.0  0.8147100000000002  0.2075100000000001  0.9099900000000001  1.0000
  H   H4        1.0  0.03633  0.28467999999999993  0.06640000000000003  1.0000
  H   H5        1.0  0.6595800000000002  0.65185  0.8218200000000002  1.0000
  H   H6        1.0  0.55785  0.44776999999999995  0.7093200000000002  1.0000
  H   H7        1.0  0.40079999999999993  0.29608999999999996  0.08832000000000002  1.0000
  H   H8        1.0  0.47118999999999994  0.21888000000000007  0.9355000000000002  1.0000
  C   C1        1.0  0.41824999999999996  0.9782199999999999  0.44731  1.0000
  C   C2        1.0  0.91923  0.07735  0.00523  1.0000
  C   C3        1.0  0.47125999999999996  0.5308399999999999  0.55185  1.0000
  C   C4        1.0  0.41302000000000016  0.07188000000000005  0.9945400000000002  1.0000
  N   N1        1.0  0.41764999999999985  0.11772999999999997  0.46528  1.0000
  N   N2        1.0  0.48215000000000025  0.23267000000000004  0.6442700000000002  1.0000
  N   N3        1.0  0.3699399999999999  0.8366799999999999  0.29361  1.0000
  N   N4        1.0  0.48090000000000005  0.009090000000000126  0.6142100000000003  1.0000
  N   N5        1.0  0.5191000000000001  0.1688900000000001  0.7329100000000002  1.0000
  N   N6        1.0  0.9882899999999999  0.9341999999999999  0.11231000000000001  1.0000
  N   N7        1.0  0.8268099999999999  0.86811  0.9817500000000002  1.0000
  N   N8        1.0  0.05102000000000001  0.06753  0.13255  1.0000
  N   N9        1.0  0.7784300000000001  0.9539699999999999  0.9098200000000002  1.0000
  N   N10       1.0  0.9283900000000002  0.18782000000000007  0.9718200000000002  1.0000
  N   N11       1.0  0.45265000000000016  0.65259  0.5342200000000003  1.0000
  N   N12       1.0  0.33795  0.58818  0.35526000000000013  1.0000
  N   N13       1.0  0.57727  0.5428899999999999  0.7051400000000001  1.0000
  N   N14       1.0  0.36724000000000007  0.3944399999999999  0.3848900000000001  1.0000
  N   N15       1.0  0.28641  0.43551999999999996  0.26647  1.0000
  N   N16       1.0  0.37569999999999987  0.8213099999999999  0.88641  1.0000
  N   N17       1.0  0.3456499999999999  0.88533  0.017570000000000006  1.0000
  N   N18       1.0  0.41685000000000016  0.93486  0.8663400000000002  1.0000
  N   N19       1.0  0.36881  0.04326  0.09005000000000003  1.0000
  N   N20       1.0  0.45474999999999993  0.21583999999999998  0.028110000000000007  1.0000
