data_image0
_chemical_formula_structural       Co4H24C48N16
_chemical_formula_sum              "Co4 H24 C48 N16"
_cell_length_a       13.27725
_cell_length_b       13.29192
_cell_length_c       14.075169999999998
_cell_angle_alpha    90.07508
_cell_angle_beta     90.05202
_cell_angle_gamma    90.01265

_space_group_name_H-M_alt    "P 1"
_space_group_IT_number       1

loop_
  _space_group_symop_operation_xyz
  'x, y, z'

loop_
  _atom_site_type_symbol
  _atom_site_label
  _atom_site_symmetry_multiplicity
  _atom_site_fract_x
  _atom_site_fract_y
  _atom_site_fract_z
  _atom_site_occupancy
  Co  Co1       1.0  0.9733799999999998  0.0031499999999999996  0.87211  1.0000
  Co  Co2       1.0  0.02443  0.9930599999999998  0.3721000000000001  1.0000
  Co  Co3       1.0  0.024189999999999993  0.0032  0.6243300000000003  1.0000
  Co  Co4       1.0  0.97291  0.99192  0.13044  1.0000
  H   H1        1.0  0.73931  0.9961499999999998  0.8477200000000003  1.0000
  H   H2        1.0  0.92228  0.7714299999999998  0.8843100000000003  1.0000
  H   H3        1.0  0.9472399999999997  0.5973699999999998  0.89443  1.0000
  H   H4        1.0  0.9462299999999999  0.41181  0.8928800000000002  1.0000
  H   H5        1.0  0.5645299999999999  0.00737  0.84792  1.0000
  H   H6        1.0  0.37921  0.007380000000000001  0.8485000000000003  1.0000
  H   H7        1.0  0.26175  0.0024799999999999996  0.3457300000000001  1.0000
  H   H8        1.0  0.07636  0.22893  0.3859900000000001  1.0000
  H   H9        1.0  0.05453  0.40227999999999997  0.39443  1.0000
  H   H10       1.0  0.05556  0.58833  0.39346000000000003  1.0000
  H   H11       1.0  0.43441  0.99305  0.3471  1.0000
  H   H12       1.0  0.62021  0.9875  0.34799000000000013  1.0000
  H   H13       1.0  0.26031999999999994  0.9995099999999999  0.6536700000000001  1.0000
  H   H14       1.0  0.07783  0.76938  0.61377  1.0000
  H   H15       1.0  0.0531  0.59811  0.6048400000000003  1.0000
  H   H16       1.0  0.05438999999999999  0.41266  0.60496  1.0000
  H   H17       1.0  0.43499  0.00903  0.6537000000000002  1.0000
  H   H18       1.0  0.6205799999999998  0.0036099999999999995  0.6530300000000002  1.0000
  H   H19       1.0  0.7384  0.00448  0.15542000000000006  1.0000
  H   H20       1.0  0.9240199999999997  0.22833999999999993  0.11313000000000002  1.0000
  H   H21       1.0  0.9444399999999997  0.4022  0.10561000000000002  1.0000
  H   H22       1.0  0.94448  0.58817  0.10658000000000002  1.0000
  H   H23       1.0  0.5647799999999998  0.9922899999999999  0.15412  1.0000
  H   H24       1.0  0.3795199999999999  0.99271  0.15365  1.0000
  C   C1        1.0  0.7559199999999998  0.99823  0.9231200000000002  1.0000
  C   C2        1.0  0.9599499999999997  0.78774  0.81781  1.0000
  C   C3        1.0  0.9701299999999998  0.5575599999999998  0.8303600000000002  1.0000
  C   C4        1.0  0.9698599999999998  0.45298  0.82992  1.0000
  C   C5        1.0  0.5249  0.00406  0.9154800000000002  1.0000
  C   C6        1.0  0.42021999999999987  0.00414  0.91546  1.0000
  C   C7        1.0  0.18764  0.00431  0.9247200000000002  1.0000
  C   C8        1.0  0.9645099999999998  0.21998  0.8146900000000002  1.0000
  C   C9        1.0  0.24422999999999997  0.00209  0.4209000000000001  1.0000
  C   C10       1.0  0.03943  0.21182999999999994  0.31921  1.0000
  C   C11       1.0  0.030999999999999993  0.44224999999999987  0.33078  1.0000
  C   C12       1.0  0.0315  0.54644  0.33094  1.0000
  C   C13       1.0  0.47443999999999986  0.99602  0.4144900000000001  1.0000
  C   C14       1.0  0.57871  0.99324  0.4144400000000001  1.0000
  C   C15       1.0  0.8083399999999997  0.99876  0.42038  1.0000
  C   C16       1.0  0.03166999999999999  0.77622  0.3249  1.0000
  C   C17       1.0  0.24370999999999995  0.00064  0.5783  1.0000
  C   C18       1.0  0.04004  0.78689  0.6799800000000003  1.0000
  C   C19       1.0  0.030529999999999995  0.55788  0.66864  1.0000
  C   C20       1.0  0.03094  0.45337999999999995  0.66832  1.0000
  C   C21       1.0  0.4746899999999999  0.0046099999999999995  0.58623  1.0000
  C   C22       1.0  0.57901  0.0019299999999999999  0.5863500000000003  1.0000
  C   C23       1.0  0.8095599999999997  0.00352  0.5776  1.0000
  C   C24       1.0  0.03763  0.21991  0.68285  1.0000
  C   C25       1.0  0.7552899999999998  0.0025199999999999997  0.08012  1.0000
  C   C26       1.0  0.96161  0.21176  0.17965000000000006  1.0000
  C   C27       1.0  0.9684599999999998  0.44224999999999987  0.16915000000000005  1.0000
  C   C28       1.0  0.9686499999999999  0.54643  0.16905  1.0000
  C   C29       1.0  0.52499  0.99591  0.08661  1.0000
  C   C30       1.0  0.42039  0.9960299999999999  0.08667  1.0000
  C   C31       1.0  0.18807  0.9957699999999999  0.07765  1.0000
  C   C32       1.0  0.9714699999999997  0.77646  0.17625000000000005  1.0000
  C   C33       1.0  0.00027  0.72213  0.74935  1.0000
  C   C34       1.0  0.00035000000000000005  0.61231  0.7496600000000002  1.0000
  C   C35       1.0  0.00042999999999999977  0.39905  0.74894  1.0000
  C   C36       1.0  0.00064  0.28981  0.74843  1.0000
  C   C37       1.0  4.000000000000005e-05  0.27765  0.24960000000000004  1.0000
  C   C38       1.0  0.9997399999999999  0.38698  0.24991000000000005  1.0000
  C   C39       1.0  0.00059  0.60157  0.24991000000000005  1.0000
  C   C40       1.0  0.00126  0.70967  0.25002  1.0000
  C   C41       1.0  0.69005  0.00023  0.0014600000000000004  1.0000
  C   C42       1.0  0.58001  7e-05  0.00107  1.0000
  C   C43       1.0  0.36554  0.00025  0.00108  1.0000
  C   C44       1.0  0.25624  0.00029  0.00131  1.0000
  C   C45       1.0  0.30981  0.0016799999999999996  0.49999  1.0000
  C   C46       1.0  0.41933  0.00161  0.50031  1.0000
  C   C47       1.0  0.63384  0.997  0.50034  1.0000
  C   C48       1.0  0.7421399999999998  0.99791  0.4997700000000001  1.0000
  N   N1        1.0  0.9744199999999997  0.88429  0.7907900000000002  1.0000
  N   N2        1.0  0.8526399999999997  0.9991699999999999  0.9529600000000001  1.0000
  N   N3        1.0  0.09234999999999999  0.0016600000000000005  0.9502400000000002  1.0000
  N   N4        1.0  0.97445  0.12309  0.7928500000000003  1.0000
  N   N5        1.0  0.025639999999999996  0.11550999999999997  0.29264  1.0000
  N   N6        1.0  0.14756999999999998  0.00141  0.44984  1.0000
  N   N7        1.0  0.90385  0.010369999999999999  0.4468900000000001  1.0000
  N   N8        1.0  0.02201  0.8719099999999997  0.29848  1.0000
  N   N9        1.0  0.024829999999999994  0.8838  0.7055500000000002  1.0000
  N   N10       1.0  0.14726  0.0006099999999999999  0.54826  1.0000
  N   N11       1.0  0.9046  0.01303  0.54894  1.0000
  N   N12       1.0  0.024839999999999994  0.12227  0.7053800000000002  1.0000
  N   N13       1.0  0.9767599999999997  0.11551999999999998  0.20593000000000006  1.0000
  N   N14       1.0  0.8523399999999999  0.0019399999999999999  0.050730000000000004  1.0000
  N   N15       1.0  0.09244999999999998  0.99599  0.05282000000000001  1.0000
  N   N16       1.0  0.9811699999999999  0.8718999999999999  0.20321  1.0000
