data_image0
_chemical_formula_structural       Cd2H22C36N4O8
_chemical_formula_sum              "Cd2 H22 C36 N4 O8"
_cell_length_a       9.11811
_cell_length_b       10.176220000000002
_cell_length_c       12.806859999999999
_cell_angle_alpha    70.20756
_cell_angle_beta     71.22653
_cell_angle_gamma    63.427749999999996

_space_group_name_H-M_alt    "P 1"
_space_group_IT_number       1

loop_
  _space_group_symop_operation_xyz
  'x, y, z'

loop_
  _atom_site_type_symbol
  _atom_site_label
  _atom_site_symmetry_multiplicity
  _atom_site_fract_x
  _atom_site_fract_y
  _atom_site_fract_z
  _atom_site_occupancy
  Cd  Cd1       1.0  0.8297099999999996  0.13079  0.41682  1.0000
  Cd  Cd2       1.0  0.17028999999999994  0.8692099999999999  0.58318  1.0000
  H   H1        1.0  0.10703999999999993  0.22289999999999996  0.02057  1.0000
  H   H2        1.0  0.8097500000000001  0.6108  0.16361  1.0000
  H   H3        1.0  0.9514  0.4072200000000001  0.36292  1.0000
  H   H4        1.0  0.12839999999999996  0.31663  0.66287  1.0000
  H   H5        1.0  0.58274  0.42902999999999997  0.55084  1.0000
  H   H6        1.0  0.45217  0.38375000000000004  0.78178  1.0000
  H   H7        1.0  0.7264599999999999  0.96016  0.6907  1.0000
  H   H8        1.0  0.9163299999999999  0.17307000000000003  0.9846899999999998  1.0000
  H   H9        1.0  0.7773499999999999  0.18536000000000002  0.84368  1.0000
  H   H10       1.0  0.35324  0.07809999999999997  0.75175  1.0000
  H   H11       1.0  0.14182  0.9661099999999999  0.81525  1.0000
  H   H12       1.0  0.8929600000000002  0.7770999999999999  0.9794299999999999  1.0000
  H   H13       1.0  0.19025999999999998  0.3892  0.83639  1.0000
  H   H14       1.0  0.048610000000000035  0.59278  0.6370799999999999  1.0000
  H   H15       1.0  0.8716  0.68337  0.33712999999999993  1.0000
  H   H16       1.0  0.4172699999999999  0.57097  0.44916  1.0000
  H   H17       1.0  0.5478399999999999  0.6162599999999998  0.21822  1.0000
  H   H18       1.0  0.27354000000000006  0.03984  0.3093  1.0000
  H   H19       1.0  0.08367999999999998  0.82693  0.015309999999999999  1.0000
  H   H20       1.0  0.22266  0.8146499999999999  0.15631  1.0000
  H   H21       1.0  0.64676  0.9219099999999999  0.24823999999999996  1.0000
  H   H22       1.0  0.8581800000000002  0.033889999999999997  0.18475  1.0000
  C   C1        1.0  0.9010099999999999  0.30684999999999996  0.21078  1.0000
  C   C2        1.0  0.95117  0.40715  0.10218999999999999  1.0000
  C   C3        1.0  0.060270000000000025  0.34439999999999993  0.01026  1.0000
  C   C4        1.0  0.8916800000000001  0.56347  0.09132  1.0000
  C   C5        1.0  0.09646  0.17912000000000003  0.52905  1.0000
  C   C6        1.0  0.04596  0.34453999999999996  0.51436  1.0000
  C   C7        1.0  0.9730500000000002  0.44808999999999993  0.42246999999999996  1.0000
  C   C8        1.0  0.07258999999999999  0.39775  0.5917499999999999  1.0000
  C   C9        1.0  0.59027  0.32498  0.61389  1.0000
  C   C10       1.0  0.5274499999999999  0.30432  0.72831  1.0000
  C   C11       1.0  0.6666899999999998  0.08107  0.68219  1.0000
  C   C12       1.0  0.82595  0.12024  0.01016  1.0000
  C   C13       1.0  0.7460899999999999  0.12949999999999998  0.93172  1.0000
  C   C14       1.0  0.6228600000000002  0.06595000000000002  0.9643499999999999  1.0000
  C   C15       1.0  0.5381300000000001  0.07279000000000005  0.8867499999999998  1.0000
  C   C16       1.0  0.41674  0.00979000000000007  0.9181099999999999  1.0000
  C   C17       1.0  0.32800999999999986  0.01959000000000003  0.8398999999999999  1.0000
  C   C18       1.0  0.21026000000000003  0.95642  0.87489  1.0000
  C   C19       1.0  0.09899000000000002  0.6931499999999999  0.7892199999999999  1.0000
  C   C20       1.0  0.04883000000000006  0.5928500000000001  0.8978099999999998  1.0000
  C   C21       1.0  0.9397299999999998  0.6556  0.98974  1.0000
  C   C22       1.0  0.10832000000000004  0.43653000000000003  0.9086799999999999  1.0000
  C   C23       1.0  0.9035399999999999  0.82088  0.47095  1.0000
  C   C24       1.0  0.9540399999999999  0.6554699999999999  0.48564  1.0000
  C   C25       1.0  0.02694999999999995  0.55191  0.57753  1.0000
  C   C26       1.0  0.9274100000000002  0.6022499999999998  0.40825  1.0000
  C   C27       1.0  0.40973999999999994  0.6750200000000001  0.38611  1.0000
  C   C28       1.0  0.47254999999999997  0.69569  0.27169  1.0000
  C   C29       1.0  0.33331  0.91893  0.31781  1.0000
  C   C30       1.0  0.17406000000000002  0.87976  0.98984  1.0000
  C   C31       1.0  0.25390999999999997  0.8705  0.06828  1.0000
  C   C32       1.0  0.37715  0.9340499999999999  0.03565  1.0000
  C   C33       1.0  0.46186999999999995  0.92721  0.11324999999999999  1.0000
  C   C34       1.0  0.58326  0.99022  0.08189  1.0000
  C   C35       1.0  0.6719899999999999  0.9804099999999999  0.1601  1.0000
  C   C36       1.0  0.7897399999999998  0.04358  0.1251  1.0000
  N   N1        1.0  0.57664  0.14893000000000003  0.7706999999999999  1.0000
  N   N2        1.0  0.6759  0.18568000000000004  0.5860699999999999  1.0000
  N   N3        1.0  0.4233700000000001  0.8510699999999999  0.22929999999999995  1.0000
  N   N4        1.0  0.32409999999999994  0.81432  0.41393  1.0000
  O   O1        1.0  0.77453  0.36637  0.28469  1.0000
  O   O2        1.0  0.98694  0.16514  0.22774999999999995  1.0000
  O   O3        1.0  0.06417999999999999  0.13265000000000002  0.46043999999999996  1.0000
  O   O4        1.0  0.17274999999999996  0.08635999999999999  0.60844  1.0000
  O   O5        1.0  0.22546999999999998  0.63364  0.71531  1.0000
  O   O6        1.0  0.013060000000000026  0.83487  0.7722399999999999  1.0000
  O   O7        1.0  0.9358199999999999  0.8673600000000001  0.53955  1.0000
  O   O8        1.0  0.82725  0.91364  0.39156  1.0000
