data_image0
_chemical_formula_structural       Zn2H36C44N8O8
_chemical_formula_sum              "Zn2 H36 C44 N8 O8"
_cell_length_a       11.72401
_cell_length_b       12.04485
_cell_length_c       13.6103
_cell_angle_alpha    111.66264
_cell_angle_beta     89.76421999999998
_cell_angle_gamma    119.44264000000001

_space_group_name_H-M_alt    "P 1"
_space_group_IT_number       1

loop_
  _space_group_symop_operation_xyz
  'x, y, z'

loop_
  _atom_site_type_symbol
  _atom_site_label
  _atom_site_symmetry_multiplicity
  _atom_site_fract_x
  _atom_site_fract_y
  _atom_site_fract_z
  _atom_site_occupancy
  Zn  Zn1       1.0  0.02453000000000005  0.00027000000000011325  0.7480200000000001  1.0000
  Zn  Zn2       1.0  0.97547  0.9997300000000001  0.25198  1.0000
  H   H1        1.0  0.9662799999999999  0.16522000000000014  0.9674900000000002  1.0000
  H   H2        1.0  0.7973599999999998  0.7308700000000001  0.7814100000000002  1.0000
  H   H3        1.0  0.6685600000000002  0.7675700000000001  0.95298  1.0000
  H   H4        1.0  0.75687  0.010300000000000009  0.13937  1.0000
  H   H5        1.0  0.8383299999999999  0.1655  0.11807  1.0000
  H   H6        1.0  0.70933  0.20848  0.00421  1.0000
  H   H7        1.0  0.51237  0.8403  0.06793  1.0000
  H   H8        1.0  0.46168000000000003  0.28466000000000014  0.8459400000000002  1.0000
  H   H9        1.0  0.30287000000000003  0.5182600000000002  0.04780000000000001  1.0000
  H   H10       1.0  0.80081  0.8337400000000003  0.52909  1.0000
  H   H11       1.0  0.06471  0.26841000000000004  0.71659  1.0000
  H   H12       1.0  0.89802  0.23082999999999998  0.54629  1.0000
  H   H13       1.0  0.7449899999999998  0.9871499999999999  0.35842  1.0000
  H   H14       1.0  0.67036  0.83245  0.38041  1.0000
  H   H15       1.0  0.49759  0.79071  0.49545  1.0000
  H   H16       1.0  0.6732999999999999  0.15768000000000004  0.43020000000000014  1.0000
  H   H17       1.0  0.17588000000000006  0.7161400000000001  0.6549200000000001  1.0000
  H   H18       1.0  0.78534  0.48049000000000003  0.44889  1.0000
  H   H19       1.0  0.033720000000000104  0.8347800000000001  0.03251  1.0000
  H   H20       1.0  0.20264000000000001  0.2691300000000001  0.21859000000000006  1.0000
  H   H21       1.0  0.3314399999999999  0.23243  0.04702  1.0000
  H   H22       1.0  0.24313000000000026  0.9897000000000006  0.8606400000000002  1.0000
  H   H23       1.0  0.16166999999999995  0.83451  0.88193  1.0000
  H   H24       1.0  0.2906800000000001  0.7915200000000002  0.9958000000000001  1.0000
  H   H25       1.0  0.48763999999999996  0.15969999999999995  0.93208  1.0000
  H   H26       1.0  0.53832  0.7153500000000003  0.15406  1.0000
  H   H27       1.0  0.69713  0.4817400000000001  0.9522100000000001  1.0000
  H   H28       1.0  0.19918999999999998  0.16626000000000005  0.4709200000000001  1.0000
  H   H29       1.0  0.9352899999999997  0.7315900000000001  0.28342000000000006  1.0000
  H   H30       1.0  0.10198000000000006  0.76917  0.45371  1.0000
  H   H31       1.0  0.25501000000000007  0.012850000000000084  0.64158  1.0000
  H   H32       1.0  0.32964  0.16755  0.6196  1.0000
  H   H33       1.0  0.5024099999999999  0.20930000000000004  0.50455  1.0000
  H   H34       1.0  0.32669999999999993  0.84232  0.56981  1.0000
  H   H35       1.0  0.82412  0.28386  0.34508  1.0000
  H   H36       1.0  0.21466  0.5195200000000002  0.5511100000000001  1.0000
  C   C1        1.0  0.9035499999999997  0.05242999999999995  0.94077  1.0000
  C   C2        1.0  0.8138700000000001  0.8258300000000001  0.8468800000000002  1.0000
  C   C3        1.0  0.7490900000000001  0.8425600000000002  0.9302600000000002  1.0000
  C   C4        1.0  0.7609899999999998  0.053170000000000016  0.08009  1.0000
  C   C5        1.0  0.6260399999999999  0.028010000000000004  0.0414  1.0000
  C   C6        1.0  0.6176699999999999  0.11710000000000001  0.0025700000000000007  1.0000
  C   C7        1.0  0.5070899999999999  0.91066  0.03847  1.0000
  C   C8        1.0  0.22836999999999996  0.2715600000000001  0.88187  1.0000
  C   C9        1.0  0.36927000000000004  0.3903000000000001  0.9412000000000001  1.0000
  C   C10       1.0  0.4801299999999999  0.37951  0.91377  1.0000
  C   C11       1.0  0.39006999999999986  0.51188  0.02782  1.0000
  C   C12       1.0  0.8503999999999999  0.9465  0.55617  1.0000
  C   C13       1.0  0.9864199999999999  0.17335000000000003  0.65097  1.0000
  C   C14       1.0  0.9043399999999999  0.15607  0.56816  1.0000
  C   C15       1.0  0.7059800000000002  0.9447400000000002  0.4180400000000001  1.0000
  C   C16       1.0  0.59673  0.9705100000000002  0.4574  1.0000
  C   C17       1.0  0.49874  0.8824100000000001  0.49728  1.0000
  C   C18       1.0  0.59705  0.08829  0.46051  1.0000
  C   C19       1.0  0.9540499999999998  0.7264300000000001  0.6144700000000001  1.0000
  C   C20       1.0  0.97817  0.60908  0.55735  1.0000
  C   C21       1.0  0.09976000000000011  0.6211400000000002  0.5868600000000002  1.0000
  C   C22       1.0  0.8785199999999997  0.48705000000000004  0.47017  1.0000
  C   C23       1.0  0.09644999999999991  0.94758  0.05924  1.0000
  C   C24       1.0  0.18612999999999996  0.17418  0.15312  1.0000
  C   C25       1.0  0.25091  0.15744  0.06974  1.0000
  C   C26       1.0  0.23901000000000014  0.9468400000000005  0.9199100000000001  1.0000
  C   C27       1.0  0.37395999999999996  0.9720000000000002  0.9586100000000001  1.0000
  C   C28       1.0  0.38232999999999995  0.8829000000000001  0.9974300000000003  1.0000
  C   C29       1.0  0.49290999999999996  0.08934000000000004  0.9615300000000001  1.0000
  C   C30       1.0  0.7716400000000001  0.7284400000000001  0.11813000000000003  1.0000
  C   C31       1.0  0.63074  0.6097  0.0588  1.0000
  C   C32       1.0  0.5198700000000002  0.6204900000000001  0.08624  1.0000
  C   C33       1.0  0.6099299999999999  0.48812000000000005  0.97218  1.0000
  C   C34       1.0  0.14960000000000004  0.05350000000000003  0.4438300000000001  1.0000
  C   C35       1.0  0.0135800000000001  0.8266500000000002  0.34903000000000006  1.0000
  C   C36       1.0  0.0956700000000001  0.8439300000000002  0.43184  1.0000
  C   C37       1.0  0.29401999999999995  0.055259999999999976  0.58196  1.0000
  C   C38       1.0  0.40327  0.029490000000000006  0.5426  1.0000
  C   C39       1.0  0.50126  0.11759000000000001  0.50272  1.0000
  C   C40       1.0  0.4029499999999999  0.9117200000000001  0.53949  1.0000
  C   C41       1.0  0.04595000000000003  0.2735800000000001  0.38553000000000004  1.0000
  C   C42       1.0  0.021830000000000068  0.3909300000000001  0.44266  1.0000
  C   C43       1.0  0.9002399999999999  0.37887  0.41314  1.0000
  C   C44       1.0  0.12148999999999999  0.51295  0.52984  1.0000
  N   N1        1.0  0.91016  0.95762  0.85442  1.0000
  N   N2        1.0  0.80701  0.98614  0.9889  1.0000
  N   N3        1.0  0.9518600000000002  0.041770000000000064  0.64251  1.0000
  N   N4        1.0  0.8192999999999998  0.012400000000000022  0.50895  1.0000
  N   N5        1.0  0.08985  0.04238  0.14558  1.0000
  N   N6        1.0  0.19298999999999997  0.013870000000000006  0.011110000000000002  1.0000
  N   N7        1.0  0.04814000000000002  0.95823  0.35749000000000003  1.0000
  N   N8        1.0  0.18070999999999998  0.9876000000000001  0.49105  1.0000
  O   O1        1.0  0.21691  0.15414000000000014  0.8159600000000002  1.0000
  O   O2        1.0  0.13206000000000004  0.28894000000000003  0.89861  1.0000
  O   O3        1.0  0.05916000000000007  0.8446700000000003  0.6811800000000002  1.0000
  O   O4        1.0  0.8398999999999999  0.7069200000000001  0.5951600000000001  1.0000
  O   O5        1.0  0.78309  0.84587  0.18404000000000004  1.0000
  O   O6        1.0  0.8679399999999998  0.7110700000000001  0.10139  1.0000
  O   O7        1.0  0.9408499999999999  0.15533000000000008  0.31882000000000005  1.0000
  O   O8        1.0  0.16011  0.29308  0.40485  1.0000
