data_image0
_chemical_formula_structural       Zn3H12C20N6O8
_chemical_formula_sum              "Zn3 H12 C20 N6 O8"
_cell_length_a       9.13947
_cell_length_b       10.98632
_cell_length_c       11.52153
_cell_angle_alpha    117.87222
_cell_angle_beta     100.47449
_cell_angle_gamma    98.55580999999998

_symmetry_space_group_name_H-M    'P 1'
_symmetry_Int_Tables_number       1

loop_
  _symmetry_equiv_pos_as_xyz
  'x,y,z'

loop_
  _atom_site_type_symbol
  _atom_site_label
  _atom_site_symmetry_multiplicity
  _atom_site_fract_x
  _atom_site_fract_y
  _atom_site_fract_z
  _atom_site_occupancy
  Zn  Zn1       1.0  0.30813  0.3772300000000001  0.37858  1.0000
  Zn  Zn2       1.0  0.6918700000000002  0.62277  0.62142  1.0000
  Zn  Zn3       1.0  0.0  0.5  0.5  1.0000
  H   H1        1.0  0.8841500000000001  0.58909  0.19367  1.0000
  H   H2        1.0  0.23457  0.9964  0.41902  1.0000
  H   H3        1.0  0.86244  0.18438  0.51688  1.0000
  H   H4        1.0  0.20274  0.3728  0.00439  1.0000
  H   H5        1.0  0.22194000000000003  0.7629500000000001  0.80361  1.0000
  H   H6        1.0  0.54623  0.8185  0.85942  1.0000
  H   H7        1.0  0.11584  0.41091  0.80633  1.0000
  H   H8        1.0  0.76543  0.0036100000000000077  0.58098  1.0000
  H   H9        1.0  0.13755999999999993  0.81562  0.48312  1.0000
  H   H10       1.0  0.79726  0.6272  0.99561  1.0000
  H   H11       1.0  0.77806  0.23705000000000004  0.19639  1.0000
  H   H12       1.0  0.45376  0.18151  0.14058  1.0000
  C   C1        1.0  0.93343  0.55043  0.10807  1.0000
  C   C2        1.0  0.13226000000000002  0.9966700000000001  0.45462  1.0000
  C   C3        1.0  0.11034  0.20811  0.42699  1.0000
  C   C4        1.0  0.92075  0.10266000000000002  0.50923  1.0000
  C   C5        1.0  0.11404000000000002  0.42797  0.00119  1.0000
  C   C6        1.0  0.29441  0.71101  0.74231  1.0000
  C   C7        1.0  0.05329999999999999  0.09967  0.46351999999999993  1.0000
  C   C8        1.0  0.09755  0.45693000000000006  0.22894999999999996  1.0000
  C   C9        1.0  0.04753000000000001  0.47811000000000003  0.10988999999999999  1.0000
  C   C10       1.0  0.45376  0.73825  0.76945  1.0000
  C   C11       1.0  0.06656000000000001  0.4495700000000001  0.89192  1.0000
  C   C12       1.0  0.86773  0.0033300000000000096  0.54538  1.0000
  C   C13       1.0  0.88966  0.7918900000000001  0.57301  1.0000
  C   C14       1.0  0.07925000000000003  0.8973400000000001  0.49077  1.0000
  C   C15       1.0  0.8859600000000001  0.57203  0.9988  1.0000
  C   C16       1.0  0.70559  0.2889900000000001  0.25769  1.0000
  C   C17       1.0  0.9467  0.90033  0.53648  1.0000
  C   C18       1.0  0.90245  0.54307  0.77105  1.0000
  C   C19       1.0  0.95247  0.52189  0.89011  1.0000
  C   C20       1.0  0.54623  0.26175000000000004  0.23053999999999997  1.0000
  N   N1        1.0  0.34742  0.55684  0.56281  1.0000
  N   N2        1.0  0.23231000000000002  0.59808  0.61371  1.0000
  N   N3        1.0  0.4834800000000001  0.64061  0.65621  1.0000
  N   N4        1.0  0.65257  0.44316  0.43719  1.0000
  N   N5        1.0  0.76769  0.40192  0.38628  1.0000
  N   N6        1.0  0.51652  0.35939000000000004  0.34378  1.0000
  O   O1        1.0  0.19985  0.38605  0.22217999999999996  1.0000
  O   O2        1.0  0.24402000000000001  0.21468000000000004  0.40474  1.0000
  O   O3        1.0  0.03783  0.50976  0.32599  1.0000
  O   O4        1.0  0.02669999999999999  0.28748  0.41888999999999993  1.0000
  O   O5        1.0  0.8001500000000001  0.61395  0.77781  1.0000
  O   O6        1.0  0.75598  0.7853200000000001  0.59525  1.0000
  O   O7        1.0  0.9621700000000001  0.49024  0.67401  1.0000
  O   O8        1.0  0.9733  0.71252  0.58111  1.0000
