data_image0
_chemical_formula_structural       U2H4C20O16
_chemical_formula_sum              "U2 H4 C20 O16"
_cell_length_a       9.43722
_cell_length_b       9.365240000000002
_cell_length_c       12.51164
_cell_angle_alpha    95.33699999999999
_cell_angle_beta     95.54227
_cell_angle_gamma    113.52134

_symmetry_space_group_name_H-M    'P 1'
_symmetry_Int_Tables_number       1

loop_
  _symmetry_equiv_pos_as_xyz
  'x,y,z'

loop_
  _atom_site_type_symbol
  _atom_site_label
  _atom_site_symmetry_multiplicity
  _atom_site_fract_x
  _atom_site_fract_y
  _atom_site_fract_z
  _atom_site_occupancy
  U   U1        1.0  0.52172  0.47745999999999994  0.74806  1.0000
  U   U2        1.0  0.47829000000000005  0.52255  0.25195  1.0000
  H   H1        1.0  0.54176  0.0017499999999999957  0.8074299999999999  1.0000
  H   H2        1.0  0.0036200000000000125  0.45855  0.69282  1.0000
  H   H3        1.0  0.45824  0.99826  0.19257  1.0000
  H   H4        1.0  0.99637  0.5414599999999999  0.30718  1.0000
  C   C1        1.0  0.52779  0.73751  0.87781  1.0000
  C   C2        1.0  0.5113500000000001  0.13231  0.94923  1.0000
  C   C3        1.0  0.51301  0.8716899999999997  0.94159  1.0000
  C   C4        1.0  0.52392  0.00315999999999999  0.89202  1.0000
  C   C5        1.0  0.51553  0.26396  0.88737  1.0000
  C   C6        1.0  0.26121  0.47040999999999994  0.62086  1.0000
  C   C7        1.0  0.8703200000000001  0.48958  0.55245  1.0000
  C   C8        1.0  0.12855999999999998  0.4868799999999999  0.55707  1.0000
  C   C9        1.0  0.9994000000000001  0.47617999999999994  0.60811  1.0000
  C   C10       1.0  0.74032  0.48428  0.61514  1.0000
  C   C11       1.0  0.4722  0.26249  0.12218999999999998  1.0000
  C   C12       1.0  0.48865  0.8677  0.05076  1.0000
  C   C13       1.0  0.48699000000000003  0.12831  0.05840999999999999  1.0000
  C   C14       1.0  0.47608  0.9968399999999998  0.10798  1.0000
  C   C15       1.0  0.48447000000000007  0.73605  0.11263  1.0000
  C   C16       1.0  0.73879  0.52959  0.3791399999999999  1.0000
  C   C17       1.0  0.12966999999999995  0.5104199999999998  0.44755  1.0000
  C   C18       1.0  0.8714400000000001  0.51312  0.44293  1.0000
  C   C19       1.0  0.0005999999999999757  0.52383  0.39189  1.0000
  C   C20       1.0  0.25967  0.51573  0.38484999999999997  1.0000
  O   O1        1.0  0.55019  0.74275  0.77768  1.0000
  O   O2        1.0  0.6446699999999997  0.3789299999999999  0.87963  1.0000
  O   O3        1.0  0.51674  0.61546  0.92077  1.0000
  O   O4        1.0  0.3876  0.2494  0.83179  1.0000
  O   O5        1.0  0.25505  0.44624  0.72005  1.0000
  O   O6        1.0  0.62394  0.35386  0.61853  1.0000
  O   O7        1.0  0.3818099999999999  0.4803799999999999  0.57726  1.0000
  O   O8        1.0  0.7545200000000001  0.6109600000000001  0.67339  1.0000
  O   O9        1.0  0.4497900000000001  0.25724  0.22231  1.0000
  O   O10       1.0  0.35533  0.62107  0.12038  1.0000
  O   O11       1.0  0.48324  0.38454  0.07923  1.0000
  O   O12       1.0  0.6123999999999999  0.7506099999999998  0.16821  1.0000
  O   O13       1.0  0.7449500000000001  0.55377  0.27995  1.0000
  O   O14       1.0  0.37605  0.64614  0.38147  1.0000
  O   O15       1.0  0.6182  0.5196299999999999  0.42274999999999996  1.0000
  O   O16       1.0  0.24546000000000004  0.38904  0.3266  1.0000
