data_image0
_chemical_formula_structural       Co4H14C30N2O20
_chemical_formula_sum              "Co4 H14 C30 N2 O20"
_cell_length_a       7.57907
_cell_length_b       10.84484
_cell_length_c       12.45003
_cell_angle_alpha    106.85022999999998
_cell_angle_beta     97.4791
_cell_angle_gamma    101.44328

_symmetry_space_group_name_H-M    'P 1'
_symmetry_Int_Tables_number       1

loop_
  _symmetry_equiv_pos_as_xyz
  'x,y,z'

loop_
  _atom_site_type_symbol
  _atom_site_label
  _atom_site_symmetry_multiplicity
  _atom_site_fract_x
  _atom_site_fract_y
  _atom_site_fract_z
  _atom_site_occupancy
  Co  Co1       1.0  0.85532  0.51828  0.4082  1.0000
  Co  Co2       1.0  0.49587000000000003  0.3594300000000001  0.49801999999999996  1.0000
  Co  Co3       1.0  0.14553999999999995  0.47867  0.59166  1.0000
  Co  Co4       1.0  0.50187  0.6388700000000003  0.49778  1.0000
  H   H1        1.0  0.77288  0.56099  0.61051  1.0000
  H   H2        1.0  0.6766299999999997  0.003820000000000016  0.45676  1.0000
  H   H3        1.0  0.023470000000000005  0.80078  0.2613  1.0000
  H   H4        1.0  0.06947999999999999  0.21706000000000003  0.31093  1.0000
  H   H5        1.0  0.44208  0.7698700000000002  0.94063  1.0000
  H   H6        1.0  0.8547399999999999  0.7020599999999999  0.8769399999999999  1.0000
  H   H7        1.0  0.8751  0.8721600000000003  0.06466  1.0000
  H   H8        1.0  0.22420999999999994  0.43701  0.38695  1.0000
  H   H9        1.0  0.32275000000000004  0.9929200000000001  0.5412  1.0000
  H   H10       1.0  0.9798  0.19840999999999998  0.73828  1.0000
  H   H11       1.0  0.9297999999999997  0.7815100000000001  0.6882299999999999  1.0000
  H   H12       1.0  0.5574299999999998  0.22791000000000003  0.05841999999999999  1.0000
  H   H13       1.0  0.14481  0.29490999999999995  0.12295999999999997  1.0000
  H   H14       1.0  0.12477999999999993  0.12662999999999994  0.9343099999999999  1.0000
  C   C1        1.0  0.8709699999999999  0.12485  0.3927599999999999  1.0000
  C   C2        1.0  0.78669  0.006369999999999973  0.40896999999999994  1.0000
  C   C3        1.0  0.8447499999999999  0.89104  0.3631899999999999  1.0000
  C   C4        1.0  0.9812499999999997  0.89176  0.29713  1.0000
  C   C5        1.0  0.05654  0.008960000000000004  0.27713  1.0000
  C   C6        1.0  0.00754000000000001  0.12659  0.32697  1.0000
  C   C7        1.0  0.80428  0.24656  0.43486  1.0000
  C   C8        1.0  0.7623999999999996  0.76533  0.38337999999999994  1.0000
  C   C9        1.0  0.17056  0.9196  0.10852999999999999  1.0000
  C   C10       1.0  0.32975  0.88918  0.07096  1.0000
  C   C11       1.0  0.3178699999999999  0.79147  0.9674099999999998  1.0000
  C   C12       1.0  0.14685999999999996  0.7240300000000001  0.8965  1.0000
  C   C13       1.0  0.9879399999999999  0.75407  0.93264  1.0000
  C   C14       1.0  0.9988900000000001  0.84982  0.0374  1.0000
  C   C15       1.0  0.13903000000000001  0.6270500000000001  0.78284  1.0000
  C   C16       1.0  0.12948  0.87314  0.60674  1.0000
  C   C17       1.0  0.21340999999999996  0.9910900000000001  0.58957  1.0000
  C   C18       1.0  0.15582999999999994  0.10672999999999996  0.63495  1.0000
  C   C19       1.0  0.020129999999999995  0.10681  0.70166  1.0000
  C   C20       1.0  0.9440099999999998  0.9898300000000001  0.7218  1.0000
  C   C21       1.0  0.9924599999999997  0.87184  0.6721999999999999  1.0000
  C   C22       1.0  0.19693  0.75167  0.56528  1.0000
  C   C23       1.0  0.23860999999999996  0.23194999999999996  0.6140699999999999  1.0000
  C   C24       1.0  0.8292899999999997  0.07908000000000008  0.89035  1.0000
  C   C25       1.0  0.6699899999999999  0.10923999999999999  0.92801  1.0000
  C   C26       1.0  0.6818099999999998  0.20655  0.03173  1.0000
  C   C27       1.0  0.85274  0.27374000000000004  0.10269  1.0000
  C   C28       1.0  0.011790000000000007  0.24372000000000002  0.06674  1.0000
  C   C29       1.0  0.0009100000000000201  0.14863  0.96163  1.0000
  C   C30       1.0  0.8603099999999998  0.37044  0.21623999999999996  1.0000
  N   N1        1.0  0.51302  0.9595100000000001  0.13863  1.0000
  N   N2        1.0  0.48680999999999985  0.0397499999999999  0.8599799999999997  1.0000
  O   O1        1.0  0.91722  0.36163  0.4588099999999999  1.0000
  O   O2        1.0  0.63553  0.23033000000000003  0.44014  1.0000
  O   O3        1.0  0.61865  0.7621200000000001  0.42768  1.0000
  O   O4        1.0  0.8390499999999999  0.6697500000000001  0.35480999999999996  1.0000
  O   O5        1.0  0.54145  0.07968  0.1922  1.0000
  O   O6        1.0  0.6316  0.89426  0.13584  1.0000
  O   O7        1.0  0.2888499999999999  0.61772  0.7478599999999997  1.0000
  O   O8        1.0  0.98413  0.55499  0.71857  1.0000
  O   O9        1.0  0.1923  0.01682000000000001  0.21166  1.0000
  O   O10       1.0  0.6778299999999999  0.53792  0.54099  1.0000
  O   O11       1.0  0.08468000000000003  0.6364300000000002  0.54143  1.0000
  O   O12       1.0  0.3657500000000001  0.7688300000000001  0.55974  1.0000
  O   O13       1.0  0.37465  0.23175  0.56281  1.0000
  O   O14       1.0  0.17027999999999993  0.33101  0.64881  1.0000
  O   O15       1.0  0.45853999999999984  0.92018  0.8045999999999998  1.0000
  O   O16       1.0  0.3683599999999999  0.10523000000000003  0.8639  1.0000
  O   O17       1.0  0.71043  0.38263  0.25011  1.0000
  O   O18       1.0  0.01562000000000002  0.4396900000000001  0.28177  1.0000
  O   O19       1.0  0.80776  0.9823300000000001  0.78699  1.0000
  O   O20       1.0  0.3213899999999999  0.46101  0.45570999999999995  1.0000
