data_image0
_chemical_formula_structural       La2H24C18O12
_chemical_formula_sum              "La2 H24 C18 O12"
_cell_length_a       8.6107
_cell_length_b       9.95898
_cell_length_c       9.96621
_cell_angle_alpha    71.55077999999999
_cell_angle_beta     82.22161
_cell_angle_gamma    63.46129

_space_group_name_H-M_alt    "P 1"
_space_group_IT_number       1

loop_
  _space_group_symop_operation_xyz
  'x, y, z'

loop_
  _atom_site_type_symbol
  _atom_site_label
  _atom_site_symmetry_multiplicity
  _atom_site_fract_x
  _atom_site_fract_y
  _atom_site_fract_z
  _atom_site_occupancy
  La  La1       1.0  0.25787  0.98582  0.00215  1.0000
  La  La2       1.0  0.7421200000000001  0.014179999999999932  0.9978500000000001  1.0000
  H   H1        1.0  0.26104  0.18154000000000003  0.38964  1.0000
  H   H2        1.0  0.45763  0.012530000000000013  0.3905  1.0000
  H   H3        1.0  0.60562  0.17646000000000003  0.25069  1.0000
  H   H4        1.0  0.5282499999999999  0.21507000000000004  0.41302  1.0000
  H   H5        1.0  0.27144999999999997  0.4568900000000001  0.28916  1.0000
  H   H6        1.0  0.34834  0.41954  0.12538000000000002  1.0000
  H   H7        1.0  0.62055  0.43321  0.15159  1.0000
  H   H8        1.0  0.5575000000000001  0.46658  0.32018  1.0000
  H   H9        1.0  0.8249899999999999  0.18465999999999994  0.6226200000000001  1.0000
  H   H10       1.0  0.98461  0.24132000000000003  0.51983  1.0000
  H   H11       1.0  0.0413  0.89856  0.65421  1.0000
  H   H12       1.0  0.18414000000000003  0.9640399999999999  0.5376800000000002  1.0000
  H   H13       1.0  0.73896  0.8184599999999999  0.61036  1.0000
  H   H14       1.0  0.5423599999999998  0.9874700000000002  0.6095  1.0000
  H   H15       1.0  0.3943700000000001  0.8235399999999999  0.74931  1.0000
  H   H16       1.0  0.47175000000000017  0.78493  0.58698  1.0000
  H   H17       1.0  0.72854  0.54311  0.71084  1.0000
  H   H18       1.0  0.65165  0.58046  0.8746200000000001  1.0000
  H   H19       1.0  0.3794400000000001  0.56679  0.84841  1.0000
  H   H20       1.0  0.44248999999999994  0.53342  0.67983  1.0000
  H   H21       1.0  0.17500000000000002  0.8153399999999998  0.37738  1.0000
  H   H22       1.0  0.015379999999999934  0.75868  0.48017  1.0000
  H   H23       1.0  0.9587  0.10144  0.34579  1.0000
  H   H24       1.0  0.81586  0.03596000000000001  0.46232  1.0000
  C   C1        1.0  0.32968  0.12249  0.19601  1.0000
  C   C2        1.0  0.37940000000000007  0.13491000000000003  0.32937  1.0000
  C   C3        1.0  0.48624  0.22831  0.30825  1.0000
  C   C4        1.0  0.38989000000000007  0.40288999999999997  0.23118  1.0000
  C   C5        1.0  0.50847  0.48492  0.21674000000000002  1.0000
  C   C6        1.0  0.42223000000000005  0.65856  0.14466  1.0000
  C   C7        1.0  0.05142000000000002  0.12082  0.73766  1.0000
  C   C8        1.0  0.96477  0.14822999999999997  0.6042800000000002  1.0000
  C   C9        1.0  0.04680000000000002  0.9935400000000001  0.5631  1.0000
  C   C10       1.0  0.6703100000000001  0.87751  0.804  1.0000
  C   C11       1.0  0.62059  0.8650900000000001  0.67063  1.0000
  C   C12       1.0  0.51375  0.77169  0.69175  1.0000
  C   C13       1.0  0.6100999999999999  0.59711  0.76882  1.0000
  C   C14       1.0  0.4915199999999999  0.51508  0.78326  1.0000
  C   C15       1.0  0.5777700000000001  0.34144  0.8553400000000001  1.0000
  C   C16       1.0  0.9485799999999998  0.8791799999999999  0.26234  1.0000
  C   C17       1.0  0.035229999999999914  0.8517700000000001  0.39572  1.0000
  C   C18       1.0  0.9531900000000001  0.006459999999999991  0.4369  1.0000
  O   O1        1.0  0.17844  0.1368  0.18074  1.0000
  O   O2        1.0  0.44481000000000004  0.08717999999999998  0.09916  1.0000
  O   O3        1.0  0.43029999999999996  0.75489  0.20062  1.0000
  O   O4        1.0  0.34180000000000005  0.70853  0.02633  1.0000
  O   O5        1.0  0.19295999999999996  0.13181999999999996  0.7347900000000002  1.0000
  O   O6        1.0  0.9860299999999997  0.07278000000000005  0.8593799999999999  1.0000
  O   O7        1.0  0.82156  0.8631999999999999  0.81926  1.0000
  O   O8        1.0  0.55519  0.91282  0.90084  1.0000
  O   O9        1.0  0.5697  0.24511000000000002  0.79938  1.0000
  O   O10       1.0  0.6582  0.29146999999999995  0.9736700000000001  1.0000
  O   O11       1.0  0.8070300000000002  0.8681799999999998  0.26521  1.0000
  O   O12       1.0  0.013970000000000057  0.92722  0.14062  1.0000
