data_image0
_chemical_formula_structural       Zn4P4H20C20N4O16
_chemical_formula_sum              "Zn4 P4 H20 C20 N4 O16"
_cell_length_a       7.89353
_cell_length_b       10.49329
_cell_length_c       11.733700000000002
_cell_angle_alpha    116.70271
_cell_angle_beta     93.98927
_cell_angle_gamma    89.97318

_symmetry_space_group_name_H-M    'P 1'
_symmetry_Int_Tables_number       1

loop_
  _symmetry_equiv_pos_as_xyz
  'x,y,z'

loop_
  _atom_site_type_symbol
  _atom_site_label
  _atom_site_symmetry_multiplicity
  _atom_site_fract_x
  _atom_site_fract_y
  _atom_site_fract_z
  _atom_site_occupancy
  Zn  Zn1       1.0  0.07113  0.69092  0.54271  1.0000
  Zn  Zn2       1.0  0.42782  0.14418999999999998  0.45625999999999994  1.0000
  Zn  Zn3       1.0  0.9288700000000002  0.30907  0.45729  1.0000
  Zn  Zn4       1.0  0.57219  0.8558000000000001  0.54374  1.0000
  P   P1        1.0  0.21547  0.90541  0.45925  1.0000
  P   P2        1.0  0.28249  0.44438  0.54168  1.0000
  P   P3        1.0  0.78454  0.09457999999999996  0.54075  1.0000
  P   P4        1.0  0.7175100000000002  0.55561  0.45832  1.0000
  H   H1        1.0  0.9655400000000002  0.8527299999999999  0.36285  1.0000
  H   H2        1.0  0.99627  0.57966  0.73869  1.0000
  H   H3        1.0  0.8423000000000003  0.67045  0.93647  1.0000
  H   H4        1.0  0.7898600000000003  0.06786000000000002  0.91056  1.0000
  H   H5        1.0  0.9506600000000002  0.96259  0.71803  1.0000
  H   H6        1.0  0.53256  0.4935  0.63746  1.0000
  H   H7        1.0  0.50434  0.83944  0.25982  1.0000
  H   H8        1.0  0.65808  0.73292  0.06171  1.0000
  H   H9        1.0  0.7080900000000002  0.15769999999999998  0.09052  1.0000
  H   H10       1.0  0.54825  0.24417999999999998  0.28312  1.0000
  H   H11       1.0  0.03446000000000001  0.14726  0.63715  1.0000
  H   H12       1.0  0.0037300000000000046  0.42034000000000005  0.2613  1.0000
  H   H13       1.0  0.15771  0.32954  0.06352  1.0000
  H   H14       1.0  0.21015000000000006  0.9321300000000001  0.08944  1.0000
  H   H15       1.0  0.049340000000000016  0.03741000000000001  0.28197  1.0000
  H   H16       1.0  0.4674500000000001  0.50649  0.36254  1.0000
  H   H17       1.0  0.49567  0.16055  0.74017  1.0000
  H   H18       1.0  0.3419200000000001  0.2670699999999999  0.93829  1.0000
  H   H19       1.0  0.29192  0.8423000000000002  0.9094700000000001  1.0000
  H   H20       1.0  0.45176000000000005  0.7558099999999999  0.71688  1.0000
  C   C1        1.0  0.94845  0.68744  0.7816  1.0000
  C   C2        1.0  0.86062  0.7396300000000002  0.8915400000000001  1.0000
  C   C3        1.0  0.79841  0.8783900000000001  0.9422000000000001  1.0000
  C   C4        1.0  0.83375  0.95988  0.87843  1.0000
  C   C5        1.0  0.92312  0.9018900000000001  0.7696800000000001  1.0000
  C   C6        1.0  0.55189  0.9046100000000001  0.21735999999999997  1.0000
  C   C7        1.0  0.6395400000000002  0.84722  0.10745  1.0000
  C   C8        1.0  0.70123  0.9359  0.05751  1.0000
  C   C9        1.0  0.6652000000000002  0.08125000000000002  0.12206  1.0000
  C   C10       1.0  0.5760700000000002  0.13175  0.23089  1.0000
  C   C11       1.0  0.051560000000000016  0.31255  0.21839  1.0000
  C   C12       1.0  0.13939  0.26036  0.10846  1.0000
  C   C13       1.0  0.20159  0.12160000000000001  0.0578  1.0000
  C   C14       1.0  0.16625  0.04012000000000001  0.12156  1.0000
  C   C15       1.0  0.07689000000000003  0.09810000000000003  0.23032000000000002  1.0000
  C   C16       1.0  0.44812  0.09538000000000008  0.78263  1.0000
  C   C17       1.0  0.36047  0.1527699999999999  0.89255  1.0000
  C   C18       1.0  0.2987800000000001  0.06409999999999998  0.94249  1.0000
  C   C19       1.0  0.33481  0.9187400000000001  0.8779400000000002  1.0000
  C   C20       1.0  0.4239300000000001  0.86824  0.7691099999999998  1.0000
  N   N1        1.0  0.97899  0.76722  0.72107  1.0000
  N   N2        1.0  0.5208300000000002  0.04498  0.27873  1.0000
  N   N3        1.0  0.02101  0.23276999999999998  0.27893  1.0000
  N   N4        1.0  0.47918  0.9550199999999999  0.72127  1.0000
  O   O1        1.0  0.1422  0.8788099999999999  0.56482  1.0000
  O   O2        1.0  0.8826300000000002  0.5871700000000001  0.41119000000000006  1.0000
  O   O3        1.0  0.23343000000000003  0.06861000000000003  0.50577  1.0000
  O   O4        1.0  0.08137000000000003  0.8376400000000002  0.33369  1.0000
  O   O5        1.0  0.35883  0.31283  0.43678  1.0000
  O   O6        1.0  0.6168  0.16937000000000005  0.58689  1.0000
  O   O7        1.0  0.25964  0.5595  0.49408  1.0000
  O   O8        1.0  0.41731  0.50583  0.66706  1.0000
  O   O9        1.0  0.85781  0.12118000000000001  0.43517000000000006  1.0000
  O   O10       1.0  0.11737000000000003  0.41282  0.58881  1.0000
  O   O11       1.0  0.7665800000000003  0.9313800000000001  0.49423  1.0000
  O   O12       1.0  0.91863  0.16235  0.6663  1.0000
  O   O13       1.0  0.64117  0.6871600000000001  0.56322  1.0000
  O   O14       1.0  0.3832100000000001  0.83062  0.41311  1.0000
  O   O15       1.0  0.7403700000000002  0.44049  0.50591  1.0000
  O   O16       1.0  0.5827  0.49416000000000004  0.33293  1.0000
