data_image0
_chemical_formula_structural       Mn6H6C24O18
_chemical_formula_sum              "Mn6 H6 C24 O18"
_cell_length_a       6.57979
_cell_length_b       15.50284
_cell_length_c       14.9357
_cell_angle_alpha    117.86511999999999
_cell_angle_beta     96.59484
_cell_angle_gamma    98.46636

_symmetry_space_group_name_H-M    'P 1'
_symmetry_Int_Tables_number       1

loop_
  _symmetry_equiv_pos_as_xyz
  'x,y,z'

loop_
  _atom_site_type_symbol
  _atom_site_label
  _atom_site_symmetry_multiplicity
  _atom_site_fract_x
  _atom_site_fract_y
  _atom_site_fract_z
  _atom_site_occupancy
  Mn  Mn1       1.0  0.5498500000000001  0.4167400000000001  0.73385  1.0000
  Mn  Mn2       1.0  0.78508  0.2566  0.67538  1.0000
  Mn  Mn3       1.0  0.12521  0.3168  0.58213  1.0000
  Mn  Mn4       1.0  0.44198000000000004  0.5928  0.2723999999999999  1.0000
  Mn  Mn5       1.0  0.19986000000000004  0.7358100000000001  0.31724  1.0000
  Mn  Mn6       1.0  0.8839299999999999  0.67857  0.42023999999999995  1.0000
  H   H1        1.0  0.20204  0.55136  0.5824  1.0000
  H   H2        1.0  0.61082  0.4510700000000001  0.98449  1.0000
  H   H3        1.0  0.63974  0.013989999999999985  0.45216999999999996  1.0000
  H   H4        1.0  0.8069299999999999  0.45159  0.42058999999999996  1.0000
  H   H5        1.0  0.37758  0.55642  0.01835  1.0000
  H   H6        1.0  0.35924  0.97627  0.53564  1.0000
  C   C1        1.0  0.76896  0.39932999999999996  0.56373  1.0000
  C   C2        1.0  0.6292099999999999  0.44878  0.5317399999999999  1.0000
  C   C3        1.0  0.4531  0.47661  0.57771  1.0000
  C   C4        1.0  0.33618  0.53028  0.54819  1.0000
  C   C5        1.0  0.18827  0.42342  0.8251899999999999  1.0000
  C   C6        1.0  0.08391000000000004  0.46391  0.91154  1.0000
  C   C7        1.0  0.86095  0.43568  0.90336  1.0000
  C   C8        1.0  0.77894  0.4736  0.99207  1.0000
  C   C9        1.0  0.35915  0.16291000000000003  0.59591  1.0000
  C   C10       1.0  0.16962000000000002  0.08035000000000002  0.54447  1.0000
  C   C11       1.0  0.96254  0.09223  0.52026  1.0000
  C   C12       1.0  0.79814  0.005719999999999965  0.4698899999999999  1.0000
  C   C13       1.0  0.23143  0.59978  0.43902  1.0000
  C   C14       1.0  0.37962  0.55416  0.47137  1.0000
  C   C15       1.0  0.55451  0.52616  0.42432999999999993  1.0000
  C   C16       1.0  0.67338  0.4733500000000001  0.45506  1.0000
  C   C17       1.0  0.80474  0.58563  0.17744  1.0000
  C   C18       1.0  0.9044200000000002  0.54394  0.09107  1.0000
  C   C19       1.0  0.12618  0.57238  0.0986  1.0000
  C   C20       1.0  0.20932  0.5341  0.01051  1.0000
  C   C21       1.0  0.6393100000000002  0.82738  0.40553  1.0000
  C   C22       1.0  0.82854  0.90989  0.4457199999999999  1.0000
  C   C23       1.0  0.0385200000000001  0.89876  0.46732  1.0000
  C   C24       1.0  0.20109000000000007  0.98452  0.51758  1.0000
  O   O1        1.0  0.74826  0.38741999999999993  0.6443899999999999  1.0000
  O   O2        1.0  0.9181599999999999  0.36919  0.51756  1.0000
  O   O3        1.0  0.38588999999999996  0.44992  0.6463799999999997  1.0000
  O   O4        1.0  0.09369  0.34482  0.73654  1.0000
  O   O5        1.0  0.38253000000000004  0.46536  0.83734  1.0000
  O   O6        1.0  0.72599  0.37276999999999993  0.8101999999999999  1.0000
  O   O7        1.0  0.36453  0.24777  0.59795  1.0000
  O   O8        1.0  0.52413  0.14762  0.6355  1.0000
  O   O9        1.0  0.91896  0.18242  0.54684  1.0000
  O   O10       1.0  0.2307200000000001  0.60457  0.35332  1.0000
  O   O11       1.0  0.08997999999999999  0.63211  0.49025  1.0000
  O   O12       1.0  0.6135  0.55083  0.35281  1.0000
  O   O13       1.0  0.90794  0.66282  0.26792  1.0000
  O   O14       1.0  0.60734  0.55104  0.16880999999999996  1.0000
  O   O15       1.0  0.26345  0.6361  0.19273  1.0000
  O   O16       1.0  0.64297  0.74949  0.4159999999999999  1.0000
  O   O17       1.0  0.46661  0.83531  0.36265  1.0000
  O   O18       1.0  0.09074000000000002  0.80932  0.44207  1.0000
