data_image0
_chemical_formula_structural       Mn3H12C21O15
_chemical_formula_sum              "Mn3 H12 C21 O15"
_cell_length_a       9.19805
_cell_length_b       9.19809
_cell_length_c       10.647230000000002
_cell_angle_alpha    89.90722000000001
_cell_angle_beta     90.09249000000001
_cell_angle_gamma    119.96952999999999

_symmetry_space_group_name_H-M    'P 1'
_symmetry_Int_Tables_number       1

loop_
  _symmetry_equiv_pos_as_xyz
  'x,y,z'

loop_
  _atom_site_type_symbol
  _atom_site_label
  _atom_site_symmetry_multiplicity
  _atom_site_fract_x
  _atom_site_fract_y
  _atom_site_fract_z
  _atom_site_occupancy
  Mn  Mn1       1.0  0.9927100000000001  0.9927100000000002  0.4999900000000001  1.0000
  Mn  Mn2       1.0  0.00602  0.00014  0.16598  1.0000
  Mn  Mn3       1.0  0.00013000000000000197  0.006020000000000004  0.83401  1.0000
  H   H1        1.0  0.6328400000000001  0.8910500000000002  0.3831  1.0000
  H   H2        1.0  0.40294  0.91624  0.47390000000000004  1.0000
  H   H3        1.0  0.10949000000000009  0.7408900000000003  0.04848  1.0000
  H   H4        1.0  0.08394000000000003  0.4861400000000001  0.14114  1.0000
  H   H5        1.0  0.25943  0.36849  0.71577  1.0000
  H   H6        1.0  0.51356  0.59734  0.8074  1.0000
  H   H7        1.0  0.8910499999999999  0.6328400000000002  0.6169000000000001  1.0000
  H   H8        1.0  0.91624  0.40294000000000013  0.5261  1.0000
  H   H9        1.0  0.74089  0.10949000000000003  0.95152  1.0000
  H   H10       1.0  0.48613  0.08394000000000004  0.85886  1.0000
  H   H11       1.0  0.3684900000000001  0.2594400000000001  0.28423000000000004  1.0000
  H   H12       1.0  0.59735  0.51356  0.19260000000000005  1.0000
  C   C1        1.0  0.6310700000000001  0.9495900000000003  0.56014  1.0000
  C   C2        1.0  0.4820400000000001  0.9532900000000002  0.55735  1.0000
  C   C3        1.0  0.050460000000000005  0.68112  0.22564000000000003  1.0000
  C   C4        1.0  0.046799999999999974  0.5284  0.22419000000000003  1.0000
  C   C5        1.0  0.31893  0.3690600000000001  0.8928  1.0000
  C   C6        1.0  0.47156000000000003  0.5181100000000002  0.8907100000000001  1.0000
  C   C7        1.0  0.94959  0.6310700000000002  0.4398600000000001  1.0000
  C   C8        1.0  0.95329  0.48204000000000014  0.4426500000000001  1.0000
  C   C9        1.0  0.68112  0.05046  0.7743600000000003  1.0000
  C   C10       1.0  0.5284  0.04679000000000001  0.7758100000000002  1.0000
  C   C11       1.0  0.36906  0.31893  0.10719000000000002  1.0000
  C   C12       1.0  0.51811  0.47156  0.10929  1.0000
  C   C13       1.0  0.26829  6.999999999999995e-05  0.66588  1.0000
  C   C14       1.0  0.7352  0.9999900000000002  0.66749  1.0000
  C   C15       1.0  0.42959  0.00020999999999999976  0.6663200000000002  1.0000
  C   C16       1.0  6.999999999998881e-05  0.2683  0.33412  1.0000
  C   C17       1.0  0.9999900000000002  0.7352  0.33251  1.0000
  C   C18       1.0  0.00020999999999999058  0.42959  0.33368  1.0000
  C   C19       1.0  0.7316  0.7316  0.0  1.0000
  C   C20       1.0  0.2649000000000001  0.26490000000000014  0.0  1.0000
  C   C21       1.0  0.57053  0.57053  0.0  1.0000
  O   O1        1.0  0.22341999999999998  0.03859  0.56287  1.0000
  O   O2        1.0  0.69089  0.89618  0.46095  1.0000
  O   O3        1.0  0.96113  0.18442  0.23160000000000003  1.0000
  O   O4        1.0  0.1031100000000001  0.7936800000000003  0.12579  1.0000
  O   O5        1.0  0.81638  0.7755300000000003  0.8979100000000001  1.0000
  O   O6        1.0  0.20627  0.30958  0.79318  1.0000
  O   O7        1.0  0.03859  0.22343  0.4371300000000001  1.0000
  O   O8        1.0  0.8961800000000001  0.6908900000000002  0.53905  1.0000
  O   O9        1.0  0.18441000000000007  0.96113  0.7684000000000001  1.0000
  O   O10       1.0  0.7936799999999999  0.10311  0.8742100000000002  1.0000
  O   O11       1.0  0.7755300000000002  0.8163800000000002  0.10209000000000001  1.0000
  O   O12       1.0  0.3095800000000001  0.20627000000000006  0.20681000000000005  1.0000
  O   O13       1.0  0.88085  0.99978  0.6680600000000001  1.0000
  O   O14       1.0  0.99978  0.88085  0.33194000000000007  1.0000
  O   O15       1.0  0.11910999999999998  0.11911000000000002  0.0  1.0000
