data_image0
_chemical_formula_structural       Nd4H12C36O24
_chemical_formula_sum              "Nd4 H12 C36 O24"
_cell_length_a       10.51192
_cell_length_b       10.50445
_cell_length_c       14.20707
_cell_angle_alpha    89.97778
_cell_angle_beta     89.95025
_cell_angle_gamma    90.21059000000001

_space_group_name_H-M_alt    "P 1"
_space_group_IT_number       1

loop_
  _space_group_symop_operation_xyz
  'x, y, z'

loop_
  _atom_site_type_symbol
  _atom_site_label
  _atom_site_symmetry_multiplicity
  _atom_site_fract_x
  _atom_site_fract_y
  _atom_site_fract_z
  _atom_site_occupancy
  Nd  Nd1       1.0  0.8777899999999998  0.13006  0.62909  1.0000
  Nd  Nd2       1.0  0.12373  0.8723800000000002  0.12908  1.0000
  Nd  Nd3       1.0  0.86897  0.87543  0.87879  1.0000
  Nd  Nd4       1.0  0.13039  0.12484  0.37888999999999995  1.0000
  H   H1        1.0  0.99833  0.88941  0.50389  1.0000
  H   H2        1.0  0.08408  0.53459  0.36636999999999986  1.0000
  H   H3        1.0  0.9473399999999998  0.5356400000000001  0.6525899999999998  1.0000
  H   H4        1.0  0.0007000000000000001  0.11163000000000001  0.00427  1.0000
  H   H5        1.0  0.91616  0.46658  0.86626  1.0000
  H   H6        1.0  0.05085  0.4656600000000001  0.15265999999999996  1.0000
  H   H7        1.0  0.11072999999999998  0.9982600000000001  0.7513399999999999  1.0000
  H   H8        1.0  0.4667899999999999  0.08540000000000002  0.6151999999999999  1.0000
  H   H9        1.0  0.46295  0.9491400000000002  0.9014399999999999  1.0000
  H   H10       1.0  0.8886399999999999  0.0013100000000000002  0.25411  1.0000
  H   H11       1.0  0.53325  0.91557  0.11688  1.0000
  H   H12       1.0  0.53553  0.05055  0.40335  1.0000
  C   C1        1.0  0.9275299999999999  0.7913300000000002  0.6731499999999998  1.0000
  C   C2        1.0  0.9703699999999998  0.7206600000000001  0.58789  1.0000
  C   C3        1.0  0.00433  0.78627  0.50574  1.0000
  C   C4        1.0  0.04481999999999999  0.7197700000000002  0.4258699999999999  1.0000
  C   C5        1.0  0.05287  0.5866  0.4283999999999999  1.0000
  C   C6        1.0  0.01686  0.52067  0.5098199999999999  1.0000
  C   C7        1.0  0.9755  0.58739  0.58951  1.0000
  C   C8        1.0  0.07354  0.7892900000000003  0.33689999999999987  1.0000
  C   C9        1.0  0.01693  0.37844000000000005  0.51069  1.0000
  C   C10       1.0  0.07028  0.21017000000000002  0.17367999999999995  1.0000
  C   C11       1.0  0.02807  0.28064  0.08824999999999997  1.0000
  C   C12       1.0  0.9948999999999999  0.2148  0.006089999999999998  1.0000
  C   C13       1.0  0.9547399999999999  0.28111  0.9260499999999998  1.0000
  C   C14       1.0  0.9469699999999999  0.41440000000000005  0.9283199999999998  1.0000
  C   C15       1.0  0.98276  0.48053  0.00964  1.0000
  C   C16       1.0  0.02314  0.4138600000000001  0.08957  1.0000
  C   C17       1.0  0.9260499999999999  0.2114  0.83716  1.0000
  C   C18       1.0  0.9832499999999998  0.62282  0.010719999999999999  1.0000
  C   C19       1.0  0.20626  0.9297  0.9212099999999998  1.0000
  C   C20       1.0  0.27847  0.9715800000000001  0.8361299999999998  1.0000
  C   C21       1.0  0.21376999999999996  0.00504  0.7537  1.0000
  C   C22       1.0  0.28094  0.04627000000000001  0.6742  1.0000
  C   C23       1.0  0.41417  0.05393  0.67703  1.0000
  C   C24       1.0  0.47952  0.01719  0.7583999999999997  1.0000
  C   C25       1.0  0.41181  0.9767000000000001  0.83811  1.0000
  C   C26       1.0  0.21202999999999997  0.07639  0.58536  1.0000
  C   C27       1.0  0.62198  0.01671  0.7590499999999998  1.0000
  C   C28       1.0  0.7929699999999998  0.07070000000000001  0.4227999999999999  1.0000
  C   C29       1.0  0.7204  0.02818  0.33831  1.0000
  C   C30       1.0  0.78556  0.9949  0.25603  1.0000
  C   C31       1.0  0.71891  0.9545100000000002  0.17619999999999997  1.0000
  C   C32       1.0  0.58586  0.9464000000000001  0.17877  1.0000
  C   C33       1.0  0.52024  0.9819500000000001  0.26029  1.0000
  C   C34       1.0  0.5871299999999999  0.02279  0.34019  1.0000
  C   C35       1.0  0.7887699999999999  0.92577  0.08756  1.0000
  C   C36       1.0  0.37807  0.98187  0.26036  1.0000
  O   O1        1.0  0.9014099999999998  0.9103700000000002  0.6667699999999998  1.0000
  O   O2        1.0  0.91852  0.73167  0.7511199999999998  1.0000
  O   O3        1.0  0.08134  0.91166  0.33791  1.0000
  O   O4        1.0  0.08627  0.7264400000000002  0.26109  1.0000
  O   O5        1.0  0.09924999999999999  0.3201500000000001  0.4614299999999999  1.0000
  O   O6        1.0  0.9315  0.32517000000000007  0.5614799999999999  1.0000
  O   O7        1.0  0.09961  0.09199  0.16674  1.0000
  O   O8        1.0  0.07597  0.26876  0.25213  1.0000
  O   O9        1.0  0.91852  0.08903000000000001  0.838  1.0000
  O   O10       1.0  0.9131299999999999  0.2744500000000001  0.76137  1.0000
  O   O11       1.0  0.90074  0.68106  0.96145  1.0000
  O   O12       1.0  0.0685  0.67561  0.06162  1.0000
  O   O13       1.0  0.08815  0.90016  0.9140399999999997  1.0000
  O   O14       1.0  0.26383  0.92517  7.999999999999998e-05  1.0000
  O   O15       1.0  0.08953999999999998  0.0812  0.5854999999999998  1.0000
  O   O16       1.0  0.27532  0.09318000000000003  0.5101299999999999  1.0000
  O   O17       1.0  0.68038  0.09922  0.7094399999999997  1.0000
  O   O18       1.0  0.67491  0.9311500000000001  0.8094799999999998  1.0000
  O   O19       1.0  0.91115  0.09954000000000003  0.4144799999999999  1.0000
  O   O20       1.0  0.73594  0.07626  0.50189  1.0000
  O   O21       1.0  0.91093  0.91844  0.08980999999999997  1.0000
  O   O22       1.0  0.72672  0.9129500000000003  0.01132  1.0000
  O   O23       1.0  0.32012999999999997  0.9007300000000001  0.20924999999999994  1.0000
  O   O24       1.0  0.32486  0.06589  0.3118899999999999  1.0000
