data_image0
_chemical_formula_structural       Cd6H10C28N4O20
_chemical_formula_sum              "Cd6 H10 C28 N4 O20"
_cell_length_a       8.46909
_cell_length_b       11.51586
_cell_length_c       10.56222
_cell_angle_alpha    73.69647
_cell_angle_beta     77.03074
_cell_angle_gamma    100.09793

_symmetry_space_group_name_H-M    'P 1'
_symmetry_Int_Tables_number       1

loop_
  _symmetry_equiv_pos_as_xyz
  'x,y,z'

loop_
  _atom_site_type_symbol
  _atom_site_label
  _atom_site_symmetry_multiplicity
  _atom_site_fract_x
  _atom_site_fract_y
  _atom_site_fract_z
  _atom_site_occupancy
  Cd  Cd1       1.0  0.02925000000000003  0.32579  0.49254  1.0000
  Cd  Cd2       1.0  0.68482  0.95791  0.86533  1.0000
  Cd  Cd3       1.0  0.76889  0.21104  0.36586  1.0000
  Cd  Cd4       1.0  0.9707400000000002  0.6742099999999999  0.50746  1.0000
  Cd  Cd5       1.0  0.31517  0.04209  0.13467  1.0000
  Cd  Cd6       1.0  0.23110999999999995  0.78896  0.63415  1.0000
  H   H1        1.0  0.6463400000000001  0.43541000000000013  0.80535  1.0000
  H   H2        1.0  0.37683  0.47591  0.81087  1.0000
  H   H3        1.0  0.62865  0.28637  0.55855  1.0000
  H   H4        1.0  0.15247  0.07928000000000002  0.65557  1.0000
  H   H5        1.0  0.86085  0.22190999999999994  0.9404  1.0000
  H   H6        1.0  0.35365  0.56458  0.19466  1.0000
  H   H7        1.0  0.62317  0.52408  0.18914  1.0000
  H   H8        1.0  0.37134000000000006  0.71363  0.44144999999999995  1.0000
  H   H9        1.0  0.8475300000000001  0.9207199999999999  0.34443  1.0000
  H   H10       1.0  0.13914  0.77809  0.0596  1.0000
  C   C1        1.0  0.26164999999999994  0.42299  0.66796  1.0000
  C   C2        1.0  0.38513999999999976  0.42798  0.73517  1.0000
  C   C3        1.0  0.5195599999999998  0.37812  0.69511  1.0000
  C   C4        1.0  0.52337  0.32455000000000006  0.59079  1.0000
  C   C5        1.0  0.39346  0.32119000000000003  0.53082  1.0000
  C   C6        1.0  0.13013999999999998  0.49416  0.6905  1.0000
  C   C7        1.0  0.38610999999999995  0.26713  0.41571  1.0000
  C   C8        1.0  0.22988999999999998  0.08448  0.83383  1.0000
  C   C9        1.0  0.12803  0.10464000000000002  0.74848  1.0000
  C   C10       1.0  0.9873799999999999  0.15182999999999996  0.78529  1.0000
  C   C11       1.0  0.9659899999999999  0.18508  0.90576  1.0000
  C   C12       1.0  0.07172999999999999  0.15894  0.98739  1.0000
  C   C13       1.0  0.37333000000000005  0.02696  0.79609  1.0000
  C   C14       1.0  0.03211  0.17199000000000003  0.12874  1.0000
  C   C15       1.0  0.7383400000000001  0.57701  0.33204  1.0000
  C   C16       1.0  0.61485  0.57202  0.26484  1.0000
  C   C17       1.0  0.48044  0.62188  0.30489  1.0000
  C   C18       1.0  0.47662000000000004  0.67545  0.40921  1.0000
  C   C19       1.0  0.6065400000000001  0.6788100000000001  0.46918999999999994  1.0000
  C   C20       1.0  0.86985  0.50585  0.30951  1.0000
  C   C21       1.0  0.61388  0.73287  0.58429  1.0000
  C   C22       1.0  0.7700999999999999  0.9155199999999999  0.16618  1.0000
  C   C23       1.0  0.87196  0.89536  0.25152  1.0000
  C   C24       1.0  0.012620000000000001  0.84817  0.21472  1.0000
  C   C25       1.0  0.03399999999999999  0.8149199999999999  0.09425  1.0000
  C   C26       1.0  0.92827  0.8410599999999999  0.01261  1.0000
  C   C27       1.0  0.6266699999999998  0.9730399999999999  0.20391  1.0000
  C   C28       1.0  0.9678799999999999  0.8280100000000001  0.87127  1.0000
  N   N1        1.0  0.26433  0.36954  0.57002  1.0000
  N   N2        1.0  0.20208  0.11021999999999998  0.95343  1.0000
  N   N3        1.0  0.7356600000000001  0.6304600000000001  0.42998  1.0000
  N   N4        1.0  0.7979200000000001  0.8897800000000001  0.04658  1.0000
  O   O1        1.0  0.017150000000000006  0.48356  0.62826  1.0000
  O   O2        1.0  0.15024  0.56649  0.75871  1.0000
  O   O3        1.0  0.50869  0.2296  0.36173  1.0000
  O   O4        1.0  0.25525000000000003  0.26382000000000005  0.37552  1.0000
  O   O5        1.0  0.65115  0.38225  0.74802  1.0000
  O   O6        1.0  0.44383999999999996  0.99707  0.8938300000000001  1.0000
  O   O7        1.0  0.41387  0.013889999999999986  0.68121  1.0000
  O   O8        1.0  0.90042  0.20900999999999997  0.16054  1.0000
  O   O9        1.0  0.12337  0.142  0.20652  1.0000
  O   O10       1.0  0.8758200000000002  0.15732  0.71458  1.0000
  O   O11       1.0  0.9828500000000001  0.51645  0.37174  1.0000
  O   O12       1.0  0.84975  0.43351  0.24129999999999996  1.0000
  O   O13       1.0  0.49131  0.7704  0.63827  1.0000
  O   O14       1.0  0.74475  0.73618  0.62448  1.0000
  O   O15       1.0  0.34884000000000004  0.61775  0.25198  1.0000
  O   O16       1.0  0.55615  0.0029300000000000064  0.10616999999999999  1.0000
  O   O17       1.0  0.58612  0.9861000000000001  0.31879  1.0000
  O   O18       1.0  0.09958  0.79099  0.83947  1.0000
  O   O19       1.0  0.8766200000000001  0.858  0.79349  1.0000
  O   O20       1.0  0.12416999999999999  0.84267  0.28543  1.0000
