data_image0
_chemical_formula_structural       Zn4H20C32N12O16
_chemical_formula_sum              "Zn4 H20 C32 N12 O16"
_cell_length_a       9.37966
_cell_length_b       9.4446
_cell_length_c       16.28855
_cell_angle_alpha    89.11667
_cell_angle_beta     107.52264999999998
_cell_angle_gamma    120.82663999999998

_space_group_name_H-M_alt    "P 1"
_space_group_IT_number       1

loop_
  _space_group_symop_operation_xyz
  'x, y, z'

loop_
  _atom_site_type_symbol
  _atom_site_label
  _atom_site_symmetry_multiplicity
  _atom_site_fract_x
  _atom_site_fract_y
  _atom_site_fract_z
  _atom_site_occupancy
  Zn  Zn1       1.0  0.66278  0.59879  0.6989599999999998  1.0000
  Zn  Zn2       1.0  0.39374  0.95824  0.80137  1.0000
  Zn  Zn3       1.0  0.33722  0.40119999999999995  0.30105  1.0000
  Zn  Zn4       1.0  0.60625  0.04176  0.19863  1.0000
  H   H1        1.0  0.09444999999999984  0.1574899999999999  0.7939199999999997  1.0000
  H   H2        1.0  0.91633  0.07265  0.6926  1.0000
  H   H3        1.0  0.27279  0.51623  0.55424  1.0000
  H   H4        1.0  0.3971199999999999  0.3258  0.7832999999999998  1.0000
  H   H5        1.0  0.08943000000000001  0.78156  0.96129  1.0000
  H   H6        1.0  0.86129  0.29673  0.70643  1.0000
  H   H7        1.0  0.88078  0.22268000000000004  0.80785  1.0000
  H   H8        1.0  0.4636100000000001  0.7196800000000002  0.94678  1.0000
  H   H9        1.0  0.04065  0.60733  0.7155  1.0000
  H   H10       1.0  0.32331000000000004  0.12909000000000004  0.53901  1.0000
  H   H11       1.0  0.9055400000000001  0.8425  0.20609  1.0000
  H   H12       1.0  0.08366000000000014  0.9273400000000003  0.30741  1.0000
  H   H13       1.0  0.7272  0.48376  0.44577  1.0000
  H   H14       1.0  0.60287  0.67419  0.2167  1.0000
  H   H15       1.0  0.9105699999999999  0.21844  0.03871  1.0000
  H   H16       1.0  0.13870000000000002  0.7032600000000002  0.2935799999999999  1.0000
  H   H17       1.0  0.11921  0.77731  0.19215  1.0000
  H   H18       1.0  0.53638  0.2803200000000001  0.05323  1.0000
  H   H19       1.0  0.95934  0.39267  0.2845  1.0000
  H   H20       1.0  0.67668  0.8709  0.4609899999999999  1.0000
  C   C1        1.0  0.025319999999999968  0.18911  0.73699  1.0000
  C   C2        1.0  0.2603699999999999  0.44907  0.60874  1.0000
  C   C3        1.0  0.32829  0.35411  0.72541  1.0000
  C   C4        1.0  0.89388  0.51882  0.92461  1.0000
  C   C5        1.0  0.8412200000000002  0.3582700000000001  0.94605  1.0000
  C   C6        1.0  0.05074000000000003  0.6588100000000002  0.9792399999999998  1.0000
  C   C7        1.0  0.79788  0.54248  0.8396099999999997  1.0000
  C   C8        1.0  0.6692899999999999  0.20512999999999995  0.8937599999999998  1.0000
  C   C9        1.0  0.9520600000000001  0.28652  0.76325  1.0000
  C   C10       1.0  0.34114999999999984  0.6514499999999999  0.8918999999999998  1.0000
  C   C11       1.0  0.12771999999999997  0.59863  0.77407  1.0000
  C   C12       1.0  0.09513000000000017  0.9692900000000002  0.57499  1.0000
  C   C13       1.0  0.9115200000000001  0.8947700000000001  0.5526699999999998  1.0000
  C   C14       1.0  0.18148000000000003  0.07203999999999998  0.52136  1.0000
  C   C15       1.0  0.20298999999999986  0.9567199999999998  0.6596699999999998  1.0000
  C   C16       1.0  0.8104900000000002  0.7759899999999998  0.60441  1.0000
  C   C17       1.0  0.97467  0.81088  0.26302  1.0000
  C   C18       1.0  0.7396200000000002  0.5509200000000002  0.39126  1.0000
  C   C19       1.0  0.6717000000000001  0.64589  0.27459  1.0000
  C   C20       1.0  0.10611000000000002  0.48117000000000004  0.0754  1.0000
  C   C21       1.0  0.15877000000000002  0.64172  0.05395999999999999  1.0000
  C   C22       1.0  0.94925  0.3411900000000001  0.02077  1.0000
  C   C23       1.0  0.20211  0.45752000000000004  0.16038999999999995  1.0000
  C   C24       1.0  0.3307100000000001  0.79486  0.10625  1.0000
  C   C25       1.0  0.04793000000000008  0.7134700000000003  0.23676  1.0000
  C   C26       1.0  0.6588400000000001  0.34854  0.1081  1.0000
  C   C27       1.0  0.87227  0.40136  0.22594  1.0000
  C   C28       1.0  0.90486  0.03070999999999996  0.4250199999999999  1.0000
  C   C29       1.0  0.08847000000000001  0.10523  0.44733  1.0000
  C   C30       1.0  0.8185099999999998  0.92796  0.47864  1.0000
  C   C31       1.0  0.7970000000000002  0.043269999999999996  0.34034  1.0000
  C   C32       1.0  0.18951000000000007  0.22401000000000004  0.3956  1.0000
  N   N1        1.0  0.15350999999999995  0.28951999999999994  0.6945999999999999  1.0000
  N   N2        1.0  0.10748000000000006  0.34916000000000014  0.62052  1.0000
  N   N3        1.0  0.4004900000000002  0.45625000000000004  0.67193  1.0000
  N   N4        1.0  0.0949  0.45698  0.80555  1.0000
  N   N5        1.0  0.22960999999999993  0.48757000000000006  0.88034  1.0000
  N   N6        1.0  0.28381999999999985  0.7253799999999999  0.8278399999999998  1.0000
  N   N7        1.0  0.84649  0.71047  0.30541  1.0000
  N   N8        1.0  0.8925200000000001  0.65083  0.37948  1.0000
  N   N9        1.0  0.59951  0.54375  0.32807  1.0000
  N   N10       1.0  0.9050900000000001  0.54301  0.19444999999999996  1.0000
  N   N11       1.0  0.77039  0.51242  0.11966  1.0000
  N   N12       1.0  0.71617  0.27462  0.17216  1.0000
  O   O1        1.0  0.72031  0.42766  0.7731  1.0000
  O   O2        1.0  0.80249  0.68016  0.83291  1.0000
  O   O3        1.0  0.52326  0.19507999999999995  0.8833799999999998  1.0000
  O   O4        1.0  0.67016  0.08196999999999999  0.86287  1.0000
  O   O5        1.0  0.15075  0.94166  0.72522  1.0000
  O   O6        1.0  0.3494399999999999  0.96996  0.66745  1.0000
  O   O7        1.0  0.8086  0.64013  0.61319  1.0000
  O   O8        1.0  0.72139  0.80991  0.6373  1.0000
  O   O9        1.0  0.27968  0.57234  0.22690999999999995  1.0000
  O   O10       1.0  0.1975  0.31984  0.1671  1.0000
  O   O11       1.0  0.47673000000000004  0.80491  0.11662  1.0000
  O   O12       1.0  0.3298300000000002  0.9180200000000002  0.13714  1.0000
  O   O13       1.0  0.84924  0.05834000000000002  0.27479  1.0000
  O   O14       1.0  0.65055  0.030040000000000008  0.33254999999999996  1.0000
  O   O15       1.0  0.1914  0.35987  0.38681  1.0000
  O   O16       1.0  0.2785999999999999  0.19008  0.36271  1.0000
