data_image0
_chemical_formula_structural       Cu2H16C30N8O8
_chemical_formula_sum              "Cu2 H16 C30 N8 O8"
_cell_length_a       7.39709
_cell_length_b       9.17708
_cell_length_c       15.355140000000002
_cell_angle_alpha    94.98689
_cell_angle_beta     102.09478
_cell_angle_gamma    100.98664

_space_group_name_H-M_alt    "P 1"
_space_group_IT_number       1

loop_
  _space_group_symop_operation_xyz
  'x, y, z'

loop_
  _atom_site_type_symbol
  _atom_site_label
  _atom_site_symmetry_multiplicity
  _atom_site_fract_x
  _atom_site_fract_y
  _atom_site_fract_z
  _atom_site_occupancy
  Cu  Cu1       1.0  0.0  0.5  0.0  1.0000
  Cu  Cu2       1.0  0.0  0.0  0.5  1.0000
  H   H1        1.0  0.4853900000000001  0.75707  0.8300000000000002  1.0000
  H   H2        1.0  0.08962999999999999  0.46645  0.60585  1.0000
  H   H3        1.0  0.5437000000000001  0.3059700000000001  0.7634600000000001  1.0000
  H   H4        1.0  0.16161999999999999  0.72527  0.54629  1.0000
  H   H5        1.0  0.24395000000000006  0.08435000000000006  0.8809000000000002  1.0000
  H   H6        1.0  0.27484  0.06423  0.044130000000000016  1.0000
  H   H7        1.0  0.19721  0.80623  0.09218  1.0000
  H   H8        1.0  0.04265  0.60407  0.82848  1.0000
  H   H9        1.0  0.51461  0.24293000000000003  0.17  1.0000
  H   H10       1.0  0.91037  0.53355  0.39415  1.0000
  H   H11       1.0  0.45630000000000004  0.6940300000000001  0.23654000000000006  1.0000
  H   H12       1.0  0.83839  0.27473  0.45371  1.0000
  H   H13       1.0  0.75605  0.91565  0.11910000000000003  1.0000
  H   H14       1.0  0.7251700000000001  0.93577  0.9558700000000002  1.0000
  H   H15       1.0  0.80279  0.19377000000000005  0.9078200000000002  1.0000
  H   H16       1.0  0.9573599999999999  0.39594  0.17151  1.0000
  C   C1        1.0  0.68582  0.55781  0.8896100000000002  1.0000
  C   C2        1.0  0.52616  0.53241  0.80731  1.0000
  C   C3        1.0  0.43469  0.64986  0.78743  1.0000
  C   C4        1.0  0.28101999999999994  0.62593  0.71366  1.0000
  C   C5        1.0  0.21532  0.48702000000000006  0.66043  1.0000
  C   C6        1.0  0.31239  0.37217  0.67784  1.0000
  C   C7        1.0  0.46851  0.3956300000000001  0.75081  1.0000
  C   C8        1.0  0.25093  0.22461  0.61744  1.0000
  C   C9        1.0  0.13495  0.78042  0.60601  1.0000
  C   C10       1.0  0.12989000000000012  0.84744  0.7454700000000002  1.0000
  C   C11       1.0  0.14784  0.8449  0.8419500000000001  1.0000
  C   C12       1.0  0.20962  0.97566  0.90387  1.0000
  C   C13       1.0  0.22775999999999993  0.9635399999999998  0.99513  1.0000
  C   C14       1.0  0.18309  0.8225  0.02194  1.0000
  C   C15       1.0  0.10011000000000002  0.70778  0.87406  1.0000
  C   C16       1.0  0.3141900000000001  0.44219  0.11038000000000003  1.0000
  C   C17       1.0  0.47385  0.46759000000000006  0.19269  1.0000
  C   C18       1.0  0.56531  0.35014  0.21256000000000005  1.0000
  C   C19       1.0  0.7189799999999997  0.37406999999999996  0.28634  1.0000
  C   C20       1.0  0.7846799999999999  0.51298  0.33957  1.0000
  C   C21       1.0  0.68761  0.62783  0.3221500000000001  1.0000
  C   C22       1.0  0.53149  0.60437  0.24919000000000005  1.0000
  C   C23       1.0  0.74907  0.77539  0.38255  1.0000
  C   C24       1.0  0.86505  0.21957999999999997  0.39398  1.0000
  C   C25       1.0  0.8701200000000001  0.15256  0.25453  1.0000
  C   C26       1.0  0.8521599999999998  0.15510000000000002  0.15804000000000007  1.0000
  C   C27       1.0  0.79038  0.02434  0.09613  1.0000
  C   C28       1.0  0.77225  0.03646  0.00486  1.0000
  C   C29       1.0  0.81692  0.17750000000000002  0.97805  1.0000
  C   C30       1.0  0.8998899999999997  0.29222  0.12593000000000001  1.0000
  N   N1        1.0  0.18623999999999988  0.74454  0.69061  1.0000
  N   N2        1.0  0.053029999999999966  0.89607  0.60932  1.0000
  N   N3        1.0  0.05009000000000001  0.94039  0.69653  1.0000
  N   N4        1.0  0.11696000000000016  0.6971500000000002  0.9618000000000002  1.0000
  N   N5        1.0  0.81376  0.25546  0.3093900000000001  1.0000
  N   N6        1.0  0.94697  0.10394  0.39068  1.0000
  N   N7        1.0  0.94992  0.05961  0.30347  1.0000
  N   N8        1.0  0.8830399999999999  0.30285  0.03820000000000001  1.0000
  O   O1        1.0  0.7088899999999999  0.6667  0.9483300000000001  1.0000
  O   O2        1.0  0.7924500000000001  0.45915000000000006  0.8919900000000001  1.0000
  O   O3        1.0  0.36393  0.14108  0.61468  1.0000
  O   O4        1.0  0.07551000000000012  0.19920000000000004  0.5712500000000003  1.0000
  O   O5        1.0  0.29112  0.3333  0.05166  1.0000
  O   O6        1.0  0.20755  0.54085  0.10801000000000002  1.0000
  O   O7        1.0  0.6360699999999999  0.85892  0.3853100000000001  1.0000
  O   O8        1.0  0.9245  0.80081  0.42875  1.0000
