data_image0
_chemical_formula_structural       Mn4H24C48O16
_chemical_formula_sum              "Mn4 H24 C48 O16"
_cell_length_a       6.22485
_cell_length_b       14.20717
_cell_length_c       14.11813
_cell_angle_alpha    90.0
_cell_angle_beta     86.3427
_cell_angle_gamma    90.0

_symmetry_space_group_name_H-M    'P 1'
_symmetry_Int_Tables_number       1

loop_
  _symmetry_equiv_pos_as_xyz
  'x,y,z'

loop_
  _atom_site_type_symbol
  _atom_site_label
  _atom_site_symmetry_multiplicity
  _atom_site_fract_x
  _atom_site_fract_y
  _atom_site_fract_z
  _atom_site_occupancy
  Mn  Mn1       1.0  0.25050000000000006  0.55928  0.00244  1.0000
  Mn  Mn2       1.0  0.7495000000000003  0.05928000000000001  0.49756  1.0000
  Mn  Mn3       1.0  0.7495000000000003  0.4407200000000001  0.99756  1.0000
  Mn  Mn4       1.0  0.25050000000000006  0.94072  0.50244  1.0000
  H   H1        1.0  0.91118  0.70783  0.38382  1.0000
  H   H2        1.0  0.64043  0.77655  0.9945699999999997  1.0000
  H   H3        1.0  0.80094  0.59071  0.26363  1.0000
  H   H4        1.0  0.84123  0.011330000000000003  0.23428999999999997  1.0000
  H   H5        1.0  0.66729  0.9453200000000002  0.9544  1.0000
  H   H6        1.0  0.76862  0.06172  0.07437  1.0000
  H   H7        1.0  0.08882000000000001  0.20783  0.11618  1.0000
  H   H8        1.0  0.35957000000000017  0.27655  0.50543  1.0000
  H   H9        1.0  0.19906  0.09071  0.23637  1.0000
  H   H10       1.0  0.15877  0.5113300000000002  0.26571  1.0000
  H   H11       1.0  0.3327100000000001  0.44532  0.5456  1.0000
  H   H12       1.0  0.23138000000000006  0.5617200000000001  0.42563  1.0000
  H   H13       1.0  0.08882000000000001  0.29217  0.61618  1.0000
  H   H14       1.0  0.3595700000000001  0.22345000000000004  0.005429999999999999  1.0000
  H   H15       1.0  0.19906  0.4092900000000001  0.73637  1.0000
  H   H16       1.0  0.15877  0.9886700000000003  0.76571  1.0000
  H   H17       1.0  0.3327100000000001  0.05468  0.0456  1.0000
  H   H18       1.0  0.23138000000000006  0.9382800000000002  0.92563  1.0000
  H   H19       1.0  0.91118  0.7921700000000003  0.88382  1.0000
  H   H20       1.0  0.6404300000000003  0.7234500000000003  0.4945699999999999  1.0000
  H   H21       1.0  0.80094  0.90929  0.76363  1.0000
  H   H22       1.0  0.8412300000000001  0.4886700000000001  0.7342899999999998  1.0000
  H   H23       1.0  0.66729  0.5546800000000002  0.4543999999999999  1.0000
  H   H24       1.0  0.76862  0.43828  0.57437  1.0000
  C   C1        1.0  0.7295300000000001  0.79429  0.13923  1.0000
  C   C2        1.0  0.72695  0.69583  0.16233  1.0000
  C   C3        1.0  0.8503  0.8277500000000002  0.2993199999999999  1.0000
  C   C4        1.0  0.8629700000000001  0.7313800000000003  0.3154  1.0000
  C   C5        1.0  0.64054  0.62177  0.09951  1.0000
  C   C6        1.0  0.79039  0.8616400000000002  0.20924999999999996  1.0000
  C   C7        1.0  0.68283  0.8270400000000001  0.04786  1.0000
  C   C8        1.0  0.80061  0.66596  0.24792  1.0000
  C   C9        1.0  0.7983200000000003  0.9586100000000002  0.18338  1.0000
  C   C10       1.0  0.8950300000000002  0.89196  0.37964  1.0000
  C   C11       1.0  0.6977400000000002  0.9213700000000002  0.025269999999999994  1.0000
  C   C12       1.0  0.75419  0.9876000000000003  0.09378999999999997  1.0000
  C   C13       1.0  0.27047000000000004  0.2942900000000001  0.36077  1.0000
  C   C14       1.0  0.2730500000000001  0.19583  0.33767  1.0000
  C   C15       1.0  0.14970000000000006  0.32775  0.20067999999999994  1.0000
  C   C16       1.0  0.13703000000000004  0.23137000000000002  0.18459999999999996  1.0000
  C   C17       1.0  0.3594600000000001  0.12177000000000003  0.4004899999999999  1.0000
  C   C18       1.0  0.20961000000000005  0.36164000000000013  0.29075  1.0000
  C   C19       1.0  0.3171700000000001  0.32704  0.45214  1.0000
  C   C20       1.0  0.19939  0.16596000000000005  0.25208  1.0000
  C   C21       1.0  0.20168000000000005  0.45861000000000013  0.31661999999999996  1.0000
  C   C22       1.0  0.10497  0.3919600000000001  0.12036  1.0000
  C   C23       1.0  0.30226  0.42137000000000013  0.47473  1.0000
  C   C24       1.0  0.24581000000000006  0.4876000000000001  0.40621  1.0000
  C   C25       1.0  0.27047000000000004  0.20571  0.86077  1.0000
  C   C26       1.0  0.27305000000000007  0.30417  0.8376699999999999  1.0000
  C   C27       1.0  0.14970000000000003  0.17225000000000004  0.7006799999999997  1.0000
  C   C28       1.0  0.13703000000000004  0.26863000000000004  0.6846  1.0000
  C   C29       1.0  0.35947  0.37823  0.9004999999999999  1.0000
  C   C30       1.0  0.20960999999999996  0.13836000000000004  0.79075  1.0000
  C   C31       1.0  0.3171700000000001  0.17296000000000006  0.95214  1.0000
  C   C32       1.0  0.19939  0.33404  0.75208  1.0000
  C   C33       1.0  0.20168000000000005  0.04139000000000002  0.8166199999999998  1.0000
  C   C34       1.0  0.10497000000000005  0.10804  0.62036  1.0000
  C   C35       1.0  0.30226  0.07863  0.97473  1.0000
  C   C36       1.0  0.24581000000000003  0.012410000000000003  0.9062099999999998  1.0000
  C   C37       1.0  0.7295300000000001  0.70571  0.63923  1.0000
  C   C38       1.0  0.72695  0.8041700000000003  0.66233  1.0000
  C   C39       1.0  0.8503  0.67225  0.79932  1.0000
  C   C40       1.0  0.8629700000000001  0.7686300000000001  0.8154  1.0000
  C   C41       1.0  0.64054  0.8782300000000002  0.59951  1.0000
  C   C42       1.0  0.79039  0.6383600000000001  0.70925  1.0000
  C   C43       1.0  0.68283  0.6729600000000002  0.54786  1.0000
  C   C44       1.0  0.80061  0.83404  0.74792  1.0000
  C   C45       1.0  0.7983200000000003  0.5413900000000003  0.6833799999999998  1.0000
  C   C46       1.0  0.8950300000000002  0.60804  0.87964  1.0000
  C   C47       1.0  0.6977400000000002  0.5786300000000001  0.52527  1.0000
  C   C48       1.0  0.75419  0.51241  0.59379  1.0000
  O   O1        1.0  0.7915100000000002  0.9696000000000002  0.38656  1.0000
  O   O2        1.0  0.7241300000000002  0.53971  0.10188  1.0000
  O   O3        1.0  0.027110000000000006  0.86418  0.4392799999999999  1.0000
  O   O4        1.0  0.4823100000000001  0.64211  0.04912  1.0000
  O   O5        1.0  0.20849000000000006  0.46960000000000013  0.11344999999999997  1.0000
  O   O6        1.0  0.2758700000000001  0.03971000000000001  0.39812  1.0000
  O   O7        1.0  0.9728900000000003  0.3641800000000001  0.06071999999999999  1.0000
  O   O8        1.0  0.51769  0.14211  0.45088  1.0000
  O   O9        1.0  0.20849  0.0304  0.61345  1.0000
  O   O10       1.0  0.27587000000000006  0.4602900000000001  0.8981199999999999  1.0000
  O   O11       1.0  0.9728900000000003  0.13582000000000005  0.56072  1.0000
  O   O12       1.0  0.51769  0.35789  0.9508799999999998  1.0000
  O   O13       1.0  0.7915100000000002  0.5304  0.88655  1.0000
  O   O14       1.0  0.7241300000000002  0.96029  0.60188  1.0000
  O   O15       1.0  0.027110000000000006  0.63582  0.93928  1.0000
  O   O16       1.0  0.4823100000000001  0.8578900000000003  0.54912  1.0000
