data_image0
_chemical_formula_structural       Mo4P4H16C16O12
_chemical_formula_sum              "Mo4 P4 H16 C16 O12"
_cell_length_a       8.97223
_cell_length_b       7.540119999999999
_cell_length_c       12.33661
_cell_angle_alpha    113.53313
_cell_angle_beta     109.08299
_cell_angle_gamma    92.52976999999998

_space_group_name_H-M_alt    "P 1"
_space_group_IT_number       1

loop_
  _space_group_symop_operation_xyz
  'x, y, z'

loop_
  _atom_site_type_symbol
  _atom_site_label
  _atom_site_symmetry_multiplicity
  _atom_site_fract_x
  _atom_site_fract_y
  _atom_site_fract_z
  _atom_site_occupancy
  Mo  Mo1       1.0  0.06984  0.9020800000000001  0.46317  1.0000
  Mo  Mo2       1.0  0.43671999999999994  0.4199400000000001  0.5293799999999999  1.0000
  Mo  Mo3       1.0  0.93016  0.09791999999999997  0.53683  1.0000
  Mo  Mo4       1.0  0.5632799999999999  0.5800600000000001  0.47061999999999987  1.0000
  P   P1        1.0  0.4056099999999999  0.8599100000000001  0.6344899999999999  1.0000
  P   P2        1.0  0.05913999999999994  0.22343  0.36637  1.0000
  P   P3        1.0  0.5943899999999999  0.14009000000000002  0.36550999999999995  1.0000
  P   P4        1.0  0.9408700000000001  0.77657  0.6336299999999999  1.0000
  H   H1        1.0  0.59894  0.15388  0.79486  1.0000
  H   H2        1.0  0.6768399999999999  0.93709  0.7784599999999999  1.0000
  H   H3        1.0  0.4853899999999998  0.29877999999999993  0.9611699999999999  1.0000
  H   H4        1.0  0.42432  0.28994  0.14097999999999997  1.0000
  H   H5        1.0  0.8982099999999998  0.35676  0.23598  1.0000
  H   H6        1.0  0.7971499999999999  0.12745  0.20768  1.0000
  H   H7        1.0  0.04177  0.36616  0.09831  1.0000
  H   H8        1.0  0.11308999999999987  0.18794999999999984  0.9100399999999997  1.0000
  H   H9        1.0  0.40106  0.8461200000000001  0.20513999999999996  1.0000
  H   H10       1.0  0.32316  0.06290999999999994  0.22153999999999993  1.0000
  H   H11       1.0  0.51461  0.7012200000000002  0.03883  1.0000
  H   H12       1.0  0.5756799999999999  0.71006  0.8590199999999999  1.0000
  H   H13       1.0  0.10179000000000002  0.6432400000000003  0.76403  1.0000
  H   H14       1.0  0.20285000000000003  0.8725500000000003  0.79232  1.0000
  H   H15       1.0  0.95824  0.63385  0.90169  1.0000
  H   H16       1.0  0.88691  0.8120500000000003  0.08995999999999997  1.0000
  C   C1        1.0  0.5721999999999999  0.0043599999999999  0.7862599999999997  1.0000
  C   C2        1.0  0.5362  0.004839999999999955  0.89759  1.0000
  C   C3        1.0  0.49240999999999996  0.1673899999999999  0.97788  1.0000
  C   C4        1.0  0.45755999999999997  0.16256  0.0789  1.0000
  C   C5        1.0  0.91184  0.20499999999999993  0.21938999999999995  1.0000
  C   C6        1.0  0.95741  0.10069000000000003  0.10611  1.0000
  C   C7        1.0  0.022889999999999997  0.20558  0.05521  1.0000
  C   C8        1.0  0.06390999999999993  0.1057899999999999  0.9498599999999999  1.0000
  C   C9        1.0  0.42779999999999996  0.9956399999999999  0.21374999999999997  1.0000
  C   C10       1.0  0.46379999999999993  0.9951600000000003  0.10240999999999999  1.0000
  C   C11       1.0  0.50759  0.8326100000000002  0.022119999999999997  1.0000
  C   C12       1.0  0.5424399999999999  0.8374400000000001  0.9210999999999998  1.0000
  C   C13       1.0  0.08816  0.7950000000000003  0.78062  1.0000
  C   C14       1.0  0.04258999999999996  0.8993100000000002  0.8938999999999999  1.0000
  C   C15       1.0  0.97711  0.79442  0.9447999999999998  1.0000
  C   C16       1.0  0.9360899999999999  0.8942100000000002  0.05013999999999999  1.0000
  O   O1        1.0  0.27481  0.9890100000000001  0.62678  1.0000
  O   O2        1.0  0.46793  0.82575  0.52368  1.0000
  O   O3        1.0  0.34855  0.6598899999999999  0.6308399999999998  1.0000
  O   O4        1.0  0.21334999999999996  0.35931  0.3907099999999999  1.0000
  O   O5        1.0  0.9932999999999998  0.29843  0.47419999999999995  1.0000
  O   O6        1.0  0.09531  0.00931  0.34277  1.0000
  O   O7        1.0  0.72519  0.010990000000000015  0.37322  1.0000
  O   O8        1.0  0.5320699999999999  0.1742600000000001  0.47633  1.0000
  O   O9        1.0  0.6514499999999998  0.34011000000000013  0.36916999999999994  1.0000
  O   O10       1.0  0.7866499999999998  0.6406900000000002  0.60929  1.0000
  O   O11       1.0  0.006699999999999966  0.7015700000000002  0.5257999999999999  1.0000
  O   O12       1.0  0.9046899999999999  0.99069  0.6572299999999999  1.0000
