data_image0
_chemical_formula_structural       FeH12C12N24
_chemical_formula_sum              "Fe1 H12 C12 N24"
_cell_length_a       8.06777
_cell_length_b       8.99624
_cell_length_c       11.88455
_cell_angle_alpha    112.17446
_cell_angle_beta     109.8155
_cell_angle_gamma    89.76295

_space_group_name_H-M_alt    "P 1"
_space_group_IT_number       1

loop_
  _space_group_symop_operation_xyz
  'x, y, z'

loop_
  _atom_site_type_symbol
  _atom_site_label
  _atom_site_symmetry_multiplicity
  _atom_site_fract_x
  _atom_site_fract_y
  _atom_site_fract_z
  _atom_site_occupancy
  Fe  Fe1       1.0  0.99996  1.9999999999976766e-05  0.99999  1.0000
  H   H1        1.0  0.42208000000000007  0.12940000000000004  0.9954300000000001  1.0000
  H   H2        1.0  0.17681000000000005  0.553  0.0053  1.0000
  H   H3        1.0  0.09069999999999999  0.9435499999999999  0.27483  1.0000
  H   H4        1.0  0.6348  0.01993  0.3318  1.0000
  H   H5        1.0  0.9092200000000001  0.05650000000000002  0.7251600000000001  1.0000
  H   H6        1.0  0.3650700000000001  0.9800499999999999  0.66813  1.0000
  H   H7        1.0  0.5778  0.8706299999999998  0.004540000000000001  1.0000
  H   H8        1.0  0.8230900000000004  0.4470299999999999  0.99467  1.0000
  H   H9        1.0  0.18509  0.33542  0.27461  1.0000
  H   H10       1.0  0.6982499999999999  0.30606  0.33212  1.0000
  H   H11       1.0  0.81479  0.6646399999999999  0.72537  1.0000
  H   H12       1.0  0.30168  0.6939599999999998  0.6679  1.0000
  C   C1        1.0  0.32530000000000014  0.21335  0.99848  1.0000
  C   C2        1.0  0.19899  0.43347  0.0037000000000000006  1.0000
  C   C3        1.0  0.21059000000000005  0.9629299999999998  0.25797000000000003  1.0000
  C   C4        1.0  0.49172000000000016  0.003429999999999989  0.28646  1.0000
  C   C5        1.0  0.7893  0.037099999999999994  0.74199  1.0000
  C   C6        1.0  0.5081500000000001  0.9965700000000001  0.7134800000000001  1.0000
  C   C7        1.0  0.67457  0.7866699999999999  0.0014900000000000002  1.0000
  C   C8        1.0  0.80089  0.5665700000000002  0.9963000000000001  1.0000
  C   C9        1.0  0.049170000000000026  0.29678  0.25798  1.0000
  C   C10       1.0  0.79661  0.28011  0.28698  1.0000
  C   C11       1.0  0.95072  0.70326  0.742  1.0000
  C   C12       1.0  0.2033  0.71992  0.71303  1.0000
  N   N1        1.0  0.16375  0.19116  0.00034  1.0000
  N   N2        1.0  0.08467  0.3301  0.00393  1.0000
  N   N3        1.0  0.35288  0.36547  0.0006  1.0000
  N   N4        1.0  0.50774  0.4283099999999999  0.00025000000000000006  1.0000
  N   N5        1.0  0.7785400000000001  0.02665000000000004  0.8480500000000001  1.0000
  N   N6        1.0  0.6019500000000002  0.0009899999999999852  0.83086  1.0000
  N   N7        1.0  0.62139  0.01799000000000003  0.65384  1.0000
  N   N8        1.0  0.58814  0.016770000000000018  0.53186  1.0000
  N   N9        1.0  0.22132999999999997  0.97337  0.1519  1.0000
  N   N10       1.0  0.39792000000000016  0.99902  0.16908  1.0000
  N   N11       1.0  0.3785  0.9820299999999998  0.34611  1.0000
  N   N12       1.0  0.41175  0.9832399999999999  0.4680900000000001  1.0000
  N   N13       1.0  0.8361100000000002  0.8088599999999999  0.99962  1.0000
  N   N14       1.0  0.9152100000000004  0.6699399999999999  0.99605  1.0000
  N   N15       1.0  0.6469900000000002  0.63455  0.9993900000000001  1.0000
  N   N16       1.0  0.49213  0.5716999999999998  0.99972  1.0000
  N   N17       1.0  0.06499000000000005  0.8211899999999998  0.8470900000000001  1.0000
  N   N18       1.0  0.22449000000000016  0.8319800000000002  0.8292200000000001  1.0000
  N   N19       1.0  0.03159999999999999  0.6361899999999999  0.65371  1.0000
  N   N20       1.0  0.9454900000000005  0.51511  0.53243  1.0000
  N   N21       1.0  0.9349  0.17886  0.15290000000000004  1.0000
  N   N22       1.0  0.7754100000000004  0.16804999999999998  0.17078000000000002  1.0000
  N   N23       1.0  0.9683200000000002  0.36384  0.34629  1.0000
  N   N24       1.0  0.054439999999999995  0.48492999999999997  0.46757  1.0000
