data_image0
_chemical_formula_structural       Cu6H6C24O18
_chemical_formula_sum              "Cu6 H6 C24 O18"
_cell_length_a       6.32595
_cell_length_b       15.194500000000001
_cell_length_c       15.19246
_cell_angle_alpha    118.08907999999998
_cell_angle_beta     97.9605
_cell_angle_gamma    97.95986999999998

_symmetry_space_group_name_H-M    'P 1'
_symmetry_Int_Tables_number       1

loop_
  _symmetry_equiv_pos_as_xyz
  'x,y,z'

loop_
  _atom_site_type_symbol
  _atom_site_label
  _atom_site_symmetry_multiplicity
  _atom_site_fract_x
  _atom_site_fract_y
  _atom_site_fract_z
  _atom_site_occupancy
  Cu  Cu1       1.0  0.5627399999999999  0.42393999999999993  0.7362199999999999  1.0000
  Cu  Cu2       1.0  0.82766  0.26365  0.68778  1.0000
  Cu  Cu3       1.0  0.13899999999999998  0.31207999999999997  0.5757899999999999  1.0000
  Cu  Cu4       1.0  0.43727  0.57606  0.26377999999999996  1.0000
  Cu  Cu5       1.0  0.1723499999999999  0.7363499999999996  0.3122299999999999  1.0000
  Cu  Cu6       1.0  0.86101  0.68792  0.42422  1.0000
  H   H1        1.0  0.17115  0.54396  0.56649  1.0000
  H   H2        1.0  0.60472  0.43349  0.97743  1.0000
  H   H3        1.0  0.6278  0.023200000000000012  0.45625  1.0000
  H   H4        1.0  0.82886  0.45604  0.43351  1.0000
  H   H5        1.0  0.39529  0.56651  0.02258  1.0000
  H   H6        1.0  0.3722099999999998  0.9767999999999997  0.5437499999999998  1.0000
  C   C1        1.0  0.78391  0.40247  0.57249  1.0000
  C   C2        1.0  0.62943  0.44903  0.53473  1.0000
  C   C3        1.0  0.43851999999999985  0.47258999999999995  0.5721399999999999  1.0000
  C   C4        1.0  0.31610000000000005  0.52514  0.53776  1.0000
  C   C5        1.0  0.21205  0.4273  0.83015  1.0000
  C   C6        1.0  0.09509999999999996  0.46513999999999994  0.9144199999999999  1.0000
  C   C7        1.0  0.86685  0.42769  0.90047  1.0000
  C   C8        1.0  0.77836  0.4621899999999999  0.98731  1.0000
  C   C9        1.0  0.38191999999999987  0.16969999999999993  0.5970399999999999  1.0000
  C   C10       1.0  0.18083  0.08547000000000006  0.55077  1.0000
  C   C11       1.0  0.9666099999999996  0.09952999999999995  0.5272999999999999  1.0000
  C   C12       1.0  0.7912  0.012869999999999942  0.4748999999999999  1.0000
  C   C13       1.0  0.2161  0.59753  0.42751  1.0000
  C   C14       1.0  0.37059  0.55097  0.4652699999999999  1.0000
  C   C15       1.0  0.56149  0.52741  0.42786  1.0000
  C   C16       1.0  0.68392  0.47485999999999995  0.46223999999999993  1.0000
  C   C17       1.0  0.7879699999999997  0.5726999999999998  0.16985  1.0000
  C   C18       1.0  0.90492  0.53485  0.08558  1.0000
  C   C19       1.0  0.13317  0.57231  0.09953  1.0000
  C   C20       1.0  0.22164999999999999  0.53781  0.012699999999999998  1.0000
  C   C21       1.0  0.6180899999999998  0.8302999999999999  0.40296  1.0000
  C   C22       1.0  0.81918  0.91453  0.4492299999999999  1.0000
  C   C23       1.0  0.033399999999999944  0.9004699999999999  0.4727099999999999  1.0000
  C   C24       1.0  0.20881  0.98713  0.5251  1.0000
  O   O1        1.0  0.7924  0.40734  0.65987  1.0000
  O   O2        1.0  0.9168799999999998  0.36177  0.51816  1.0000
  O   O3        1.0  0.36511999999999994  0.44565999999999983  0.6380199999999998  1.0000
  O   O4        1.0  0.13441999999999993  0.33970999999999985  0.7478999999999999  1.0000
  O   O5        1.0  0.39875  0.4819099999999999  0.84364  1.0000
  O   O6        1.0  0.7283899999999999  0.36174999999999985  0.8076199999999998  1.0000
  O   O7        1.0  0.38558  0.2519  0.59162  1.0000
  O   O8        1.0  0.5554  0.15624  0.63804  1.0000
  O   O9        1.0  0.92044  0.19235999999999995  0.55423  1.0000
  O   O10       1.0  0.20762  0.59266  0.34013999999999994  1.0000
  O   O11       1.0  0.08312999999999998  0.63823  0.48184999999999995  1.0000
  O   O12       1.0  0.6349  0.55433  0.36199  1.0000
  O   O13       1.0  0.8655899999999997  0.6602899999999998  0.2521  1.0000
  O   O14       1.0  0.6012699999999999  0.51809  0.15635999999999997  1.0000
  O   O15       1.0  0.2716299999999999  0.6382399999999999  0.19238999999999995  1.0000
  O   O16       1.0  0.61443  0.7481  0.40838999999999986  1.0000
  O   O17       1.0  0.44460999999999995  0.84375  0.36196  1.0000
  O   O18       1.0  0.07957000000000002  0.80763  0.44577  1.0000
