data_image0
_chemical_formula_structural       Zn4H32C36N4O16
_chemical_formula_sum              "Zn4 H32 C36 N4 O16"
_cell_length_a       6.88216
_cell_length_b       6.11424
_cell_length_c       26.46706
_cell_angle_alpha    89.98203999999998
_cell_angle_beta     89.70468
_cell_angle_gamma    98.55687

_space_group_name_H-M_alt    "P 1"
_space_group_IT_number       1

loop_
  _space_group_symop_operation_xyz
  'x, y, z'

loop_
  _atom_site_type_symbol
  _atom_site_label
  _atom_site_symmetry_multiplicity
  _atom_site_fract_x
  _atom_site_fract_y
  _atom_site_fract_z
  _atom_site_occupancy
  Zn  Zn1       1.0  0.5932100000000002  0.40394  0.20281000000000005  1.0000
  Zn  Zn2       1.0  0.90966  0.10437999999999997  0.7034300000000001  1.0000
  Zn  Zn3       1.0  0.40681  0.59609  0.7972  1.0000
  Zn  Zn4       1.0  0.09032999999999997  0.8956299999999999  0.29657  1.0000
  H   H1        1.0  0.5314  0.30637  0.30251000000000006  1.0000
  H   H2        1.0  0.53797  0.49619  0.35568  1.0000
  H   H3        1.0  0.7660400000000003  0.60397  0.01608  1.0000
  H   H4        1.0  0.7753100000000002  0.3837  0.09633  1.0000
  H   H5        1.0  0.4832600000000002  0.82802  0.17563000000000004  1.0000
  H   H6        1.0  0.46386  0.06213  0.10087000000000003  1.0000
  H   H7        1.0  0.67936  0.16403  0.01567  1.0000
  H   H8        1.0  0.68695  0.93849  0.9747200000000001  1.0000
  H   H9        1.0  0.98419  0.19221  0.8076300000000001  1.0000
  H   H10       1.0  0.97246  0.99167  0.85795  1.0000
  H   H11       1.0  0.72391  0.8964099999999998  0.51894  1.0000
  H   H12       1.0  0.7242500000000001  0.11425999999999997  0.59896  1.0000
  H   H13       1.0  0.024129999999999995  0.6737699999999999  0.67549  1.0000
  H   H14       1.0  0.0353  0.43766999999999995  0.60035  1.0000
  H   H15       1.0  0.8161800000000002  0.33984  0.51515  1.0000
  H   H16       1.0  0.8163200000000002  0.56934  0.47503000000000006  1.0000
  H   H17       1.0  0.46868  0.6937  0.69748  1.0000
  H   H18       1.0  0.46203  0.50382  0.6443100000000003  1.0000
  H   H19       1.0  0.23396  0.39602  0.98392  1.0000
  H   H20       1.0  0.22472000000000003  0.6162799999999999  0.90367  1.0000
  H   H21       1.0  0.51674  0.17197999999999994  0.82438  1.0000
  H   H22       1.0  0.53612  0.9378799999999999  0.8991300000000002  1.0000
  H   H23       1.0  0.32064  0.8359699999999999  0.9843300000000001  1.0000
  H   H24       1.0  0.31305  0.061499999999999985  0.02528  1.0000
  H   H25       1.0  0.015840000000000003  0.8078  0.19238  1.0000
  H   H26       1.0  0.02754  0.00832  0.14204  1.0000
  H   H27       1.0  0.27610000000000007  0.10356999999999998  0.4810600000000001  1.0000
  H   H28       1.0  0.27572  0.8857499999999999  0.40104000000000006  1.0000
  H   H29       1.0  0.9758800000000002  0.32621  0.3245200000000001  1.0000
  H   H30       1.0  0.96471  0.5623  0.39965000000000006  1.0000
  H   H31       1.0  0.18382  0.66015  0.48484  1.0000
  H   H32       1.0  0.18368999999999994  0.43064999999999987  0.52497  1.0000
  C   C1        1.0  0.39149  0.5866  0.28823  1.0000
  C   C2        1.0  0.54987  0.47976  0.3146800000000001  1.0000
  C   C3        1.0  0.7492900000000002  0.59236  0.29759  1.0000
  C   C4        1.0  0.7011700000000002  0.65736  0.05082  1.0000
  C   C5        1.0  0.70478  0.53318  0.09482000000000002  1.0000
  C   C6        1.0  0.54223  0.78258  0.13944  1.0000
  C   C7        1.0  0.5336200000000002  0.91418  0.09719  1.0000
  C   C8        1.0  0.6169800000000001  0.8523399999999999  0.05213000000000002  1.0000
  C   C9        1.0  0.60767  0.99544  0.0069500000000000004  1.0000
  C   C10       1.0  0.11044  0.9089199999999998  0.78884  1.0000
  C   C11       1.0  0.95632  0.01573  0.81744  1.0000
  C   C12       1.0  0.75634  0.90872  0.7995300000000001  1.0000
  C   C13       1.0  0.79443  0.8417399999999999  0.5525300000000001  1.0000
  C   C14       1.0  0.7940899999999999  0.9650599999999999  0.59671  1.0000
  C   C15       1.0  0.96143  0.71773  0.63986  1.0000
  C   C16       1.0  0.9663800000000002  0.58624  0.59738  1.0000
  C   C17       1.0  0.88151  0.64847  0.55275  1.0000
  C   C18       1.0  0.89211  0.50736  0.50703  1.0000
  C   C19       1.0  0.60846  0.41347  0.7118100000000003  1.0000
  C   C20       1.0  0.45013  0.52026  0.68532  1.0000
  C   C21       1.0  0.25073  0.40775  0.70244  1.0000
  C   C22       1.0  0.2988300000000001  0.34265  0.94918  1.0000
  C   C23       1.0  0.29524  0.46682  0.90518  1.0000
  C   C24       1.0  0.45777  0.21742999999999998  0.8605600000000001  1.0000
  C   C25       1.0  0.46638000000000013  0.08581999999999998  0.9028100000000001  1.0000
  C   C26       1.0  0.38303000000000004  0.14763999999999997  0.9478600000000001  1.0000
  C   C27       1.0  0.39233  0.004549999999999999  0.9930500000000002  1.0000
  C   C28       1.0  0.88959  0.09103  0.21119  1.0000
  C   C29       1.0  0.04369999999999998  0.9842999999999998  0.18256  1.0000
  C   C30       1.0  0.24362000000000006  0.09131  0.20051  1.0000
  C   C31       1.0  0.20558000000000007  0.15824  0.44747000000000003  1.0000
  C   C32       1.0  0.20590000000000006  0.03492  0.40328  1.0000
  C   C33       1.0  0.03858  0.28224  0.36014  1.0000
  C   C34       1.0  0.03362  0.41375  0.4026100000000001  1.0000
  C   C35       1.0  0.11848  0.35152  0.4472500000000001  1.0000
  C   C36       1.0  0.10789000000000001  0.49264  0.4929700000000001  1.0000
  N   N1        1.0  0.62664  0.59659  0.13837  1.0000
  N   N2        1.0  0.87721  0.9038899999999997  0.63958  1.0000
  N   N3        1.0  0.37338  0.40338  0.86164  1.0000
  N   N4        1.0  0.12278000000000003  0.09611999999999997  0.36043  1.0000
  O   O1        1.0  0.3776100000000001  0.5645  0.24070000000000005  1.0000
  O   O2        1.0  0.28497000000000006  0.6895499999999999  0.3165900000000001  1.0000
  O   O3        1.0  0.80423  0.56993  0.252  1.0000
  O   O4        1.0  0.8524000000000003  0.7109299999999997  0.32988  1.0000
  O   O5        1.0  0.11687000000000003  0.92719  0.74111  1.0000
  O   O6        1.0  0.21955  0.80572  0.81637  1.0000
  O   O7        1.0  0.7117000000000002  0.9347899999999999  0.7534  1.0000
  O   O8        1.0  0.64551  0.78852  0.8305600000000001  1.0000
  O   O9        1.0  0.62239  0.43552  0.75929  1.0000
  O   O10       1.0  0.71505  0.31043  0.68339  1.0000
  O   O11       1.0  0.19577999999999998  0.4300899999999999  0.74799  1.0000
  O   O12       1.0  0.14758  0.28907  0.6701000000000001  1.0000
  O   O13       1.0  0.8830700000000001  0.07277  0.25888  1.0000
  O   O14       1.0  0.78044  0.19434  0.18361  1.0000
  O   O15       1.0  0.2882  0.06555  0.2466  1.0000
  O   O16       1.0  0.35455000000000003  0.21152  0.16942  1.0000
