data_image0
_chemical_formula_structural       Eu2H12C24N6O14
_chemical_formula_sum              "Eu2 H12 C24 N6 O14"
_cell_length_a       8.36988
_cell_length_b       9.918860000000002
_cell_length_c       12.6464
_cell_angle_alpha    77.12669
_cell_angle_beta     70.84499
_cell_angle_gamma    93.88752

_symmetry_space_group_name_H-M    'P 1'
_symmetry_Int_Tables_number       1

loop_
  _symmetry_equiv_pos_as_xyz
  'x,y,z'

loop_
  _atom_site_type_symbol
  _atom_site_label
  _atom_site_symmetry_multiplicity
  _atom_site_fract_x
  _atom_site_fract_y
  _atom_site_fract_z
  _atom_site_occupancy
  Eu  Eu1       1.0  0.86436  0.7379  0.00403  1.0000
  Eu  Eu2       1.0  0.13561000000000015  0.26266000000000006  0.9960599999999998  1.0000
  H   H1        1.0  0.40886  0.45571999999999996  0.70242  1.0000
  H   H2        1.0  0.11097000000000001  0.7803000000000001  0.63274  1.0000
  H   H3        1.0  0.24623  0.7917899999999999  0.42094999999999994  1.0000
  H   H4        1.0  0.8937  0.92055  0.70323  1.0000
  H   H5        1.0  0.15862999999999997  0.32629  0.6652799999999999  1.0000
  H   H6        1.0  0.24056000000000005  0.36661000000000005  0.44947999999999994  1.0000
  H   H7        1.0  0.58991  0.5436  0.29874  1.0000
  H   H8        1.0  0.8895100000000002  0.21969  0.36697  1.0000
  H   H9        1.0  0.7543  0.20747000000000002  0.57909  1.0000
  H   H10       1.0  0.10451999999999997  0.07859  0.29843  1.0000
  H   H11       1.0  0.84007  0.67324  0.33469  1.0000
  H   H12       1.0  0.75892  0.63152  0.55053  1.0000
  C   C1        1.0  0.16046000000000002  0.59887  0.81211  1.0000
  C   C2        1.0  0.43794999999999995  0.5449900000000002  0.52376  1.0000
  C   C3        1.0  0.36996  0.5325499999999999  0.64341  1.0000
  C   C4        1.0  0.2489600000000001  0.61654  0.6841399999999999  1.0000
  C   C5        1.0  0.20426000000000002  0.7132300000000003  0.6036599999999999  1.0000
  C   C6        1.0  0.27906000000000003  0.7186900000000002  0.48607999999999996  1.0000
  C   C7        1.0  0.9763800000000002  0.08643000000000005  0.8300899999999999  1.0000
  C   C8        1.0  0.02459000000000009  0.050340000000000044  0.5289799999999999  1.0000
  C   C9        1.0  0.9725  0.01982000000000002  0.65025  1.0000
  C   C10       1.0  0.022370000000000022  0.11908000000000002  0.7006  1.0000
  C   C11       1.0  0.11898000000000002  0.24680999999999995  0.62838  1.0000
  C   C12       1.0  0.16472999999999996  0.26858  0.50855  1.0000
  C   C13       1.0  0.83974  0.40165  0.18813  1.0000
  C   C14       1.0  0.56158  0.45386  0.47697  1.0000
  C   C15       1.0  0.62939  0.46664  0.3572799999999999  1.0000
  C   C16       1.0  0.7508500000000001  0.38317  0.31621  1.0000
  C   C17       1.0  0.79587  0.28637  0.39643999999999996  1.0000
  C   C18       1.0  0.72113  0.28052  0.51412  1.0000
  C   C19       1.0  0.022070000000000038  0.91292  0.17038999999999999  1.0000
  C   C20       1.0  0.9739300000000001  0.9478699999999998  0.47193  1.0000
  C   C21       1.0  0.025890000000000014  0.9789699999999999  0.35064999999999996  1.0000
  C   C22       1.0  0.9763500000000002  0.88001  0.29992  1.0000
  C   C23       1.0  0.8797100000000001  0.75224  0.37195  1.0000
  C   C24       1.0  0.8342699999999998  0.72984  0.4918  1.0000
  N   N1        1.0  0.3921  0.63622  0.44643  1.0000
  N   N2        1.0  0.12056999999999998  0.17265  0.45938  1.0000
  N   N3        1.0  0.4941900000000001  0.74724  0.060259999999999994  1.0000
  N   N4        1.0  0.60793  0.36278  0.55407  1.0000
  N   N5        1.0  0.87855  0.82529  0.54134  1.0000
  N   N6        1.0  0.50241  0.24443000000000006  0.9427099999999998  1.0000
  O   O1        1.0  0.1846900000000001  0.4964200000000001  0.8825499999999997  1.0000
  O   O2        1.0  0.06322999999999998  0.6879500000000002  0.84146  1.0000
  O   O3        1.0  0.8914500000000001  0.96718  0.8897099999999999  1.0000
  O   O4        1.0  0.028169999999999966  0.17989000000000005  0.87084  1.0000
  O   O5        1.0  0.58109  0.69734  0.97731  1.0000
  O   O6        1.0  0.5746  0.78542  0.1222  1.0000
  O   O7        1.0  0.34237  0.75859  0.07953  1.0000
  O   O8        1.0  0.81615  0.50479  0.11801  1.0000
  O   O9        1.0  0.9367699999999999  0.31255  0.1586  1.0000
  O   O10       1.0  0.10297999999999999  0.03341  0.11107  1.0000
  O   O11       1.0  0.9752899999999997  0.8185800000000001  0.12857  1.0000
  O   O12       1.0  0.41718  0.2934  0.02669  1.0000
  O   O13       1.0  0.42231  0.21411999999999998  0.8778  1.0000
  O   O14       1.0  0.6520100000000001  0.22673000000000004  0.9253799999999999  1.0000
