data_image0
_chemical_formula_structural       Cd6H12C12N18Cl6
_chemical_formula_sum              "Cd6 H12 C12 N18 Cl6"
_cell_length_a       8.58226
_cell_length_b       8.58251
_cell_length_c       15.889290000000003
_cell_angle_alpha    90.02264000000001
_cell_angle_beta     89.9771
_cell_angle_gamma    90.49787

_space_group_name_H-M_alt    "P 1"
_space_group_IT_number       1

loop_
  _space_group_symop_operation_xyz
  'x, y, z'

loop_
  _atom_site_type_symbol
  _atom_site_label
  _atom_site_symmetry_multiplicity
  _atom_site_fract_x
  _atom_site_fract_y
  _atom_site_fract_z
  _atom_site_occupancy
  Cd  Cd1       1.0  0.05769  0.9422999999999999  0.67794  1.0000
  Cd  Cd2       1.0  0.65428  0.34571  0.8130700000000002  1.0000
  Cd  Cd3       1.0  0.35834  0.64166  0.7273200000000002  1.0000
  Cd  Cd4       1.0  0.94233  0.05767  0.17776  1.0000
  Cd  Cd5       1.0  0.34579  0.65421  0.3131800000000001  1.0000
  Cd  Cd6       1.0  0.6415900000000002  0.3584  0.22725000000000006  1.0000
  H   H1        1.0  0.74254  0.70739  0.7437100000000002  1.0000
  H   H2        1.0  0.07302  0.37797  0.81809  1.0000
  H   H3        1.0  0.25727  0.29226  0.24406  1.0000
  H   H4        1.0  0.92689  0.62219  0.31818000000000013  1.0000
  H   H5        1.0  0.70775  0.74277  0.24406  1.0000
  H   H6        1.0  0.37774  0.0731  0.3181700000000001  1.0000
  H   H7        1.0  0.29259  0.25741  0.7437100000000002  1.0000
  H   H8        1.0  0.62208  0.92699  0.8180800000000003  1.0000
  H   H9        1.0  0.4235700000000001  0.57646  0.51378  1.0000
  H   H10       1.0  0.09058  0.90939  0.4447800000000001  1.0000
  H   H11       1.0  0.57658  0.42339  0.01372  1.0000
  H   H12       1.0  0.90964  0.09039  0.9445200000000002  1.0000
  C   C1        1.0  0.8519500000000002  0.65038  0.7566700000000002  1.0000
  C   C2        1.0  0.01932  0.48216  0.7936  1.0000
  C   C3        1.0  0.14793  0.34958  0.25682  1.0000
  C   C4        1.0  0.9805400000000001  0.51796  0.2936400000000001  1.0000
  C   C5        1.0  0.6503900000000002  0.8521  0.25682  1.0000
  C   C6        1.0  0.48201000000000005  0.01949  0.2936300000000001  1.0000
  C   C7        1.0  0.34964  0.14802  0.75668  1.0000
  C   C8        1.0  0.51787  0.9806500000000001  0.7935900000000002  1.0000
  C   C9        1.0  0.33459  0.66542  0.5165000000000002  1.0000
  C   C10       1.0  0.16565  0.83433  0.48137  1.0000
  C   C11       1.0  0.66558  0.3344  0.01641  1.0000
  C   C12       1.0  0.83451  0.1655  0.9811200000000002  1.0000
  N   N1        1.0  0.9912800000000002  0.71009  0.73695  1.0000
  N   N2        1.0  0.09967  0.60142  0.7608200000000003  1.0000
  N   N3        1.0  0.86378  0.50791  0.79221  1.0000
  N   N4        1.0  0.00865  0.29  0.23689000000000004  1.0000
  N   N5        1.0  0.90025  0.39889  0.26057  1.0000
  N   N6        1.0  0.13604  0.49202  0.29246  1.0000
  N   N7        1.0  0.70998  0.9913699999999999  0.23689000000000004  1.0000
  N   N8        1.0  0.60108  0.09977  0.2605600000000001  1.0000
  N   N9        1.0  0.50794  0.86399  0.2924500000000001  1.0000
  N   N10       1.0  0.2899200000000001  0.0087  0.73695  1.0000
  N   N11       1.0  0.3986  0.9003000000000001  0.76081  1.0000
  N   N12       1.0  0.49211  0.13618  0.79221  1.0000
  N   N13       1.0  0.2780700000000001  0.72193  0.58825  1.0000
  N   N14       1.0  0.16864  0.83134  0.5655300000000002  1.0000
  N   N15       1.0  0.2678700000000001  0.73212  0.44799  1.0000
  N   N16       1.0  0.72208  0.27791  0.08810000000000003  1.0000
  N   N17       1.0  0.83152  0.16849  0.06529000000000003  1.0000
  N   N18       1.0  0.73229  0.26771  0.94782  1.0000
  Cl  Cl1       1.0  0.8621  0.13796  0.70274  1.0000
  Cl  Cl2       1.0  0.54657  0.45341  0.6589900000000002  1.0000
  Cl  Cl3       1.0  0.45499  0.54495  0.8760600000000002  1.0000
  Cl  Cl4       1.0  0.13783  0.8621  0.20298000000000005  1.0000
  Cl  Cl5       1.0  0.45327  0.54675  0.15920000000000006  1.0000
  Cl  Cl6       1.0  0.54507  0.45499  0.3761100000000001  1.0000
